data_mof_unit_62963.cif
_audit_creation_date              2012-12-10T20:04:53-0500
_audit_creation_method            fapswitch 2.2
_symmetry_space_group_name_H-M    P1
_symmetry_Int_Tables_number       1
_space_group_crystal_system       triclinic
_cell_length_a                    10.808551
_cell_length_b                    19.283276
_cell_length_c                    18.501263
_cell_angle_alpha                 90.359629
_cell_angle_beta                  105.447509
_cell_angle_gamma                 91.032077
_cell_volume                      3715.96138855

loop_
_atom_site_label
_atom_site_type_symbol
_atom_type_description
_atom_site_fract_x
_atom_site_fract_y
_atom_site_fract_z
_atom_type_partial_charge
C1    C     C_R   0.499485 0.365605 0.499821 0.901227
C2    C     C_R   0.502581 0.928433 0.499355 0.111030
C3    C     C_R   0.583639 0.542573 0.740609 0.256900
C4    C     C_R   0.416361 0.457427 0.259391 0.256900
C5    C     C_R   0.583736 0.542744 0.817045 -0.110683
C6    C     C_R   0.416264 0.457255 0.182955 -0.110683
C7    C     C_R   0.498660 0.498377 0.841696 0.027168
C8    C     C_R   0.501340 0.501623 0.158304 0.027168
C9    C     C_R   0.413117 0.456258 0.787952 -0.267773
C10   C     C_R   0.586883 0.543742 0.212048 -0.267774
C11   C     C_R   0.415667 0.457627 0.712301 0.014884
C12   C     C_R   0.500515 0.634395 0.500179 0.901230
C13   C     C_R   0.584333 0.542373 0.287699 0.014885
C14   C     C_R   0.386526 0.512522 0.944437 -0.159472
C15   C     C_R   0.613474 0.487478 0.055563 -0.159472
C16   C     C_R   0.258525 0.502263 0.468155 0.972598
C17   C     C_R   0.741475 0.497737 0.531845 0.972597
C18   C     C_R   0.388691 0.516044 0.020665 -0.152455
C19   C     C_R   0.611309 0.483956 0.979335 -0.152454
C20   C     C_R   0.502004 0.503168 0.077230 0.120258
C21   C     C_R   0.497996 0.496832 0.922770 0.120258
C22   C     C_2   0.120906 0.497052 0.448642 -0.365875
C23   C     C_R   0.502411 0.709715 0.500260 -0.072569
C24   C     C_2   0.879094 0.502948 0.551358 -0.365875
C25   C     C_2   0.060119 0.517603 0.498869 0.142702
C26   C     C_2   0.939881 0.482397 0.501131 0.142702
C27   C     C_R   0.519568 0.745089 0.437503 -0.205563
C28   C     C_R   0.480429 0.254911 0.562497 -0.205562
C29   C     C_R   0.521140 0.816967 0.436613 0.181279
C30   C     C_R   0.478853 0.183032 0.563387 0.181278
C31   C     C_R   0.504802 0.853595 0.499080 0.036991
C32   C     C_R   0.495186 0.146405 0.500919 0.036991
C33   C     C_R   0.489195 0.818576 0.562102 -0.183450
C34   C     C_R   0.497585 0.290285 0.499739 -0.072570
C35   C     C_R   0.510792 0.181423 0.437897 -0.183450
C36   C     C_R   0.487820 0.746738 0.562740 -0.138325
C37   C     C_R   0.512171 0.253261 0.437258 -0.138324
C38   C     C_1   0.667733 0.590464 0.869306 0.208670
C39   C     C_1   0.332267 0.409535 0.130694 0.208670
C40   C     C_R   0.603464 0.966004 0.547505 -0.147729
C41   C     C_R   0.396524 0.033995 0.452495 -0.147729
C42   C     C_R   0.601231 0.037824 0.547844 -0.124345
C43   C     C_R   0.398757 0.962176 0.452156 -0.124346
C44   C     C_R   0.497407 0.071567 0.500644 0.111031
H1    H     H_    0.345547 0.421872 0.804589 0.165920
H2    H     H_    0.076037 0.463747 0.401228 0.183253
H3    H     H_    0.532701 0.717088 0.389241 0.179133
H4    H     H_    0.467299 0.282912 0.610760 0.179133
H5    H     H_    0.476761 0.846990 0.610324 0.167162
H6    H     H_    0.523223 0.153008 0.389674 0.167162
H7    H     H_    0.474443 0.720330 0.611690 0.188940
H8    H     H_    0.525547 0.279669 0.388308 0.188939
H9    H     H_    0.683614 0.939692 0.584103 0.155287
H10   H     H_    0.316375 0.060307 0.415896 0.155287
H11   H     H_    0.679726 0.067153 0.584690 0.159201
H12   H     H_    0.654453 0.578127 0.195411 0.165920
H13   H     H_    0.320262 0.932846 0.415310 0.159201
H14   H     H_    0.349950 0.424497 0.671705 0.148927
H15   H     H_    0.650050 0.575503 0.328295 0.148926
H16   H     H_    0.298318 0.523374 0.902349 0.153499
H17   H     H_    0.701682 0.476626 0.097651 0.153499
H18   H     H_    0.301374 0.528627 0.035630 0.147688
H19   H     H_    0.698626 0.471373 0.964370 0.147688
H20   H     H_    0.923963 0.536253 0.598772 0.183253
I1    I     I_    0.865311 0.394280 0.428520 -0.344465
I2    I     I_    0.134688 0.605719 0.571480 -0.344467
I3    I     I_    0.553779 0.866639 0.341000 -0.344031
I4    I     I_    0.446214 0.133361 0.659000 -0.344031
I5    I     I_    0.717000 0.610382 0.707838 -0.314952
I6    I     I_    0.283000 0.389618 0.292162 -0.314953
N1    N     N_R   0.500020 0.499980 0.689440 -0.111211
N2    N     N_R   0.499980 0.500020 0.310560 -0.111210
N3    N     N_1   0.734753 0.628595 0.911156 -0.162531
N4    N     N_1   0.265247 0.371405 0.088844 -0.162530
O1    O     O_R   0.500000 0.398180 0.560840 -0.633759
O2    O     O_R   0.500000 0.601820 0.439160 -0.633759
O3    O     O_R   0.499950 0.398180 0.439200 -0.592774
O4    O     O_R   0.500050 0.601820 0.560800 -0.592776
O5    O     O_R   0.317830 0.500010 0.538110 -0.593909
O6    O     O_R   0.682170 0.499990 0.461890 -0.593909
O7    O     O_R   0.317770 0.500000 0.416470 -0.593489
O8    O     O_R   0.682230 0.500000 0.583530 -0.593489
Zn1   Zn    Zn3+2 0.500040 0.500000 0.581220 0.996644
Zn2   Zn    Zn3+2 0.499960 0.500000 0.418780 0.996645

loop_
_geom_bond_atom_site_label_1
_geom_bond_atom_site_label_2
_ccdc_geom_bond_type
C30   C32   A    
C9    H1    S    
C27   C29   A    
C34   C37   A    
C1    O3    A    
C14   C18   A    
O6    Zn2   S    
O2    Zn2   S    
C4    I6    S    
C15   C19   A    
C12   C23   S    
C8    C20   S    
C14   C21   A    
C35   C37   A    
C24   C26   D    
C11   N1    A    
C33   H5    S    
C33   C36   A    
C17   O8    A    
C39   N4    T    
C29   I3    S    
O4    Zn1   S    
C19   H19   S    
C22   C25   D    
C12   O4    A    
C31   C33   A    
C23   C27   A    
C11   H14   S    
C10   H12   S    
C40   C42   A    
C28   C34   A    
C24   H20   S    
C5    C38   S    
C41   C43   A    
C42   C44   A    
C1    C34   S    
N1    Zn1   S    
C15   H17   S    
C15   C20   A    
C17   C24   S    
C1    O1    A    
C32   C35   A    
C4    C6    A    
C5    C7    A    
C37   H8    S    
C18   H18   S    
C6    C8    A    
O3    Zn2   S    
C25   C26   S    
C7    C21   S    
O8    Zn1   S    
C17   O6    A    
C2    C31   S    
C3    N1    A    
C42   H11   S    
C2    C43   A    
C35   H6    S    
C32   C44   S    
C9    C11   A    
N2    Zn2   S    
C36   H7    S    
C22   H2    S    
C40   H9    S    
C12   O2    A    
C41   C44   A    
C4    N2    A    
O7    Zn2   S    
C27   H3    S    
C7    C9    A    
C28   H4    S    
C16   C22   S    
C3    I5    S    
C26   I1    S    
C25   I2    S    
C3    C5    A    
C10   C13   A    
C13   H15   S    
C13   N2    A    
C14   H16   S    
C16   O5    A    
C28   C30   A    
C29   C31   A    
O5    Zn1   S    
O1    Zn1   S    
C16   O7    A    
C18   C20   A    
C41   H10   S    
C43   H13   S    
C2    C40   A    
C8    C10   A    
C23   C36   A    
C6    C39   S    
C30   I4    S    
C19   C21   A    
C38   N3    T    
