data_mof_unit_66890.cif
_audit_creation_date              2013-03-05T15:57:24-0500
_audit_creation_method            fapswitch 2.2
_symmetry_space_group_name_H-M    P1
_symmetry_Int_Tables_number       1
_space_group_crystal_system       triclinic
_cell_length_a                    17.137854
_cell_length_b                    18.662959
_cell_length_c                    8.320134
_cell_angle_alpha                 90.000041
_cell_angle_beta                  102.16857
_cell_angle_gamma                 89.995747
_cell_volume                      2601.34585946

loop_
_atom_site_label
_atom_site_type_symbol
_atom_site_description
_atom_site_fract_x
_atom_site_fract_y
_atom_site_fract_z
_atom_type_partial_charge
P1    P     P_3+3 0.834140 0.419320 0.003900 0.943661
P2    P     P_3+3 0.834140 0.580680 0.503900 0.943597
P3    P     P_3+3 0.334140 0.919320 0.003900 0.943680
P4    P     P_3+3 0.334140 0.080680 0.503900 0.943614
O1    O     O_2   0.841960 0.394640 0.833410 -0.474212
O2    O     O_2   0.841960 0.605360 0.333410 -0.474251
O3    O     O_2   0.341960 0.894640 0.833410 -0.474224
O4    O     O_2   0.341960 0.105360 0.333410 -0.474261
O5    O     O_3   0.907950 0.463080 0.102990 -0.496667
O6    O     O_3   0.907950 0.536920 0.602990 -0.496594
O7    O     O_3   0.407950 0.963080 0.102990 -0.496673
O8    O     O_3   0.407950 0.036920 0.602990 -0.496604
O9    O     O_3   0.972780 0.329600 0.629720 -0.488042
O10   O     O_3   0.972780 0.670400 0.129720 -0.487916
O11   O     O_3   0.472780 0.829600 0.629720 -0.488078
O12   O     O_3   0.472780 0.170400 0.129720 -0.487964
O13   O     O_2   0.845705 0.268002 0.704040 -0.486982
O14   O     O_2   0.845677 0.731970 0.204025 -0.487498
O15   O     O_2   0.345714 0.767993 0.704048 -0.486788
O16   O     O_2   0.345685 0.231972 0.204028 -0.487326
O17   O     O_3   0.746662 0.469701 0.944297 -0.661341
O18   O     O_3   0.746648 0.530316 0.444302 -0.661346
O19   O     O_3   0.246659 0.969704 0.944302 -0.661350
O20   O     O_3   0.246642 0.030317 0.444311 -0.661350
O21   O     O_3   0.953203 0.181504 0.637974 -0.595741
O22   O     O_3   0.953156 0.818487 0.137970 -0.595295
O23   O     O_3   0.453230 0.681502 0.638043 -0.595814
O24   O     O_3   0.453175 0.318490 0.138030 -0.595347
H1    H     H_    0.065397 0.229005 0.691561 0.093770
H2    H     H_    0.065404 0.771055 0.189615 0.092576
H3    H     H_    0.565399 0.729053 0.691819 0.093966
H4    H     H_    0.565409 0.271035 0.190133 0.092873
C1    C     C_3   0.072442 0.118966 0.634376 -0.397028
C2    C     C_3   0.072167 0.881207 0.133349 -0.397005
C3    C     C_3   0.572534 0.619009 0.634793 -0.397192
C4    C     C_3   0.572247 0.381169 0.133734 -0.397041
H5    H     H_    0.583771 0.605963 0.767430 0.141072
H6    H     H_    0.629837 0.377528 0.093450 0.067453
H7    H     H_    0.130161 0.122718 0.594608 0.067285
H8    H     H_    0.083675 0.894119 0.266059 0.140702
H9    H     H_    0.083637 0.105844 0.766980 0.140930
H10   H     H_    0.034552 0.923839 0.063089 0.118089
H11   H     H_    0.535052 0.576404 0.564059 0.118139
H12   H     H_    0.583691 0.394105 0.266425 0.140830
P5    P     P_3+3 0.165830 0.418670 0.685610 0.966059
P6    P     P_3+3 0.165830 0.581330 0.185610 0.966705
P7    P     P_3+3 0.665830 0.918670 0.685610 0.965981
P8    P     P_3+3 0.665830 0.081330 0.185610 0.966639
P9    P     P_3+3 0.098727 0.262300 0.104850 0.950884
P10   P     P_3+3 0.098615 0.737786 0.604939 0.950475
P11   P     P_3+3 0.598740 0.762312 0.104808 0.951104
P12   P     P_3+3 0.598631 0.237771 0.604897 0.950634
O25   O     O_2   0.157990 0.394030 0.856030 -0.468340
O26   O     O_2   0.157990 0.605970 0.356030 -0.470293
O27   O     O_2   0.657990 0.894030 0.856030 -0.468311
O28   O     O_2   0.657990 0.105970 0.356030 -0.470207
O29   O     O_3   0.027110 0.329490 0.059550 -0.472274
O30   O     O_3   0.027110 0.670510 0.559550 -0.472722
O31   O     O_3   0.527110 0.829490 0.059550 -0.472067
O32   O     O_3   0.527110 0.170510 0.559550 -0.472554
O33   O     O_2   0.157055 0.271963 0.987986 -0.489534
O34   O     O_2   0.157056 0.728096 0.488309 -0.489222
O35   O     O_2   0.657045 0.771972 0.987897 -0.489598
O36   O     O_2   0.657047 0.228085 0.488214 -0.489299
O37   O     O_3   0.249584 0.474657 0.727935 -0.639034
O38   O     O_3   0.249658 0.525366 0.226718 -0.638930
O39   O     O_3   0.749593 0.974667 0.727628 -0.639175
O40   O     O_3   0.749663 0.025357 0.226489 -0.639077
O41   O     O_3   0.050246 0.181424 0.042756 -0.601584
O42   O     O_3   0.050164 0.818675 0.542681 -0.601713
O43   O     O_3   0.550220 0.681457 0.042696 -0.601424
O44   O     O_3   0.550148 0.318642 0.542640 -0.601604
C5    C     C_3   0.979308 0.176776 0.102261 0.335783
C6    C     C_3   0.978680 0.822966 0.600284 0.335461
C7    C     C_3   0.479487 0.676671 0.102912 0.335771
C8    C     C_3   0.478858 0.323062 0.600919 0.335529
H13   H     H_    0.927856 0.187870 0.999581 0.082470
H14   H     H_    0.927783 0.811303 0.496844 0.083459
H15   H     H_    0.427827 0.687446 0.000467 0.082167
H16   H     H_    0.427766 0.311632 0.497741 0.083112
H17   H     H_    0.975988 0.214774 0.203280 -0.042203
H18   H     H_    0.975236 0.785194 0.701626 -0.041831
H19   H     H_    0.476149 0.714824 0.203627 -0.042214
H20   H     H_    0.475438 0.285192 0.702093 -0.041926
C9    C     C_3   0.971690 0.101292 0.166145 -0.427134
C10   C     C_3   0.969924 0.898524 0.662686 -0.426200
C11   C     C_3   0.472366 0.601260 0.167640 -0.427522
C12   C     C_3   0.470522 0.398577 0.663923 -0.426535
H21   H     H_    0.473707 0.561291 0.069450 0.129920
H22   H     H_    0.413001 0.403945 0.704246 0.101228
H23   H     H_    0.973321 0.061442 0.067861 0.129770
H24   H     H_    0.912152 0.903837 0.702053 0.101235
H25   H     H_    0.022169 0.090150 0.270626 0.113317
H26   H     H_    0.972333 0.938226 0.564531 0.129258
H27   H     H_    0.523210 0.590351 0.271524 0.113386
H28   H     H_    0.472678 0.438353 0.565782 0.129343
C13   C     C_3   0.227589 0.456439 0.266207 0.284782
C14   C     C_3   0.226907 0.543783 0.764470 0.285855
C15   C     C_3   0.727735 0.956481 0.266737 0.284091
C16   C     C_3   0.727077 0.043749 0.764917 0.284896
H29   H     H_    0.208306 0.458033 0.384840 0.010078
H30   H     H_    0.203700 0.542573 0.878806 0.011510
H31   H     H_    0.709475 0.958179 0.386467 0.010711
H32   H     H_    0.705197 0.042474 0.880746 0.011919
H33   H     H_    0.179385 0.433850 0.168921 0.071312
H34   H     H_    0.181338 0.566563 0.662349 0.074057
H35   H     H_    0.678845 0.933938 0.170732 0.070382
H36   H     H_    0.680589 0.066408 0.664341 0.073223
C17   C     C_3   0.299891 0.407799 0.282060 -0.350931
C18   C     C_3   0.300120 0.591681 0.789530 -0.360320
C19   C     C_3   0.799776 0.907645 0.280197 -0.348160
C20   C     C_3   0.799972 0.091920 0.786666 -0.357019
H37   H     H_    0.350549 0.430659 0.372489 0.116192
H38   H     H_    0.347027 0.569792 0.889843 0.114086
H39   H     H_    0.851416 0.930799 0.367826 0.117072
H40   H     H_    0.848231 0.069727 0.883675 0.115019
H41   H     H_    0.286297 0.353802 0.323922 0.078296
H42   H     H_    0.285035 0.646628 0.822762 0.081234
H43   H     H_    0.786628 0.853924 0.324511 0.077443
H44   H     H_    0.785345 0.146559 0.822786 0.080354
H45   H     H_    0.317247 0.402917 0.161209 0.143037
H46   H     H_    0.323358 0.594037 0.674640 0.146976
H47   H     H_    0.815526 0.902031 0.157811 0.141776
H48   H     H_    0.821178 0.095105 0.669604 0.145384
Ba1   Ba    Ba6+2 0.000000 0.447380 0.844850 1.620265
Ba2   Ba    Ba6+2 0.000000 0.552620 0.344850 1.620232
Ba3   Ba    Ba6+2 0.500000 0.947380 0.844850 1.620368
Ba4   Ba    Ba6+2 0.500000 0.052620 0.344850 1.620317
C21   C     C_3   0.743059 0.525224 0.054258 0.310986
C22   C     C_3   0.743033 0.474772 0.554210 0.310819
C23   C     C_3   0.243058 0.025232 0.054259 0.310911
C24   C     C_3   0.243033 0.974764 0.554206 0.310733
H49   H     H_    0.780898 0.513801 0.175615 0.104009
H50   H     H_    0.780869 0.486178 0.675569 0.104060
H51   H     H_    0.280907 0.013814 0.175606 0.104004
H52   H     H_    0.280873 0.986168 0.675562 0.104056
C25   C     C_3   0.657875 0.532841 0.079355 -0.369998
C26   C     C_3   0.657839 0.467147 0.579280 -0.369533
C27   C     C_3   0.157879 0.032846 0.079397 -0.369698
C28   C     C_3   0.157842 0.967130 0.579300 -0.369185
H53   H     H_    0.613490 0.519663 0.965745 0.120986
H54   H     H_    0.613454 0.480256 0.465615 0.120823
H55   H     H_    0.113485 0.019722 0.965763 0.120926
H56   H     H_    0.113450 0.980169 0.465597 0.120770
H57   H     H_    0.646852 0.587287 0.120720 0.130200
H58   H     H_    0.646836 0.412719 0.620788 0.130352
H59   H     H_    0.146874 0.087273 0.120899 0.130270
H60   H     H_    0.146870 0.912721 0.620960 0.130384
H61   H     H_    0.649491 0.497378 0.179934 0.114339
H62   H     H_    0.649430 0.502639 0.679783 0.114273
H63   H     H_    0.149497 0.997345 0.179909 0.114263
H64   H     H_    0.149418 0.002664 0.679717 0.114188
O45   O     O_3   0.092100 0.536880 0.086720 -0.496496
O46   O     O_3   0.092100 0.463120 0.586720 -0.497337
O47   O     O_3   0.592100 0.036880 0.086720 -0.496325
O48   O     O_3   0.592100 0.963120 0.586720 -0.497194
P13   P     P_3+3 0.902347 0.738542 0.082684 0.947562
P14   P     P_3+3 0.902370 0.261443 0.582682 0.947963
P15   P     P_3+3 0.402361 0.238551 0.082700 0.947749
P16   P     P_3+3 0.402385 0.761431 0.582699 0.948198
C29   C     C_3   0.029903 0.189526 0.606139 0.374455
C30   C     C_3   0.029646 0.810649 0.104955 0.374347
C31   C     C_3   0.529962 0.689548 0.606389 0.374559
C32   C     C_3   0.529721 0.310613 0.105316 0.374469
H65   H     H_    0.027331 0.205739 0.476837 -0.071523
H66   H     H_    0.026658 0.794710 0.975345 -0.071713
H67   H     H_    0.527448 0.705743 0.477103 -0.071551
H68   H     H_    0.526838 0.294627 0.975774 -0.071718
H69   H     H_    0.630231 0.622742 0.594940 0.067225
H70   H     H_    0.534659 0.423793 0.063371 0.118138
H71   H     H_    0.034959 0.076402 0.563466 0.118026
H72   H     H_    0.129724 0.877583 0.092933 0.067549
H73   H     H_    0.415600 0.595737 0.210865 0.100991
H74   H     H_    0.520398 0.409934 0.769449 0.113440
H75   H     H_    0.914634 0.095817 0.208267 0.101006
H76   H     H_    0.019479 0.910049 0.768756 0.113407
C33   C     C_R   0.137477 0.677638 0.919720 -0.286047
C34   C     C_R   0.137783 0.322573 0.419454 -0.286084
C35   C     C_R   0.637534 0.177591 0.919634 -0.286124
C36   C     C_R   0.637821 0.822608 0.419382 -0.286160
C37   C     C_R   0.864925 0.320360 0.264983 -0.269953
C38   C     C_R   0.864916 0.679601 0.765020 -0.270134
C39   C     C_R   0.364940 0.820350 0.264990 -0.269849
C40   C     C_R   0.364932 0.179610 0.765028 -0.270046
C41   C     C_R   0.792333 0.212181 0.301436 -0.096254
C42   C     C_R   0.792363 0.787813 0.801406 -0.095919
C43   C     C_R   0.292346 0.712171 0.301455 -0.096429
C44   C     C_R   0.292380 0.287824 0.801425 -0.096091
C45   C     C_R   0.849437 0.263981 0.364626 -0.013569
C46   C     C_R   0.849431 0.735991 0.864638 -0.013449
C47   C     C_R   0.349456 0.763967 0.364636 -0.013691
C48   C     C_R   0.349450 0.236003 0.864649 -0.013532
C49   C     C_R   0.817713 0.331901 0.108380 0.063092
C50   C     C_R   0.817735 0.668094 0.608377 0.062917
C51   C     C_R   0.317720 0.831898 0.108394 0.063156
C52   C     C_R   0.317745 0.168097 0.608391 0.062971
C53   C     C_R   0.756667 0.280206 0.044660 -0.050522
C54   C     C_R   0.756743 0.719830 0.544597 -0.050629
C55   C     C_R   0.256667 0.780208 0.044689 -0.050468
C56   C     C_R   0.256749 0.219831 0.544623 -0.050600
C57   C     C_R   0.244518 0.718841 0.141993 -0.059212
C58   C     C_R   0.244608 0.281195 0.641931 -0.059334
C59   C     C_R   0.744515 0.218841 0.141965 -0.059263
C60   C     C_R   0.744598 0.781192 0.641906 -0.059377
C61   C     C_R   0.183587 0.667128 0.077777 0.046253
C62   C     C_R   0.183749 0.332959 0.577668 0.044636
C63   C     C_R   0.683598 0.167116 0.077738 0.046005
C64   C     C_R   0.683749 0.832966 0.577635 0.044445
C65   C     C_R   0.151716 0.734998 0.822049 -0.008690
C66   C     C_R   0.151940 0.265158 0.321861 -0.007991
C67   C     C_R   0.651752 0.234969 0.821988 -0.008534
C68   C     C_R   0.651965 0.765180 0.321807 -0.007893
C69   C     C_R   0.208608 0.786936 0.885734 -0.097464
C70   C     C_R   0.208718 0.213137 0.385636 -0.097242
C71   C     C_R   0.708614 0.286928 0.885698 -0.097455
C72   C     C_R   0.708720 0.713142 0.385602 -0.097264
H77   H     H_    0.285322 0.667740 0.380045 0.107687
H78   H     H_    0.285356 0.332266 0.879948 0.106968
H79   H     H_    0.785309 0.167749 0.380009 0.107247
H80   H     H_    0.785339 0.832256 0.879912 0.106573
H81   H     H_    0.715840 0.331324 0.807929 0.098942
H82   H     H_    0.715870 0.668701 0.307893 0.098791
H83   H     H_    0.215854 0.831319 0.807948 0.098982
H84   H     H_    0.215882 0.168706 0.307916 0.098837
H85   H     H_    0.092577 0.638443 0.868426 0.064003
H86   H     H_    0.092989 0.361851 0.368077 0.063782
H87   H     H_    0.592671 0.138369 0.868310 0.063925
H88   H     H_    0.593056 0.861907 0.367982 0.063714
H89   H     H_    0.911119 0.358659 0.314713 0.066692
H90   H     H_    0.911086 0.641279 0.814780 0.066720
H91   H     H_    0.411137 0.858647 0.314714 0.066676
H92   H     H_    0.411104 0.141288 0.814784 0.066720
C73   C     C_3   0.768747 0.593377 0.980957 -0.249166
H93   H     H_    0.738578 0.598146 0.849617 0.039847
H94   H     H_    0.753782 0.641428 0.046187 0.110882
H95   H     H_    0.834121 0.590716 0.991516 0.094385
C74   C     C_3   0.768718 0.406625 0.480867 -0.249249
H96   H     H_    0.738503 0.401844 0.349552 0.039852
H97   H     H_    0.834085 0.409295 0.491331 0.094258
H98   H     H_    0.753798 0.358575 0.546151 0.110944
C75   C     C_3   0.268727 0.093386 0.980933 -0.249163
H99   H     H_    0.238535 0.098158 0.849604 0.039878
H100  H     H_    0.253772 0.141435 0.046183 0.110919
H101  H     H_    0.334099 0.090728 0.991449 0.094314
C76   C     C_3   0.268712 0.906620 0.480838 -0.249272
H102  H     H_    0.238477 0.901837 0.349533 0.039856
H103  H     H_    0.334077 0.909297 0.491260 0.094204
H104  H     H_    0.253810 0.858569 0.546141 0.110973

loop_
_geom_bond_atom_site_label_1
_geom_bond_atom_site_label_2
_geom_bond_distance
_ccdc_geom_bond_type
P6    C61   1.891223 S    
C15   H31   1.105766 S    
C12   H28   1.109904 S    
C22   C74   1.515530 S    
P1    O17   1.750412 S    
P5    C62   1.890989 S    
C14   C18   1.518798 S    
C39   H91   1.082052 S    
H4    C32   1.111600 S    
P3    O19   1.750473 S    
O3    Ba3   2.864504 S    
C2    H10   1.109674 S    
C20   H40   1.107046 S    
P4    O4    1.523947 D    
C54   C72   1.408516 A    
C28   H60   1.101871 S    
C9    H23   1.110047 S    
C54   C60   1.442674 A    
C12   H74   1.109082 S    
O8    Ba3   2.826984 S    
C22   H50   1.099693 S    
C26   H62   1.099794 S    
O26   Ba2   2.867991 S    
C27   H59   1.101836 S    
C1    H7    1.109429 S    
P11   O43   1.747740 S    
P7    C64   1.891019 S    
C29   H65   1.109450 S    
P1    O1    1.523939 D    
O15   P16   1.546294 D    
O38   C13   1.399367 S    
C25   H57   1.101830 S    
C3    H5    1.106623 S    
P1    Ba1   3.419228 S    
O37   C14   1.399115 S    
C20   H48   1.110613 S    
P3    O3    1.523939 D    
O29   Ba1   2.810265 S    
P4    O20   1.750609 S    
P3    Ba3   3.419228 S    
C24   C76   1.515541 S    
P7    O48   1.588499 S    
O2    Ba2   2.864366 S    
O31   Ba3   2.810265 S    
C35   C67   1.396282 A    
C16   H32   1.105559 S    
P9    O29   1.739451 S    
C34   C66   1.396204 A    
O22   P13   1.739882 S    
C19   H43   1.107683 S    
C75   H99   1.109612 S    
C14   H34   1.110308 S    
C33   C65   1.396267 A    
C36   C68   1.396229 A    
P13   C46   1.849952 S    
O28   Ba4   2.867991 S    
C25   H53   1.108820 S    
P12   O32   1.739471 S    
Ba4   O47   2.935842 S    
O23   C31   1.402577 S    
C30   H66   1.109376 S    
P5    O37   1.750197 S    
C9    H25   1.109158 S    
P11   C68   1.843988 S    
C38   H90   1.082046 S    
C10   H24   1.110884 S    
C60   C64   1.439381 A    
P10   C65   1.844148 S    
O21   C29   1.402588 S    
O16   P15   1.546252 D    
C11   H27   1.109168 S    
P9    C66   1.844013 S    
P2    O18   1.750551 S    
P12   C67   1.844109 S    
C56   C70   1.408520 A    
C40   C48   1.399190 A    
O41   C5    1.408686 S    
C15   C19   1.519578 S    
C38   C50   1.397944 A    
P4    O8    1.583342 S    
O6    Ba1   2.826984 S    
C3    H11   1.109932 S    
C73   H93   1.109590 S    
C28   H64   1.099781 S    
C43   C47   1.397121 A    
C53   C71   1.408536 A    
C4    H12   1.106486 S    
C52   C56   1.439603 A    
O9    Ba1   2.810923 S    
C28   H56   1.108847 S    
P5    O25   1.523264 D    
P9    O41   1.747774 S    
C76   H102  1.109654 S    
O18   C22   1.392306 S    
O12   P15   1.740105 S    
C25   H61   1.099847 S    
P2    O2    1.523947 D    
C37   C45   1.399179 A    
C6    H18   1.110119 S    
C71   H81   1.074393 S    
C5    H17   1.110276 S    
O4    Ba4   2.864366 S    
C51   C55   1.439682 A    
C10   H26   1.109903 S    
C11   H73   1.110827 S    
C1    H71   1.109980 S    
H3    C31   1.111628 S    
C8    H20   1.110113 S    
C16   H36   1.110274 S    
C16   C20   1.518709 S    
P9    O33   1.544972 D    
P4    Ba4   3.419163 S    
O10   P13   1.740145 S    
C19   H47   1.112014 S    
P10   O30   1.739514 S    
C7    H19   1.110257 S    
C68   C72   1.397564 A    
O32   Ba4   2.810316 S    
C2    H72   1.109261 S    
P1    O5    1.583438 S    
C40   H92   1.082048 S    
C26   H54   1.108846 S    
P14   C45   1.850099 S    
C37   H89   1.082054 S    
C20   H44   1.106680 S    
C23   C27   1.524333 S    
C27   H63   1.099836 S    
C23   C75   1.515537 S    
O23   P16   1.739884 S    
C40   C52   1.397966 A    
C42   H80   1.078070 S    
O22   C30   1.402513 S    
O24   P15   1.739886 S    
P3    C51   1.897424 S    
C8    C12   1.520842 S    
C21   C73   1.515533 S    
C75   H100  1.105974 S    
C3    C31   1.499464 S    
C42   C46   1.397021 A    
C1    C29   1.499462 S    
C4    C32   1.499484 S    
O42   C6    1.408713 S    
P12   O44   1.747875 S    
P5    Ba1   3.421461 S    
P8    Ba4   3.421528 S    
C13   C17   1.519128 S    
O20   C24   1.392339 S    
C39   C51   1.397984 A    
C33   C61   1.397913 A    
C35   C63   1.397863 A    
C32   H68   1.109362 S    
C31   H67   1.109389 S    
C24   H52   1.099687 S    
O17   C21   1.392266 S    
P6    O26   1.523258 D    
O19   C23   1.392292 S    
O44   C8    1.408682 S    
P7    O39   1.750356 S    
C6    C10   1.520990 S    
P7    Ba3   3.421461 S    
C18   H42   1.106791 S    
C73   H94   1.105970 S    
C5    C9    1.521003 S    
O25   Ba1   2.867853 S    
O39   C16   1.399214 S    
C21   H49   1.099736 S    
P2    Ba2   3.419163 S    
C7    C11   1.520988 S    
P8    O47   1.588597 S    
C12   H22   1.110764 S    
O30   Ba2   2.810316 S    
C44   H78   1.078143 S    
C74   H97   1.106310 S    
C53   C59   1.442757 A    
P12   O36   1.545024 D    
Ba1   Ba2   4.600414 S    
P10   O34   1.545046 D    
C2    H8    1.106499 S    
C17   H41   1.106965 S    
P11   O31   1.739405 S    
H2    C30   1.111606 S    
Ba3   O47   2.827077 S    
Ba3   Ba4   4.600414 S    
P2    O6    1.583342 S    
Ba2   O46   2.826941 S    
O9    P14   1.740226 S    
C42   C60   1.410138 A    
C37   C49   1.397956 A    
Ba1   O46   2.935865 S    
O24   C32   1.402527 S    
P7    O27   1.523264 D    
C18   H46   1.111201 S    
C43   H77   1.078348 S    
C58   C62   1.439354 A    
P4    C52   1.897196 S    
P11   O35   1.544954 D    
C18   H38   1.107609 S    
C74   H98   1.105972 S    
C57   C61   1.439531 A    
C41   H79   1.078279 S    
C55   C69   1.408542 A    
C4    H70   1.109699 S    
P15   C48   1.849958 S    
P6    Ba2   3.421528 S    
C8    H16   1.110075 S    
P16   C47   1.850131 S    
O27   Ba3   2.867853 S    
C2    C30   1.499474 S    
C39   C47   1.399223 A    
Ba3   O48   2.935865 S    
C19   H39   1.108854 S    
P6    O38   1.750536 S    
C41   C45   1.397121 A    
P6    O45   1.588597 S    
C27   H55   1.108822 S    
C17   H37   1.107479 S    
C24   C28   1.524459 S    
C15   H35   1.111287 S    
C43   C57   1.410372 A    
C23   H51   1.099727 S    
O5    Ba2   2.827121 S    
O10   Ba2   2.810871 S    
P8    O40   1.750668 S    
C44   C48   1.397016 A    
C75   H101  1.106314 S    
C1    H9    1.106701 S    
Ba1   O45   2.827077 S    
C76   H103  1.106310 S    
C67   C71   1.397612 A    
P10   O42   1.747917 S    
O40   C15   1.399581 S    
C13   H33   1.110641 S    
O11   P16   1.740200 S    
O14   P13   1.546254 D    
C14   H30   1.105965 S    
C41   C59   1.410344 A    
C4    H6    1.109280 S    
O43   C7    1.408721 S    
C69   H83   1.074374 S    
C17   H45   1.110802 S    
C50   C54   1.439621 A    
C59   C63   1.439548 A    
C26   H58   1.101863 S    
C49   C53   1.439696 A    
C74   H96   1.109629 S    
C34   C62   1.397785 A    
P8    C63   1.891237 S    
C44   C58   1.410161 A    
C9    H75   1.110796 S    
C3    H69   1.109400 S    
C36   H88   1.082113 S    
O7    Ba4   2.827121 S    
C10   H76   1.109238 S    
O12   Ba4   2.810871 S    
C35   H87   1.082113 S    
C73   H95   1.106317 S    
C65   C69   1.397605 A    
C34   H86   1.082114 S    
C72   H82   1.074397 S    
P3    O7    1.583438 S    
Ba4   O48   2.826941 S    
C33   H85   1.082112 S    
Ba2   O45   2.935842 S    
C21   C25   1.524310 S    
P8    O28   1.523258 D    
C56   C58   1.442688 A    
C6    H14   1.110167 S    
C76   H104  1.105977 S    
O1    Ba1   2.864504 S    
O21   P14   1.739871 S    
C55   C57   1.442769 A    
C11   H21   1.110085 S    
C5    H13   1.110252 S    
P1    C49   1.897350 S    
O13   P14   1.546277 D    
O11   Ba3   2.810923 S    
P5    O46   1.588499 S    
C38   C46   1.399149 A    
H1    C29   1.111679 S    
P2    C50   1.897126 S    
C66   C70   1.397558 A    
C36   C64   1.397745 A    
C7    H15   1.110234 S    
C13   H29   1.105383 S    
C70   H84   1.074379 S    
C22   C26   1.524436 S    
