data_mof_unit_29229.cif
_audit_creation_date              2012-12-11T14:32:52-0500
_audit_creation_method            fapswitch 2.2
_symmetry_space_group_name_H-M    P1
_symmetry_Int_Tables_number       1
_space_group_crystal_system       triclinic
_cell_length_a                    6.970298
_cell_length_b                    14.056067
_cell_length_c                    18.058239
_cell_angle_alpha                 113.894054
_cell_angle_beta                  95.455104
_cell_angle_gamma                 90.718335
_cell_volume                      1607.76270688

loop_
_atom_site_label
_atom_site_type_symbol
_atom_type_description
_atom_site_fract_x
_atom_site_fract_y
_atom_site_fract_z
_atom_type_partial_charge
O1    O     O_R   0.484560 0.544530 0.414330 -0.540833
O2    O     O_R   0.197040 0.638810 0.585080 -0.532616
O3    O     O_R   0.026800 0.455470 0.585670 -0.539254
C1    C     C_R   0.373406 0.683942 0.601459 0.697447
O4    O     O_R   0.155000 0.556150 0.414940 -0.542039
O5    O     O_R   0.984450 0.372220 0.414320 -0.546585
C2    C     C_R   0.320277 0.569379 0.389281 0.725031
O6    O     O_R   0.526900 0.627780 0.585680 -0.543082
O7    O     O_3   0.339170 0.439750 0.499990 -0.375858
V1    V     V_3+5 0.064350 0.511180 0.500000 1.365064
O8    O     O_R   0.654880 0.361190 0.414920 -0.532337
C3    C     C_R   0.817043 0.321696 0.389538 0.749939
O9    O     O_R   0.696930 0.443850 0.585060 -0.550209
C4    C     C_R   0.873403 0.428221 0.609119 0.672914
V2    V     V_3+5 0.564340 0.488820 0.500000 1.352406
O10   O     O_3   0.839390 0.560250 0.500010 -0.376169
C5    C     C_R   0.036852 0.871211 0.827582 -0.038074
C6    C     C_R   0.909980 0.390971 0.675724 -0.044223
C7    C     C_R   0.896937 0.831285 0.689120 -0.139427
C8    C     C_R   0.934755 0.803532 0.754346 -0.179086
C9    C     C_R   0.069586 0.976601 0.838779 -0.227333
C10   C     C_R   0.015878 0.010342 0.774415 0.092945
C11   C     C_R   0.935572 0.933410 0.698310 0.135407
C12   C     C_R   0.027666 0.117360 0.783246 0.067710
C13   C     C_R   0.963002 0.143515 0.715581 0.074261
C14   C     C_R   0.895339 0.061623 0.640746 -0.182345
C15   C     C_R   0.882067 0.959260 0.632646 -0.216787
C16   C     C_R   0.092805 0.199560 0.858333 -0.196538
C17   C     C_R   0.088488 0.302960 0.868446 -0.222274
C18   C     C_R   0.025170 0.329439 0.803790 0.120517
C19   C     C_R   0.964034 0.250832 0.725525 0.096443
C20   C     C_R   0.026126 0.434947 0.817260 -0.128903
C21   C     C_R   0.968994 0.464976 0.754280 -0.151570
C22   C     C_R   0.908032 0.283885 0.661188 -0.205716
H1    H     H_    0.821166 0.899614 0.574787 0.121585
H2    H     H_    0.866206 0.228965 0.599397 0.091370
H3    H     H_    0.967146 0.547033 0.767120 0.093120
H4    H     H_    0.137476 0.363380 0.927913 0.118798
H5    H     H_    0.828769 0.773265 0.631886 0.133241
H6    H     H_    0.891992 0.725588 0.746252 0.089414
H7    H     H_    0.124963 0.031068 0.898743 0.097046
H8    H     H_    0.845005 0.074516 0.587490 0.126653
H9    H     H_    0.145002 0.186427 0.911295 0.120541
H10   H     H_    0.078533 0.237616 0.288731 0.140197
H11   H     H_    0.847104 0.021406 0.201441 0.153597
C23   C     C_2   0.133734 0.040537 0.181236 -0.348009
C24   C     C_2   0.974027 0.074257 0.218730 -0.133796
C25   C     C_2   0.813665 0.211211 0.328672 -0.034854
C26   C     C_2   0.962297 0.181320 0.281713 -0.195664
H12   H     H_    0.263277 0.091453 0.197955 0.130754
C27   C     C_R   0.407256 0.795660 0.668215 -0.090369
C28   C     C_R   0.540135 0.472160 0.821671 -0.048088
C29   C     C_R   0.522629 0.912948 0.811195 0.078356
C30   C     C_R   0.467477 0.810457 0.749796 0.113567
C31   C     C_R   0.392133 0.886420 0.651139 -0.271932
C32   C     C_R   0.451285 0.989287 0.712252 0.068222
C33   C     C_R   0.533055 0.997425 0.789322 0.111968
C34   C     C_R   0.438312 0.085782 0.701516 0.081549
C35   C     C_R   0.499701 0.183602 0.769145 0.071899
C36   C     C_R   0.602894 0.182501 0.837931 -0.208101
C37   C     C_R   0.629082 0.091319 0.845073 -0.194509
C38   C     C_R   0.370422 0.089614 0.627009 -0.182661
C39   C     C_R   0.369146 0.184682 0.619200 -0.224835
C40   C     C_R   0.426032 0.278925 0.686365 0.117190
C41   C     C_R   0.479351 0.280546 0.763807 0.108489
C42   C     C_R   0.444034 0.371237 0.676213 -0.138196
C43   C     C_R   0.521471 0.462191 0.741438 -0.163072
C44   C     C_R   0.517526 0.379511 0.832744 -0.209041
H13   H     H_    0.723823 0.097724 0.897946 0.146730
H14   H     H_    0.530820 0.385788 0.894670 0.092262
H15   H     H_    0.576538 0.523344 0.728328 0.125662
H16   H     H_    0.339456 0.874973 0.589794 0.110515
H17   H     H_    0.323546 0.019921 0.573534 0.124541
H18   H     H_    0.412891 0.370828 0.616342 0.154638
H19   H     H_    0.332626 0.660714 0.192505 0.137009
C45   C     C_2   0.321971 0.603927 0.320626 -0.377121
C46   C     C_2   0.477940 0.650373 0.304282 0.179807
H20   H     H_    0.775753 0.660834 0.216696 0.136720
C47   C     C_2   0.634831 0.667403 0.188565 -0.356271
C48   C     C_2   0.473383 0.658927 0.223289 -0.134576
H21   H     H_    0.193354 0.581560 0.277025 0.107569
O11   O     O_R   0.421600 0.630430 0.917010 -0.540114
O12   O     O_R   0.793840 0.702190 0.087630 -0.541865
O13   O     O_R   0.964010 0.886170 0.088190 -0.534063
C49   C     C_R   0.630616 0.694529 0.116387 0.753697
O14   O     O_R   0.751460 0.619510 0.917500 -0.540376
O15   O     O_R   0.921330 0.802900 0.916840 -0.555435
C50   C     C_R   0.574214 0.578867 0.891387 0.673119
O16   O     O_R   0.464290 0.713700 0.088350 -0.533880
O17   O     O_3   0.609200 0.818520 0.002630 -0.384986
V3    V     V_3+5 0.884140 0.747190 0.002530 1.353121
O18   O     O_R   0.251150 0.814630 0.917340 -0.537414
C51   C     C_R   0.074531 0.832133 0.894078 0.674806
O19   O     O_R   0.293530 0.897310 0.087470 -0.543147
C52   C     C_R   0.131741 0.934533 0.115520 0.754401
V4    V     V_3+5 0.384070 0.769710 0.002370 1.355115
O20   O     O_3   0.109180 0.698190 0.002460 -0.371385
H22   H     H_    0.072250 0.494949 0.877164 0.139123
C53   C     C_3   0.657439 0.129577 0.322307 -0.369263
C54   C     C_3   0.514586 0.162966 0.386433 -0.719196
H23   H     H_    0.591991 0.199291 0.448898 0.210437
H24   H     H_    0.411768 0.216955 0.375786 0.239446
H25   H     H_    0.428289 0.093219 0.381411 0.202813
H26   H     H_    0.574441 0.101056 0.261126 0.177494
H27   H     H_    0.730315 0.062478 0.327915 0.186511
H28   H     H_    0.325142 0.184466 0.559930 0.123455
C55   C     C_3   0.587133 0.934431 0.899535 -0.293361
C56   C     C_3   0.487819 0.019729 0.967190 -0.739240
H29   H     H_    0.439628 0.084954 0.952161 0.206576
H30   H     H_    0.360469 0.989028 0.983861 0.224293
H31   H     H_    0.590875 0.053019 0.023415 0.200859
H32   H     H_    0.562421 0.865031 0.905647 0.244374
H33   H     H_    0.744364 0.952497 0.912446 0.154342
C57   C     C_3   0.489918 0.712456 0.765310 -0.363100
C58   C     C_3   0.299209 0.647799 0.747280 -0.698199
H34   H     H_    0.182968 0.684838 0.728115 0.221397
H35   H     H_    0.300315 0.572180 0.694641 0.224003
H36   H     H_    0.259825 0.635565 0.800252 0.227502
H37   H     H_    0.592790 0.667173 0.724161 0.158004
H38   H     H_    0.562400 0.720170 0.824082 0.176079
H39   H     H_    0.677253 0.251034 0.885421 0.134810
C59   C     C_3   0.650502 0.702166 0.368054 -0.274007
C60   C     C_3   0.677040 0.818490 0.387577 -0.808099
H40   H     H_    0.700862 0.832205 0.332791 0.237658
H41   H     H_    0.548149 0.859440 0.413720 0.224487
H42   H     H_    0.805470 0.852711 0.432747 0.208262
H43   H     H_    0.634710 0.698480 0.427170 0.181984
H44   H     H_    0.783694 0.662613 0.346079 0.168222

loop_
_geom_bond_atom_site_label_1
_geom_bond_atom_site_label_2
_ccdc_geom_bond_type
H10   C26   S    
C34   C38   A    
C31   C32   A    
C13   C19   A    
O15   V3    S    
C55   H32   S    
C4    C6    S    
O2    C1    A    
C7    C8    A    
C1    O6    A    
C57   C58   S    
C60   H40   S    
C24   C26   S    
C29   C30   A    
C56   H29   S    
C14   C15   A    
C17   C18   A    
O18   C51   A    
C16   C17   A    
O14   V3    S    
O5    C3    A    
C18   C19   A    
C8    H6    S    
O14   C50   A    
C60   H41   S    
V2    O10   S    
C42   H18   S    
O15   C51   A    
O18   V4    S    
C5    C8    A    
C32   C33   A    
C59   H43   S    
C55   H33   S    
C46   C59   S    
O8    V2    S    
C23   C52   S    
C33   C37   A    
C32   C34   A    
C58   H35   S    
C17   H4    S    
C55   C56   S    
C38   H17   S    
O1    V2    S    
O13   V3    S    
C11   C15   A    
H19   C48   S    
C43   H15   S    
C57   H37   S    
C28   C44   A    
C3    C25   S    
C41   C44   A    
C42   C43   A    
C35   C36   A    
O9    C4    A    
C59   H44   S    
O19   C52   A    
V3    O20   S    
H11   C24   S    
C53   H27   S    
O11   V4    S    
C1    C27   S    
C28   C50   S    
C12   C13   A    
O4    C2    A    
C49   O16   A    
H20   C47   S    
C60   H42   S    
C15   H1    S    
C13   C14   A    
C54   H25   S    
C21   H3    S    
C47   C48   D    
C36   C37   A    
O13   C52   A    
C40   C42   A    
C7    C11   A    
C38   C39   A    
C29   C55   S    
C31   H16   S    
C53   C54   S    
C58   H36   S    
V4    O20   S    
C54   H24   S    
C19   C22   A    
C45   C46   D    
C39   H28   S    
O19   V4    S    
C6    C22   A    
C28   C43   A    
C7    H5    S    
C9    H7    S    
C25   C26   D    
O12   C49   A    
O6    V2    S    
O9    V2    S    
C10   C12   A    
C5    C51   S    
O2    V1    S    
C47   C49   S    
C14   H8    S    
O7    V1    S    
C46   C48   S    
C37   H13   S    
C25   C53   S    
C23   C24   D    
C29   C33   A    
O1    C2    A    
C12   C16   A    
C45   H21   S    
O5    V1    S    
O8    C3    A    
C56   H30   S    
O17   V4    S    
C2    C45   S    
O3    C4    A    
O12   V3    S    
C23   H12   S    
C16   H9    S    
C56   H31   S    
C27   C30   A    
C20   C21   A    
O16   V4    S    
C34   C35   A    
O4    V1    S    
O3    V1    S    
V1    O10   S    
C35   C41   A    
C18   C20   A    
O17   V3    S    
O11   C50   A    
C30   C57   S    
C40   C41   A    
C54   H23   S    
C22   H2    S    
C20   H22   S    
C53   H26   S    
C27   C31   A    
O7    V2    S    
C36   H39   S    
C6    C21   A    
C5    C9    A    
C39   C40   A    
C44   H14   S    
C10   C11   A    
C59   C60   S    
C9    C10   A    
C57   H38   S    
C58   H34   S    
