data_mof_unit_39391.cif
_audit_creation_date              2012-12-11T15:17:43-0500
_audit_creation_method            fapswitch 2.2
_symmetry_space_group_name_H-M    P1
_symmetry_Int_Tables_number       1
_space_group_crystal_system       triclinic
_cell_length_a                    6.927418
_cell_length_b                    20.082314
_cell_length_c                    22.38537
_cell_angle_alpha                 89.999489
_cell_angle_beta                  89.990242
_cell_angle_gamma                 90.024591
_cell_volume                      3114.22063307

loop_
_atom_site_label
_atom_site_type_symbol
_atom_type_description
_atom_site_fract_x
_atom_site_fract_y
_atom_site_fract_z
_atom_type_partial_charge
O1    O     O_R   0.620180 0.810610 0.187990 -0.540941
O2    O     O_R   0.379820 0.189390 0.812010 -0.540885
O3    O     O_R   0.379820 0.189390 0.687990 -0.540908
O4    O     O_R   0.620180 0.810610 0.312010 -0.540944
O5    O     O_R   0.120180 0.689390 0.312010 -0.539660
O6    O     O_R   0.879820 0.310610 0.687990 -0.539565
O7    O     O_R   0.879820 0.310610 0.812010 -0.539544
O8    O     O_R   0.120180 0.689390 0.187990 -0.539592
O9    O     O_R   0.290420 0.818570 0.311590 -0.541282
O10   O     O_R   0.709580 0.181430 0.688410 -0.541325
O11   O     O_R   0.709580 0.181430 0.811590 -0.541274
O12   O     O_R   0.290420 0.818570 0.188410 -0.541330
O13   O     O_R   0.790420 0.681430 0.188410 -0.540583
O14   O     O_R   0.209580 0.318570 0.811590 -0.540651
O15   O     O_R   0.209580 0.318570 0.688410 -0.540517
O16   O     O_R   0.790420 0.681430 0.311590 -0.540511
C1    C     C_R   0.459432 0.834550 0.332360 0.713332
C2    C     C_R   0.540570 0.165454 0.667637 0.713097
C3    C     C_R   0.540551 0.165451 0.832359 0.713304
C4    C     C_R   0.459449 0.834549 0.167641 0.713077
C5    C     C_R   0.959373 0.665262 0.167802 0.712235
C6    C     C_R   0.040627 0.334739 0.832197 0.712132
C7    C     C_R   0.040656 0.334734 0.667800 0.711785
C8    C     C_R   0.959342 0.665261 0.332200 0.711750
H1    H     H_    0.755968 0.423011 0.646478 0.172042
H2    H     H_    0.244466 0.577222 0.353675 0.173299
H3    H     H_    0.244793 0.577334 0.146201 0.172427
H4    H     H_    0.755210 0.422670 0.853795 0.172150
H5    H     H_    0.800087 0.070055 0.860808 0.177386
H6    H     H_    0.199913 0.929945 0.139192 0.177365
H7    H     H_    0.199909 0.929962 0.360828 0.177333
H8    H     H_    0.800101 0.070051 0.639161 0.177390
O17   O     O_3   0.453640 0.707610 0.250000 -0.369123
O18   O     O_3   0.546360 0.292390 0.750000 -0.369213
O19   O     O_3   0.953640 0.792390 0.250000 -0.369028
O20   O     O_3   0.046360 0.207610 0.750000 -0.368959
V1    V     V_3+5 0.178800 0.757860 0.250000 1.454873
V2    V     V_3+5 0.821200 0.242140 0.750000 1.454498
V3    V     V_3+5 0.678800 0.742140 0.250000 1.455651
V4    V     V_3+5 0.321200 0.257860 0.750000 1.455172
C9    C     C_R   0.178815 0.388706 0.576274 -0.094783
C10   C     C_R   0.820754 0.611034 0.423543 -0.103651
C11   C     C_R   0.821144 0.611203 0.076366 -0.103824
C12   C     C_R   0.178859 0.388801 0.923631 -0.103821
C13   C     C_R   0.369372 0.115950 0.920348 -0.112470
C14   C     C_R   0.630628 0.884050 0.079652 -0.112545
C15   C     C_R   0.630585 0.884046 0.420337 -0.111444
C16   C     C_R   0.369434 0.115973 0.579649 -0.112704
C17   C     C_R   0.030270 0.384306 0.618673 -0.153750
C18   C     C_R   0.969701 0.615649 0.381302 -0.151318
C19   C     C_R   0.969803 0.615667 0.118694 -0.151428
C20   C     C_R   0.030198 0.384336 0.881304 -0.151488
C21   C     C_R   0.529364 0.116336 0.881868 -0.153294
C22   C     C_R   0.470636 0.883664 0.118132 -0.153255
C23   C     C_R   0.470600 0.883665 0.381869 -0.153212
C24   C     C_R   0.529409 0.116347 0.618121 -0.153256
C25   C     C_R   0.869806 0.426499 0.613421 -0.118323
C26   C     C_R   0.130346 0.573551 0.386619 -0.112265
C27   C     C_R   0.130564 0.573621 0.113308 -0.116658
C28   C     C_R   0.869440 0.426383 0.886688 -0.117365
C29   C     C_R   0.677502 0.069832 0.890868 -0.110648
C30   C     C_R   0.322498 0.930168 0.109132 -0.110691
C31   C     C_R   0.322487 0.930180 0.390879 -0.110690
C32   C     C_R   0.677528 0.069836 0.609108 -0.110601
C33   C     C_R   0.856732 0.473426 0.566748 0.085277
C34   C     C_R   0.142831 0.526295 0.433047 0.068270
C35   C     C_R   0.143180 0.526442 0.066814 0.083030
C36   C     C_R   0.856826 0.473564 0.933181 0.083172
C37   C     C_R   0.666868 0.022666 0.937423 0.055256
C38   C     C_R   0.333132 0.977334 0.062577 0.055256
C39   C     C_R   0.333144 0.977352 0.437428 0.055277
C40   C     C_R   0.666882 0.022670 0.562554 0.055228
C41   C     C_R   0.006004 0.476842 0.523670 -0.096762
C42   C     C_R   0.993659 0.522950 0.476177 -0.104013
C43   C     C_R   0.993474 0.522849 0.023897 -0.096210
C44   C     C_R   0.006532 0.477156 0.976098 -0.096164
C45   C     C_R   0.506291 0.023430 0.976573 -0.095729
C46   C     C_R   0.493709 0.976570 0.023427 -0.095727
C47   C     C_R   0.493714 0.976580 0.476565 -0.095667
C48   C     C_R   0.506315 0.023443 0.523416 -0.095602
C49   C     C_R   0.167533 0.433951 0.528197 0.075802
C50   C     C_R   0.832193 0.565891 0.471697 0.056625
C51   C     C_R   0.832277 0.565890 0.028345 0.055744
C52   C     C_R   0.167729 0.434116 0.971651 0.055729
C53   C     C_R   0.356786 0.070488 0.968128 0.082228
C54   C     C_R   0.643214 0.929512 0.031872 0.082235
C55   C     C_R   0.643191 0.929512 0.468112 0.082345
C56   C     C_R   0.356838 0.070512 0.531870 0.082320
C57   C     C_R   0.698480 0.517486 0.563409 0.263925
C58   C     C_R   0.303480 0.483313 0.437184 0.257358
C59   C     C_R   0.304506 0.483821 0.062371 0.272505
C60   C     C_R   0.695501 0.516185 0.937623 0.271817
C61   C     C_R   0.812692 0.974278 0.944477 0.239782
C62   C     C_R   0.187308 0.025722 0.055523 0.239804
C63   C     C_R   0.187352 0.025752 0.444491 0.239642
C64   C     C_R   0.812681 0.974274 0.555489 0.239851
C65   C     C_R   0.683377 0.562729 0.514689 0.249495
C66   C     C_R   0.313023 0.435570 0.484103 0.244261
C67   C     C_R   0.313418 0.435812 0.015670 0.239424
C68   C     C_R   0.686589 0.564194 0.984325 0.239341
C69   C     C_R   0.804238 0.928908 0.993235 0.270018
C70   C     C_R   0.195762 0.071092 0.006764 0.270118
C71   C     C_R   0.195825 0.071126 0.493246 0.270022
C72   C     C_R   0.804210 0.928901 0.506733 0.271058
O21   O     O_3   0.562997 0.516015 0.608722 -0.650937
H9    H     H_    0.511339 0.561526 0.614488 0.300859
O22   O     O_3   0.449808 0.489998 0.395562 -0.645899
H10   H     H_    0.572471 0.474012 0.413041 0.301263
O23   O     O_3   0.451521 0.490826 0.103702 -0.647853
H11   H     H_    0.573822 0.474582 0.086165 0.299994
O24   O     O_3   0.548488 0.509181 0.896292 -0.648554
H12   H     H_    0.426187 0.525425 0.913829 0.299734
O25   O     O_3   0.959743 0.971928 0.902795 -0.650233
H13   H     H_    0.002180 0.925131 0.898220 0.300862
O26   O     O_3   0.040257 0.028071 0.097205 -0.650238
H14   H     H_    0.997820 0.074869 0.101780 0.300923
O27   O     O_3   0.040314 0.028110 0.402821 -0.650324
H15   H     H_    0.997912 0.074911 0.398245 0.300884
O28   O     O_3   0.959723 0.971916 0.597158 -0.650163
H16   H     H_    0.002126 0.925115 0.601734 0.301372
O29   O     O_3   0.524433 0.603597 0.507436 -0.647081
H17   H     H_    0.411006 0.582819 0.526807 0.297554
O30   O     O_3   0.460565 0.389415 0.487422 -0.651141
H18   H     H_    0.502081 0.377939 0.446369 0.301219
O31   O     O_3   0.460787 0.389586 0.012403 -0.650444
H19   H     H_    0.502608 0.378307 0.053466 0.301284
O32   O     O_3   0.539221 0.610421 0.987592 -0.650556
H20   H     H_    0.497400 0.621700 0.946528 0.300924
O33   O     O_3   0.951500 0.884209 0.004698 -0.650111
H21   H     H_    0.073797 0.901762 0.988162 0.299730
O34   O     O_3   0.048500 0.115791 0.995302 -0.650043
H22   H     H_    0.926203 0.098238 0.011838 0.299763
O35   O     O_3   0.048591 0.115838 0.504716 -0.650216
H23   H     H_    0.926287 0.098294 0.488190 0.299686
O36   O     O_3   0.951449 0.884191 0.495261 -0.649478
H24   H     H_    0.073751 0.901735 0.511788 0.300070
H25   H     H_    0.301567 0.355590 0.580345 0.168249
H26   H     H_    0.697681 0.643984 0.419338 0.172093
H27   H     H_    0.698344 0.644296 0.080460 0.171900
H28   H     H_    0.301658 0.355707 0.919537 0.171946
H29   H     H_    0.255696 0.152160 0.913358 0.168940
H30   H     H_    0.744304 0.847840 0.086642 0.168913
H31   H     H_    0.744247 0.847829 0.413340 0.168994
H32   H     H_    0.255773 0.152190 0.586647 0.168799

loop_
_geom_bond_atom_site_label_1
_geom_bond_atom_site_label_2
_ccdc_geom_bond_type
C72   O36   S    
O5    V1    S    
C10   H26   S    
C68   O32   S    
C11   C51   A    
C41   C42   A    
C64   O28   S    
C37   C45   A    
O24   H12   S    
C10   C50   A    
C11   C19   A    
C44   C52   A    
C47   C55   A    
C33   C41   A    
O30   H18   S    
C14   H30   S    
C45   C46   A    
C63   O27   S    
C33   C57   A    
O11   C3    A    
O17   V3    S    
O18   V4    S    
C15   C23   A    
C38   C46   A    
C38   C62   A    
C58   O22   S    
O33   H21   S    
C37   C61   A    
C7    C17   S    
C39   C63   A    
C49   C66   A    
O26   H14   S    
C34   C42   A    
C15   H31   S    
C40   C48   A    
C17   C25   A    
C30   C38   A    
O3    C2    A    
O14   C6    A    
C9    C17   A    
O12   V1    S    
C65   O29   S    
C20   C28   A    
C27   C35   A    
C21   C29   A    
C26   C34   A    
C23   C31   A    
O22   H10   S    
C16   C56   A    
C11   H27   S    
C1    C23   S    
C9    H25   S    
C2    C24   S    
C12   C20   A    
O15   C7    A    
C3    C21   S    
C13   C21   A    
O16   C8    A    
C13   H29   S    
C14   C22   A    
H1    C25   S    
C42   C50   A    
C41   C49   A    
C63   C71   A    
H4    C28   S    
C8    C18   S    
C66   O30   S    
H5    C29   S    
C35   C59   A    
C18   C26   A    
H7    C31   S    
O36   H24   S    
C70   O34   S    
H8    C32   S    
C4    C22   S    
C61   C69   A    
C22   C30   A    
C16   H32   S    
O14   V4    S    
O17   V1    S    
C39   C47   A    
C55   C72   A    
C57   C65   A    
C15   C55   A    
O11   V2    S    
O19   V3    S    
C43   C44   A    
O4    V3    S    
O20   V4    S    
O28   H16   S    
C9    C49   A    
O12   C4    A    
O9    V1    S    
O8    C5    A    
O13   C5    A    
C61   O25   S    
H2    C26   S    
C62   C70   A    
O29   H17   S    
C10   C18   A    
O4    C1    A    
O9    C1    A    
C34   C58   A    
C31   C39   A    
O3    V4    S    
C51   C68   A    
H6    C30   S    
O31   H19   S    
C50   C65   A    
C19   C27   A    
O8    V1    S    
O32   H20   S    
C5    C19   S    
C56   C71   A    
C60   C68   A    
C6    C20   S    
O25   H13   S    
C29   C37   A    
C16   C24   A    
O1    C4    A    
O19   V1    S    
O2    C3    A    
O18   V2    S    
C52   C67   A    
C25   C33   A    
C12   C52   A    
C62   O26   S    
C60   O24   S    
C36   C44   A    
O7    C6    A    
O21   H9    S    
C13   C53   A    
O10   V2    S    
C59   O23   S    
C64   C72   A    
C71   O35   S    
C48   C56   A    
H3    C27   S    
O23   H11   S    
C43   C51   A    
C24   C32   A    
O35   H23   S    
O5    C8    A    
O10   C2    A    
O6    C7    A    
O20   V2    S    
C36   C60   A    
O7    V2    S    
C32   C40   A    
O15   V4    S    
O13   V3    S    
O1    V3    S    
O16   V3    S    
C45   C53   A    
C47   C48   A    
C40   C64   A    
O2    V4    S    
C35   C43   A    
C28   C36   A    
C12   H28   S    
C46   C54   A    
C67   O31   S    
C57   O21   S    
C59   C67   A    
O6    V2    S    
O27   H15   S    
C54   C69   A    
C58   C66   A    
C53   C70   A    
O34   H22   S    
C14   C54   A    
C69   O33   S    
