data_mof_unit_31924.cif
_audit_creation_date              2012-12-10T16:47:15-0500
_audit_creation_method            fapswitch 2.2
_symmetry_space_group_name_H-M    P1
_symmetry_Int_Tables_number       1
_space_group_crystal_system       triclinic
_cell_length_a                    11.914942
_cell_length_b                    12.329689
_cell_length_c                    7.936972
_cell_angle_alpha                 90.690897
_cell_angle_beta                  94.548054
_cell_angle_gamma                 90.076034
_cell_volume                      1162.24186637

loop_
_atom_site_label
_atom_site_type_symbol
_atom_type_description
_atom_site_fract_x
_atom_site_fract_y
_atom_site_fract_z
_atom_type_partial_charge
C1    C     C_R   0.354793 0.851153 0.455453 0.951128
C2    C     C_2   0.729172 0.772033 0.567623 -0.378564
C3    C     C_2   0.725942 0.231965 0.567549 -0.375872
C4    C     C_2   0.274058 0.768035 0.432451 -0.375872
C5    C     C_2   0.770828 0.727967 0.432377 -0.378564
C6    C     C_2   0.229172 0.272033 0.567623 -0.378564
C7    C     C_2   0.225942 0.731965 0.567549 -0.375872
C8    C     C_2   0.774058 0.268035 0.432451 -0.375872
C9    C     C_3   0.651380 0.031467 0.005764 -0.160332
C10   C     C_3   0.746943 0.976600 0.113119 -0.367627
C11   C     C_3   0.861055 0.000563 0.046905 -0.976916
C12   C     C_R   0.645206 0.148847 0.544547 0.951127
C13   C     C_3   0.348620 0.968533 0.994236 -0.160332
C14   C     C_3   0.253057 0.023400 0.886881 -0.367627
C15   C     C_3   0.138945 0.999437 0.953095 -0.976916
C16   C     C_3   0.151380 0.531467 0.005764 -0.160332
C17   C     C_3   0.246943 0.476600 0.113119 -0.367627
C18   C     C_3   0.361055 0.500563 0.046905 -0.976916
C19   C     C_3   0.848620 0.468533 0.994236 -0.160332
C20   C     C_3   0.753057 0.523400 0.886881 -0.367627
C21   C     C_3   0.638945 0.499437 0.953095 -0.976916
C22   C     C_R   0.645675 0.851857 0.543935 0.955082
C23   C     C_R   0.354325 0.148143 0.456065 0.955082
C24   C     C_R   0.854793 0.351153 0.455453 0.951128
C25   C     C_R   0.145206 0.648847 0.544547 0.951127
C26   C     C_R   0.145675 0.351857 0.543935 0.955082
C27   C     C_R   0.854325 0.648143 0.456065 0.955082
C28   C     C_2   0.270828 0.227967 0.432377 -0.378564
H1    H     H_    0.742571 0.748910 0.303509 0.172707
H2    H     H_    0.877313 0.089354 0.048882 0.271875
H3    H     H_    0.928275 0.960490 0.128657 0.276725
H4    H     H_    0.750701 0.005431 0.245546 0.270831
H5    H     H_    0.733303 0.887527 0.108621 0.227387
H6    H     H_    0.663124 0.003142 0.878684 0.238418
H7    H     H_    0.660501 0.121125 0.014717 0.160314
H8    H     H_    0.122687 0.910646 0.951118 0.271875
H9    H     H_    0.136070 0.031270 0.084255 0.269881
H10   H     H_    0.071725 0.039510 0.871343 0.276725
H11   H     H_    0.266697 0.112473 0.891379 0.227387
H12   H     H_    0.257429 0.251090 0.696491 0.172707
H13   H     H_    0.249299 0.994568 0.754454 0.270831
H14   H     H_    0.339499 0.878875 0.985283 0.160314
H15   H     H_    0.336876 0.996858 0.121315 0.238418
H16   H     H_    0.363929 0.468730 0.915745 0.269881
H17   H     H_    0.377313 0.589353 0.048882 0.271875
H18   H     H_    0.428275 0.460490 0.128657 0.276725
H19   H     H_    0.250701 0.505431 0.245546 0.270831
H20   H     H_    0.233303 0.387527 0.108621 0.227387
H21   H     H_    0.163124 0.503142 0.878684 0.238418
H22   H     H_    0.160501 0.621125 0.014717 0.160314
H23   H     H_    0.245420 0.763246 0.695290 0.176370
H24   H     H_    0.622687 0.410646 0.951118 0.271875
H25   H     H_    0.636070 0.531270 0.084255 0.269881
H26   H     H_    0.571725 0.539510 0.871343 0.276725
H27   H     H_    0.766697 0.612473 0.891379 0.227387
H28   H     H_    0.749299 0.494569 0.754454 0.270831
H29   H     H_    0.839499 0.378875 0.985283 0.160314
H30   H     H_    0.836876 0.496858 0.121315 0.238418
H31   H     H_    0.754580 0.236754 0.304710 0.176370
H32   H     H_    0.242571 0.248910 0.303509 0.172707
H33   H     H_    0.757428 0.751090 0.696491 0.172707
H34   H     H_    0.745420 0.263246 0.695290 0.176370
H35   H     H_    0.254580 0.736754 0.304710 0.176370
H36   H     H_    0.863930 0.968730 0.915745 0.269881
N1    N     N_2   0.541470 0.000000 0.055820 -0.065998
N2    N     N_2   0.458530 0.000000 0.944180 -0.065998
N3    N     N_2   0.041470 0.500000 0.055820 -0.065998
N4    N     N_2   0.958530 0.500000 0.944180 -0.065998
O1    O     O_R   0.375700 0.885870 0.609240 -0.624902
O2    O     O_R   0.597720 0.114130 0.675960 -0.657852
O3    O     O_R   0.597720 0.885870 0.675960 -0.645556
O4    O     O_R   0.402280 0.114130 0.324040 -0.645556
O5    O     O_R   0.902280 0.385870 0.324040 -0.657852
O6    O     O_R   0.097720 0.614130 0.675960 -0.657852
O7    O     O_R   0.097720 0.385870 0.675960 -0.645556
O8    O     O_R   0.902280 0.614130 0.324040 -0.645556
O9    O     O_R   0.624300 0.114130 0.390760 -0.624902
O10   O     O_R   0.624300 0.885870 0.390760 -0.627971
O11   O     O_R   0.375700 0.114130 0.609240 -0.627971
O12   O     O_R   0.875700 0.385870 0.609240 -0.624902
O13   O     O_R   0.124300 0.614130 0.390760 -0.624902
O14   O     O_R   0.124300 0.385870 0.390760 -0.627971
O15   O     O_R   0.875700 0.614130 0.609240 -0.627971
O16   O     O_R   0.402280 0.885870 0.324040 -0.657852
Zn1   Zn    Zn3+2 0.482250 0.000000 0.690430 0.910873
Zn2   Zn    Zn3+2 0.517750 0.000000 0.309570 0.910873
Zn3   Zn    Zn3+2 0.982250 0.500000 0.690430 0.910873
Zn4   Zn    Zn3+2 0.017750 0.500000 0.309570 0.910873

loop_
_geom_bond_atom_site_label_1
_geom_bond_atom_site_label_2
_ccdc_geom_bond_type
O15   Zn3   S    
C22   O3    A    
C19   C20   S    
C17   H20   S    
C13   H15   S    
C20   H28   S    
N2    Zn1   S    
N1    Zn2   S    
C15   H10   S    
C19   H29   S    
C1    O16   A    
C4    H35   S    
N3    Zn4   S    
C16   H22   S    
O12   Zn3   S    
C20   H27   S    
C8    H31   S    
C21   H26   S    
C24   O5    A    
C25   O6    A    
C15   H9    S    
C3    C12   S    
C14   H11   S    
O3    Zn1   S    
C24   O12   A    
C6    C28   D    
C11   H2    S    
C16   C17   S    
C2    C22   S    
O6    Zn3   S    
C9    C10   S    
O8    Zn4   S    
C2    H33   S    
O10   Zn2   S    
C11   H3    S    
C26   O14   A    
C5    C27   S    
C13   C14   S    
C25   O13   A    
C4    C7    D    
C18   H18   S    
C13   H14   S    
C17   C18   S    
C5    H1    S    
C13   N2    S    
C28   H32   S    
C19   H30   S    
N3    N4    D    
C16   H21   S    
C22   O10   A    
C3    C8    D    
C1    O1    A    
O5    Zn4   S    
C18   H16   S    
C12   O9    A    
C26   O7    A    
C19   N4    S    
C16   N3    S    
C23   C28   S    
C14   H13   S    
O7    Zn3   S    
O9    Zn2   S    
C11   H36   S    
C9    H6    S    
C6    H12   S    
C2    C5    D    
C27   O8    A    
C18   H17   S    
C15   H8    S    
O11   Zn1   S    
O1    Zn1   S    
C3    H34   S    
C12   O2    A    
C23   O4    A    
C17   H19   S    
O16   Zn2   S    
O4    Zn2   S    
C7    C25   S    
C1    C4    S    
C27   O15   A    
C7    H23   S    
C21   H25   S    
C6    C26   S    
O14   Zn4   S    
C8    C24   S    
C10   H5    S    
C9    N1    S    
O13   Zn4   S    
C10   C11   S    
C10   H4    S    
C20   C21   S    
N1    N2    D    
C9    H7    S    
N4    Zn3   S    
C14   C15   S    
C23   O11   A    
O2    Zn1   S    
C21   H24   S    
