data_mof_unit_25359.cif
_audit_creation_date              2012-12-11T14:40:12-0500
_audit_creation_method            fapswitch 2.2
_symmetry_space_group_name_H-M    P1
_symmetry_Int_Tables_number       1
_space_group_crystal_system       monoclinic
_cell_length_a                    19.675202
_cell_length_b                    10.836829
_cell_length_c                    19.476616
_cell_angle_alpha                 90.0
_cell_angle_beta                  97.529756
_cell_angle_gamma                 90.0
_cell_volume                      4116.93239047

loop_
_atom_site_label
_atom_site_type_symbol
_atom_type_description
_atom_site_fract_x
_atom_site_fract_y
_atom_site_fract_z
_atom_type_partial_charge
C1    C     C_R   0.706866 0.002031 0.366209 0.560420
C2    C     C_R   0.293133 0.002031 0.633791 0.560419
C3    C     C_R   0.206672 0.502560 0.365842 0.557004
C4    C     C_R   0.793328 0.502560 0.634158 0.557004
C5    C     C_3   0.697406 0.421297 0.480794 -0.120191
C6    C     C_3   0.302594 0.421297 0.519206 -0.120191
C7    C     C_3   0.227312 0.846712 0.487337 -0.118348
C8    C     C_3   0.772688 0.846712 0.512663 -0.118348
C9    C     C_3   0.751892 0.414607 0.431331 0.058164
C10   C     C_3   0.248108 0.414607 0.568669 0.058164
C11   C     C_3   0.253421 0.920673 0.429046 0.057474
C12   C     C_3   0.746579 0.920673 0.570954 0.057474
C13   C     C_3   0.782272 0.538972 0.456341 -0.145166
C14   C     C_3   0.217728 0.538972 0.543659 -0.145166
C15   C     C_3   0.230990 0.041834 0.459251 -0.135963
C16   C     C_3   0.769010 0.041834 0.540749 -0.135963
C17   C     C_3   0.831891 0.469666 0.511651 -0.131108
C18   C     C_3   0.168109 0.469666 0.488349 -0.131108
C19   C     C_3   0.303449 0.052262 0.501859 -0.147460
C20   C     C_3   0.696551 0.052261 0.498141 -0.147460
C21   C     C_3   0.801143 0.344850 0.485955 -0.101832
C22   C     C_3   0.198857 0.344850 0.514045 -0.101832
C23   C     C_3   0.325305 0.930154 0.470074 -0.114301
C24   C     C_3   0.674695 0.930154 0.529925 -0.114301
C25   C     C_3   0.746747 0.352778 0.535798 -0.113988
C26   C     C_3   0.253253 0.352778 0.464202 -0.113988
C27   C     C_3   0.299391 0.855806 0.528794 -0.113025
C28   C     C_3   0.700609 0.855806 0.471206 -0.113025
C29   C     C_3   0.777637 0.476296 0.560928 0.052657
C30   C     C_3   0.222363 0.476296 0.439072 0.052657
C31   C     C_3   0.277694 0.976773 0.559840 0.053827
C32   C     C_3   0.722306 0.976773 0.440160 0.053827
C33   C     C_3   0.521230 0.275059 0.969404 -0.132278
C34   C     C_3   0.478770 0.275059 0.030596 -0.132279
C35   C     C_3   0.021230 0.775059 0.969404 -0.132300
C36   C     C_3   0.978770 0.775059 0.030596 -0.132300
C37   C     C_3   0.567636 0.172847 0.004036 0.343682
C38   C     C_3   0.432364 0.172847 0.995964 0.343682
C39   C     C_3   0.067636 0.672847 0.004036 0.343737
C40   C     C_3   0.932364 0.672847 0.995964 0.343738
C41   C     C_3   0.526301 0.173269 0.064753 0.014807
C42   C     C_3   0.473699 0.173269 0.935247 0.014807
C43   C     C_3   0.026301 0.673269 0.064753 0.014821
C44   C     C_3   0.973699 0.673269 0.935247 0.014821
C45   C     C_R   0.534978 0.179873 0.337965 0.544212
C46   C     C_R   0.465022 0.179873 0.662034 0.544213
C47   C     C_R   0.034898 0.679942 0.337914 0.545092
C48   C     C_R   0.965102 0.679942 0.662086 0.545093
C49   C     C_3   0.479057 0.070707 0.031150 -0.133747
C50   C     C_3   0.520943 0.070707 0.968850 -0.133746
C51   C     C_3   0.979057 0.570707 0.031150 -0.133752
C52   C     C_3   0.020944 0.570707 0.968850 -0.133752
C53   C     C_1   0.763243 0.425316 0.904352 0.036929
C54   C     C_1   0.236756 0.425316 0.095648 0.036929
C55   C     C_1   0.263244 0.925319 0.904353 0.036777
C56   C     C_1   0.736756 0.925319 0.095647 0.036777
C57   C     C_1   0.747691 0.408617 0.034726 0.039896
C58   C     C_1   0.252308 0.408617 0.965274 0.039896
C59   C     C_1   0.247692 0.908620 0.034727 0.039931
C60   C     C_1   0.752308 0.908620 0.965273 0.039931
C61   C     C_1   0.754638 0.415560 0.964003 0.036162
C62   C     C_1   0.245362 0.415561 0.035997 0.036162
C63   C     C_1   0.254639 0.915564 0.964004 0.036100
C64   C     C_1   0.745361 0.915565 0.035996 0.036100
C65   C     C_1   0.742616 0.395460 0.095041 0.042106
C66   C     C_1   0.257383 0.395460 0.904959 0.042105
C67   C     C_1   0.242617 0.895461 0.095041 0.042426
C68   C     C_1   0.757383 0.895461 0.904959 0.042425
C69   C     C_R   0.739912 0.365339 0.361411 0.540000
C70   C     C_R   0.260087 0.365340 0.638589 0.540000
C71   C     C_R   0.240741 0.868412 0.359938 0.535757
C72   C     C_R   0.759258 0.868412 0.640062 0.535757
C73   C     C_R   0.721760 0.952539 0.163651 0.559695
C74   C     C_R   0.278240 0.952539 0.836349 0.559696
C75   C     C_R   0.221760 0.452538 0.163652 0.559140
C76   C     C_R   0.778240 0.452537 0.836348 0.559141
C77   C     C_R   0.558159 0.181864 0.135421 0.606749
C78   C     C_R   0.441841 0.181864 0.864579 0.606749
C79   C     C_R   0.058159 0.681864 0.135421 0.606881
C80   C     C_R   0.941841 0.681864 0.864579 0.606881
C81   C     C_R   0.735826 0.360648 0.164360 0.553704
C82   C     C_R   0.264174 0.360648 0.835640 0.553704
C83   C     C_R   0.235826 0.860647 0.164359 0.552132
C84   C     C_R   0.764174 0.860647 0.835641 0.552132
C85   C     C_1   0.486047 0.171735 0.594822 -0.017659
C86   C     C_1   0.513953 0.171735 0.405178 -0.017659
C87   C     C_1   0.986228 0.672270 0.594895 -0.017957
C88   C     C_1   0.013772 0.672270 0.405105 -0.017958
C89   C     C_1   0.504063 0.168156 0.464704 -0.062883
C90   C     C_1   0.495937 0.168156 0.535296 -0.062883
C91   C     C_1   0.003940 0.669240 0.464667 -0.063667
C92   C     C_1   0.996060 0.669240 0.535332 -0.063667
C93   C     C_3   0.728003 0.546257 0.507449 -0.130931
C94   C     C_3   0.271997 0.546257 0.492551 -0.130931
C95   C     C_3   0.205566 0.968112 0.518928 -0.104688
C96   C     C_3   0.794434 0.968112 0.481072 -0.104688
Cr1   Cr    Cr6+3 0.765830 0.160660 0.268180 1.031035
Cr2   Cr    Cr6+3 0.234170 0.160660 0.731820 1.031035
Cr3   Cr    Cr6+3 0.265830 0.660660 0.268180 1.031559
Cr4   Cr    Cr6+3 0.734170 0.660660 0.731820 1.031559
Cr5   Cr    Cr6+3 0.612110 0.009150 0.248770 1.031881
Cr6   Cr    Cr6+3 0.387890 0.009150 0.751230 1.031881
Cr7   Cr    Cr6+3 0.112110 0.509150 0.248770 1.031083
Cr8   Cr    Cr6+3 0.887890 0.509150 0.751230 1.031083
Cr9   Cr    Cr6+3 0.615930 0.324050 0.248450 1.031429
Cr10  Cr    Cr6+3 0.384070 0.324050 0.751550 1.031429
Cr11  Cr    Cr6+3 0.115930 0.824050 0.248450 1.032324
Cr12  Cr    Cr6+3 0.884070 0.824050 0.751550 1.032324
H1    H     H_    0.642046 0.400938 0.466506 0.126819
H2    H     H_    0.357953 0.400938 0.533493 0.126819
H3    H     H_    0.193685 0.764619 0.478628 0.108005
H4    H     H_    0.806316 0.764619 0.521372 0.108005
H5    H     H_    0.696778 0.624882 0.521503 0.129708
H6    H     H_    0.303222 0.624882 0.478497 0.129708
H7    H     H_    0.156640 0.983578 0.540275 0.129736
H8    H     H_    0.843360 0.983578 0.459725 0.129737
H9    H     H_    0.796035 0.613998 0.421891 0.119630
H10   H     H_    0.203965 0.613998 0.578108 0.119630
H11   H     H_    0.200560 0.112598 0.427697 0.118614
H12   H     H_    0.799440 0.112598 0.572303 0.118614
H13   H     H_    0.335628 0.136333 0.510379 0.105699
H14   H     H_    0.664372 0.136332 0.489621 0.105699
H15   H     H_    0.887271 0.488640 0.526171 0.123400
H16   H     H_    0.112729 0.488640 0.473828 0.123400
H17   H     H_    0.831470 0.261420 0.476814 0.131721
H18   H     H_    0.168530 0.261420 0.523186 0.131721
H19   H     H_    0.374214 0.914860 0.448649 0.129747
H20   H     H_    0.625786 0.914860 0.551351 0.129747
H21   H     H_    0.730820 0.282484 0.571772 0.123084
H22   H     H_    0.269180 0.282484 0.428228 0.123084
H23   H     H_    0.327838 0.780828 0.558921 0.132501
H24   H     H_    0.672162 0.780828 0.441079 0.132501
H25   H     H_    0.539464 0.358037 0.943784 0.152960
H26   H     H_    0.460536 0.358037 0.056216 0.152960
H27   H     H_    0.039465 0.858038 0.943784 0.152918
H28   H     H_    0.960535 0.858038 0.056215 0.152918
H29   H     H_    0.461711 0.988461 0.058057 0.144135
H30   H     H_    0.538289 0.988461 0.941943 0.144135
H31   H     H_    0.961710 0.488461 0.058057 0.144247
H32   H     H_    0.038289 0.488461 0.941943 0.144247
O1    O     O_R   0.783230 0.287800 0.346510 -0.528297
O2    O     O_R   0.216770 0.287800 0.653490 -0.528297
O3    O     O_R   0.283230 0.787800 0.346510 -0.530370
O4    O     O_R   0.716770 0.787800 0.653490 -0.530370
O5    O     O_R   0.554500 0.081650 0.170370 -0.500557
O6    O     O_R   0.445500 0.081650 0.829630 -0.500557
O7    O     O_R   0.054500 0.581650 0.170370 -0.500199
O8    O     O_R   0.945500 0.581650 0.829630 -0.500200
O9    O     O_R   0.545430 0.285140 0.163100 -0.517890
O10   O     O_R   0.454570 0.285140 0.836900 -0.517890
O11   O     O_R   0.045430 0.785140 0.163100 -0.518282
O12   O     O_R   0.954570 0.785140 0.836900 -0.518282
O13   O     O_R   0.677850 0.374730 0.185500 -0.501411
O14   O     O_R   0.322150 0.374730 0.814500 -0.501411
O15   O     O_R   0.177850 0.874730 0.185500 -0.502538
O16   O     O_R   0.822150 0.874730 0.814500 -0.502538
O17   O     O_3   0.664630 0.164620 0.255130 -0.291641
O18   O     O_3   0.335370 0.164620 0.744870 -0.291641
O19   O     O_3   0.164630 0.664620 0.255130 -0.292026
O20   O     O_3   0.835370 0.664620 0.744870 -0.292026
O21   O     O_R   0.760130 0.037060 0.338610 -0.504166
O22   O     O_R   0.239870 0.037060 0.661390 -0.504166
O23   O     O_R   0.260130 0.537060 0.338610 -0.498953
O24   O     O_R   0.739870 0.537060 0.661390 -0.498953
O25   O     O_R   0.666620 0.921370 0.332440 -0.517535
O26   O     O_R   0.333380 0.921370 0.667560 -0.517535
O27   O     O_R   0.166620 0.421370 0.332440 -0.515572
O28   O     O_R   0.833380 0.421370 0.667560 -0.515572
O29   O     O_R   0.557170 0.082420 0.312350 -0.509003
O30   O     O_R   0.442830 0.082420 0.687650 -0.509003
O31   O     O_R   0.057170 0.582420 0.312350 -0.512207
O32   O     O_R   0.942830 0.582420 0.687650 -0.512207
O33   O     O_R   0.548310 0.285980 0.316250 -0.505779
O34   O     O_R   0.451690 0.285980 0.683750 -0.505779
O35   O     O_R   0.048310 0.785980 0.316250 -0.501339
O36   O     O_R   0.951690 0.785980 0.683750 -0.501340
O37   O     O_R   0.680520 0.375500 0.327470 -0.505946
O38   O     O_R   0.319480 0.375500 0.672530 -0.505946
O39   O     O_R   0.180520 0.875500 0.327470 -0.502974
O40   O     O_R   0.819480 0.875500 0.672530 -0.502974
O41   O     O_R   0.780350 0.286970 0.193350 -0.503903
O42   O     O_R   0.219650 0.286970 0.806650 -0.503903
O43   O     O_R   0.280350 0.786970 0.193350 -0.504887
O44   O     O_R   0.719650 0.786970 0.806650 -0.504886
O45   O     O_R   0.757460 0.036290 0.196640 -0.486087
O46   O     O_R   0.242540 0.036290 0.803360 -0.486087
O47   O     O_R   0.257460 0.536290 0.196640 -0.485999
O48   O     O_R   0.742540 0.536290 0.803360 -0.485999
O49   O     O_R   0.663740 0.920540 0.179290 -0.507737
O50   O     O_R   0.336260 0.920540 0.820710 -0.507737
O51   O     O_R   0.163740 0.420540 0.179290 -0.508162
O52   O     O_R   0.836260 0.420540 0.820710 -0.508162
F1    F     F_    0.638457 0.172625 0.010458 -0.653970
F2    F     F_    0.361542 0.172625 0.989542 -0.653971
F3    F     F_    0.138458 0.672624 0.010459 -0.653840
F4    F     F_    0.861542 0.672624 0.989541 -0.653840

loop_
_geom_bond_atom_site_label_1
_geom_bond_atom_site_label_2
_ccdc_geom_bond_type
C58   C62   S    
Cr9   O13   S    
C15   C19   S    
C67   C83   S    
Cr10  O10   S    
C49   H29   S    
C17   C29   S    
C14   C18   S    
C7    C27   S    
C35   C39   S    
C35   C36   S    
C8    C96   S    
C81   O41   A    
C44   C80   S    
C19   C31   S    
C69   O37   A    
Cr3   O47   S    
C94   H6    S    
C3    O27   A    
C38   C49   S    
C10   C22   S    
Cr7   O27   S    
Cr5   O5    S    
Cr11  O35   S    
C33   C42   S    
C23   H19   S    
C16   C20   S    
Cr4   O48   S    
C9    C69   S    
C38   C42   S    
Cr3   O19   S    
C16   H12   S    
C15   C95   S    
C73   O49   A    
C11   C71   S    
C13   H9    S    
C22   H18   S    
C83   O15   A    
C4    O24   A    
Cr1   O45   S    
C69   O1    A    
Cr8   O52   S    
C81   O13   A    
Cr12  O40   S    
C80   O12   A    
C12   C24   S    
C71   O39   A    
C57   C61   S    
C9    C13   S    
C59   C67   T    
Cr12  O12   S    
C55   C74   S    
C11   C15   S    
C17   H15   S    
Cr9   O17   S    
Cr2   O18   S    
C95   H7    S    
Cr10  O14   S    
C55   C63   T    
C46   O34   A    
Cr5   O29   S    
C18   C30   S    
C23   C27   S    
C2    O26   A    
C40   C44   S    
C20   H14   S    
C4    C29   S    
C76   O48   A    
C3    O23   A    
Cr8   O32   S    
C46   C85   S    
Cr11  O11   S    
C44   C52   S    
C39   C52   S    
C12   C72   S    
Cr5   O17   S    
Cr6   O26   S    
Cr9   O33   S    
C87   C92   T    
Cr2   O2    S    
Cr7   O31   S    
C6    H2    S    
Cr6   O18   S    
C34   C41   S    
C53   C61   T    
Cr8   O20   S    
C36   H28   S    
C28   C32   S    
C41   C49   S    
C73   O45   A    
Cr2   O22   S    
C58   C66   T    
C7    C11   S    
C25   C29   S    
C40   F4    S    
C70   O2    A    
C16   C96   S    
C27   C31   S    
C51   C52   S    
C68   C84   S    
C12   C16   S    
C84   O44   A    
C38   F2    S    
C10   C14   S    
C35   H27   S    
C91   C92   S    
C29   C93   S    
C19   C23   S    
C70   O38   A    
C39   C43   S    
C54   C62   T    
C6    C94   S    
Cr10  O18   S    
C39   F3    S    
C1    C32   S    
C33   C37   S    
C27   H23   S    
C46   O30   A    
C82   O14   A    
C13   C93   S    
C2    C31   S    
C28   H24   S    
C37   F1    S    
Cr2   O42   S    
C3    C30   S    
C75   O51   A    
C5    C9    S    
C76   O52   A    
C45   O33   A    
Cr8   O28   S    
Cr4   O20   S    
C47   O31   A    
Cr12  O16   S    
C88   C91   T    
C36   C40   S    
C8    C12   S    
Cr11  O19   S    
C74   O50   A    
C56   C64   T    
C33   C34   S    
Cr10  O34   S    
C48   C87   S    
C83   O43   A    
Cr4   O24   S    
C78   O10   A    
C93   H5    S    
Cr5   O25   S    
C35   C44   S    
Cr1   O1    S    
C43   C79   S    
C42   C50   S    
C5    C25   S    
C10   C70   S    
C14   C94   S    
Cr9   O37   S    
C32   C96   S    
C14   H10   S    
Cr1   O21   S    
Cr4   O4    S    
C8    C28   S    
Cr3   O23   S    
C59   C63   S    
C53   C76   S    
Cr7   O51   S    
C72   O40   A    
C77   O9    A    
C9    C21   S    
C77   O5    A    
C7    C95   S    
C48   O32   A    
C42   C78   S    
C79   O11   A    
C20   C32   S    
Cr3   O3    S    
C72   O4    A    
C21   C25   S    
C19   H13   S    
C56   C73   S    
Cr11  O39   S    
C1    O25   A    
C34   C38   S    
Cr3   O43   S    
C33   H25   S    
C75   O47   A    
C24   C28   S    
C57   C65   T    
C86   C89   T    
C26   H22   S    
C6    C10   S    
C5    C93   S    
C85   C90   T    
C50   H30   S    
Cr1   O41   S    
Cr12  O20   S    
Cr7   O7    S    
C7    H3    S    
C40   C51   S    
Cr9   O9    S    
C82   O42   A    
Cr5   O49   S    
C13   C17   S    
C60   C64   S    
C47   C88   S    
C20   C24   S    
C18   C22   S    
C45   C86   S    
Cr8   O8    S    
Cr2   O46   S    
Cr6   O6    S    
C41   C77   S    
C37   C50   S    
C84   O16   A    
Cr7   O19   S    
C6    C26   S    
C71   O3    A    
C5    H1    S    
Cr6   O30   S    
C43   C51   S    
C31   C95   S    
Cr12  O36   S    
C11   C23   S    
Cr6   O50   S    
C8    H4    S    
C15   H11   S    
C79   O7    A    
C37   C41   S    
Cr4   O44   S    
C17   C21   S    
C78   O6    A    
C47   O35   A    
C1    O21   A    
C54   C75   S    
C52   H32   S    
C4    O28   A    
C80   O8    A    
C60   C68   T    
C30   C94   S    
C49   C50   S    
C22   C26   S    
C18   H16   S    
C24   H20   S    
C34   H26   S    
C65   C81   S    
C96   H8    S    
C36   C43   S    
C25   H21   S    
C74   O46   A    
C89   C90   S    
C21   H17   S    
Cr10  O38   S    
Cr11  O15   S    
C45   O29   A    
C66   C82   S    
Cr1   O17   S    
C2    O22   A    
C48   O36   A    
C26   C30   S    
C51   H31   S    
