data_mof_unit_57792.cif
_audit_creation_date              2012-12-10T17:05:57-0500
_audit_creation_method            fapswitch 2.2
_symmetry_space_group_name_H-M    P1
_symmetry_Int_Tables_number       1
_space_group_crystal_system       triclinic
_cell_length_a                    11.52967
_cell_length_b                    10.683433
_cell_length_c                    10.094871
_cell_angle_alpha                 88.949489
_cell_angle_beta                  89.063063
_cell_angle_gamma                 90.409013
_cell_volume                      1243.04081169

loop_
_atom_site_label
_atom_site_type_symbol
_atom_type_description
_atom_site_fract_x
_atom_site_fract_y
_atom_site_fract_z
_atom_type_partial_charge
C1    C     C_R   0.509177 0.263040 0.500535 0.911951
C2    C     C_1   0.161555 0.499762 0.502154 -0.196325
C3    C     C_1   0.059305 0.499733 0.500978 -0.013315
C4    C     C_1   0.940612 0.499720 0.498674 -0.019386
C5    C     C_1   0.838377 0.499790 0.497713 -0.195620
C6    C     C_2   0.563192 0.930712 0.406441 -0.214070
C7    C     C_R   0.584773 0.121042 0.260541 0.180301
C8    C     C_R   0.685523 0.192931 0.235483 -0.119924
C9    C     C_R   0.709560 0.240309 0.107794 -0.173862
C10   C     C_R   0.632978 0.217261 0.004973 -0.129591
C11   C     C_R   0.532535 0.146033 0.029347 -0.177557
C12   C     C_2   0.497536 0.869912 0.496519 -0.341306
C13   C     C_R   0.508787 0.097206 0.156450 -0.166519
C14   C     C_3   0.327751 0.408847 0.881536 -0.143885
C15   C     C_R   0.664663 0.645556 0.119735 0.161623
C16   C     C_R   0.650079 0.774324 0.095989 -0.166809
C17   C     C_R   0.741614 0.858015 0.116797 -0.180651
C18   C     C_R   0.847518 0.814160 0.163359 -0.117936
C19   C     C_R   0.863546 0.685955 0.184467 -0.142560
C20   C     C_R   0.773574 0.601754 0.159213 -0.127544
C21   C     C_2   0.560840 0.065928 0.394322 0.034413
C22   C     C_2   0.535345 0.132163 0.503240 -0.398587
C23   C     C_2   0.587204 0.534168 0.923731 -0.008925
C24   C     C_2   0.577727 0.557227 0.069872 0.043261
C25   C     C_R   0.282138 0.499803 0.500862 0.891597
C26   C     C_R   0.498534 0.737295 0.499163 0.934070
C27   C     C_R   0.717845 0.499980 0.499123 0.892892
H1    H     H_    0.615749 0.879467 0.336586 0.187785
H2    H     H_    0.431266 0.041073 0.173938 0.136893
H3    H     H_    0.369957 0.340795 0.814341 0.163775
H4    H     H_    0.244592 0.439287 0.838112 0.171635
H5    H     H_    0.306110 0.358324 0.975773 0.105975
H6    H     H_    0.569109 0.809449 0.057626 0.146185
H7    H     H_    0.730591 0.956804 0.096466 0.166939
H8    H     H_    0.917788 0.879251 0.180618 0.132535
H9    H     H_    0.946570 0.651528 0.217199 0.142708
H10   H     H_    0.789365 0.502405 0.168951 0.127581
H11   H     H_    0.441858 0.915942 0.567974 0.145699
H12   H     H_    0.533460 0.087966 0.601005 0.151069
H13   H     H_    0.670549 0.550764 0.874797 0.098814
H14   H     H_    0.456933 0.427349 0.108822 0.213005
H15   H     H_    0.745652 0.211007 0.314319 0.116569
H16   H     H_    0.788037 0.293981 0.088147 0.122169
H17   H     H_    0.651680 0.254174 0.906302 0.139117
H18   H     H_    0.473481 0.127995 0.949550 0.131620
N1    N     N_2   0.501210 0.501330 0.852150 0.078408
N2    N     N_2   0.501250 0.501360 0.147810 -0.183807
O1    O     O_R   0.499980 0.319060 0.613040 -0.647465
O2    O     O_R   0.500020 0.319100 0.386900 -0.600395
O3    O     O_R   0.334430 0.499990 0.613070 -0.603482
O4    O     O_R   0.334470 0.500030 0.386930 -0.604607
O5    O     O_R   0.499980 0.680900 0.613100 -0.595660
O6    O     O_R   0.500020 0.680940 0.386960 -0.603032
O7    O     O_R   0.665530 0.499970 0.613070 -0.629536
O8    O     O_R   0.665570 0.500010 0.386930 -0.618758
O9    O     O_3   0.395520 0.515539 0.909112 -0.534445
Zn1   Zn    Zn3+2 0.499980 0.499970 0.650990 0.967201
Zn2   Zn    Zn3+2 0.500020 0.500030 0.349010 0.959767

loop_
_geom_bond_atom_site_label_1
_geom_bond_atom_site_label_2
_ccdc_geom_bond_type
C23   H13   S    
C14   O9    S    
C23   C24   S    
C25   O4    A    
C1    O1    A    
C7    C8    A    
C26   O5    A    
C16   H6    S    
C11   C13   A    
C9    C10   A    
C19   C20   A    
C7    C13   A    
C14   H4    S    
O6    Zn2   S    
C17   C18   A    
H14   N2    S    
C27   O7    A    
O1    Zn1   S    
O4    Zn2   S    
C5    C27   S    
C21   C22   D    
N2    Zn2   S    
C6    C12   D    
C20   H10   S    
C24   N2    D    
C16   C17   A    
C14   H3    S    
C22   H12   S    
C18   H8    S    
C13   H2    S    
C15   C24   S    
C8    H15   S    
C2    C3    T    
C2    C25   S    
C19   H9    S    
N1    Zn1   S    
C12   H11   S    
C15   C20   A    
C27   O8    A    
C9    H16   S    
C11   H18   S    
C17   H7    S    
O3    Zn1   S    
C10   H17   S    
C3    C4    S    
C26   O6    A    
C1    C22   S    
O5    Zn1   S    
C18   C19   A    
C10   C11   A    
O8    Zn2   S    
C14   H5    S    
C23   N1    D    
C25   O3    A    
C4    C5    T    
C7    C21   S    
C6    C21   S    
C1    O2    A    
C6    H1    S    
O2    Zn2   S    
C15   C16   A    
C12   C26   S    
C8    C9    A    
O7    Zn1   S    
N1    O9    S    
