data_mof_unit_33473.cif
_audit_creation_date              2013-03-05T15:47:15-0500
_audit_creation_method            fapswitch 2.2
_symmetry_space_group_name_H-M    P1
_symmetry_Int_Tables_number       1
_space_group_crystal_system       triclinic
_cell_length_a                    27.798919
_cell_length_b                    11.034263
_cell_length_c                    9.79711
_cell_angle_alpha                 111.162527
_cell_angle_beta                  97.943953
_cell_angle_gamma                 90.973764
_cell_volume                      2768.32104225

loop_
_atom_site_label
_atom_site_type_symbol
_atom_site_description
_atom_site_fract_x
_atom_site_fract_y
_atom_site_fract_z
_atom_type_partial_charge
O1    O     O_R   0.504520 0.332330 0.577400 -0.576892
O2    O     O_R   0.495480 0.667670 0.422600 -0.588491
O3    O     O_R   0.490210 0.295500 0.332650 -0.569191
O4    O     O_R   0.509790 0.704500 0.667350 -0.557095
C1    C     C_R   0.496416 0.254024 0.440585 0.887031
C2    C     C_R   0.503460 0.745978 0.559431 0.873902
O5    O     O_R   0.437420 0.518430 0.622370 -0.558747
O6    O     O_R   0.562580 0.481570 0.377630 -0.554933
O7    O     O_R   0.423110 0.481600 0.377610 -0.536469
O8    O     O_R   0.576890 0.518400 0.622390 -0.534784
C3    C     C_R   0.407342 0.499520 0.501415 0.904629
C4    C     C_R   0.592766 0.502356 0.498892 0.891804
Cu1   Cu    Cu3+1 0.508480 0.521810 0.644910 1.051403
Cu2   Cu    Cu3+1 0.491520 0.478190 0.355090 1.038139
C5    C     C_R   0.177643 0.392738 0.531422 0.634667
C6    C     C_R   0.828324 0.629939 0.579612 0.628204
O9    O     O_2   0.199341 0.279278 0.497038 -0.483790
O10   O     O_2   0.806330 0.742858 0.610813 -0.486262
N1    N     N_R   0.203495 0.504937 0.546524 -0.437757
N2    N     N_R   0.800804 0.513524 0.525255 -0.437235
C7    C     C_R   0.182064 0.620954 0.580188 0.639496
C8    C     C_R   0.822354 0.397647 0.490299 0.634581
C9    C     C_R   0.271213 0.537377 0.419618 0.339990
C10   C     C_R   0.718288 0.452632 0.375199 0.344676
C11   C     C_R   0.321409 0.538823 0.410355 0.133832
C12   C     C_R   0.667154 0.447782 0.368436 0.136089
C13   C     C_R   0.335808 0.452700 0.609482 0.293769
C14   C     C_R   0.677692 0.578506 0.634199 0.283645
C15   C     C_R   0.286661 0.460853 0.623820 -0.172759
C16   C     C_R   0.727921 0.574546 0.639917 -0.178634
C17   C     C_R   0.254178 0.501070 0.529420 0.117173
C18   C     C_R   0.748537 0.513624 0.512570 0.121444
C19   C     C_R   0.105281 0.511467 0.577348 -0.043454
C20   C     C_R   0.902089 0.514740 0.563327 -0.046308
C21   C     C_R   0.128455 0.394681 0.550142 -0.092730
C22   C     C_R   0.879374 0.632674 0.603044 -0.095793
C23   C     C_R   0.102638 0.283541 0.546887 -0.141949
C24   C     C_R   0.907852 0.750522 0.671027 -0.158271
C25   C     C_R   0.132284 0.625475 0.591120 -0.034465
C26   C     C_R   0.873245 0.396043 0.504299 -0.031365
C27   C     C_R   0.354213 0.496078 0.505664 -0.282920
C28   C     C_R   0.646297 0.510185 0.499116 -0.283028
H1    H     H_    0.273019 0.430941 0.706051 0.222282
H2    H     H_    0.751562 0.623325 0.744455 0.216482
H3    H     H_    0.121375 0.196542 0.539127 0.228186
H4    H     H_    0.890519 0.840990 0.713584 0.228591
C29   C     C_R   0.976095 0.395616 0.544007 0.076723
C30   C     C_R   0.032205 0.632981 0.618769 0.067408
C31   C     C_R   0.982102 0.635679 0.634195 -0.054819
C32   C     C_R   0.027740 0.396824 0.566911 -0.057014
C33   C     C_R   0.953570 0.515413 0.581357 0.052494
C34   C     C_R   0.055017 0.513909 0.588734 0.054489
C35   C     C_R   0.946176 0.278578 0.475064 -0.095548
C36   C     C_R   0.059466 0.743294 0.621692 -0.085944
C37   C     C_R   0.895714 0.278655 0.458757 -0.099166
C38   C     C_R   0.108847 0.740455 0.611740 -0.087389
O11   O     O_2   0.794673 0.284373 0.443842 -0.474298
O12   O     O_2   0.208881 0.731705 0.603553 -0.475641
C39   C     C_R   0.053392 0.285047 0.562897 0.298886
C40   C     C_R   0.958719 0.753174 0.694413 0.290597
H5    H     H_    0.874354 0.186140 0.407422 0.207122
H6    H     H_    0.128309 0.828172 0.616567 0.214169
H7    H     H_    0.961131 0.185601 0.427694 0.190821
H8    H     H_    0.042783 0.831889 0.625808 0.214089
H9    H     H_    0.491700 0.864538 0.368084 0.187470
H10   H     H_    0.506736 0.135474 0.632089 0.191461
C41   C     C_2   0.494287 0.114695 0.407024 -0.288251
C42   C     C_2   0.505227 0.885309 0.593059 -0.279466
C43   C     C_2   0.500295 0.069576 0.516739 -0.099777
C44   C     C_2   0.498494 0.930434 0.483415 -0.130815
H11   H     H_    0.512047 0.951462 0.708198 0.170583
H12   H     H_    0.487832 0.048533 0.291871 0.160677
H13   H     H_    0.468556 0.414756 0.845376 0.209422
H14   H     H_    0.532449 0.582925 0.154543 0.167741
N3    N     N_2   0.478780 0.445430 0.137360 -0.264643
N4    N     N_2   0.521220 0.554570 0.862640 -0.279948
C45   C     C_2   0.504276 0.510369 0.081370 -0.007124
C46   C     C_2   0.496232 0.488554 0.918599 -0.024330
H15   H     H_    0.547337 0.624050 0.934769 0.232586
H16   H     H_    0.452251 0.377168 0.065381 0.236354
N5    N     N_R   0.365861 0.393289 0.695665 0.139331
O13   O     O_R   0.360811 0.417456 0.832930 -0.327400
O14   O     O_R   0.391453 0.297666 0.630160 -0.365359
N6    N     N_R   0.659477 0.657957 0.765669 0.158292
O15   O     O_R   0.630739 0.748719 0.760756 -0.325774
O16   O     O_R   0.678333 0.656057 0.894056 -0.293123
Br1   Br    Br    0.627623 0.356605 0.177883 -0.354608
Br2   Br    Br    0.343494 0.599667 0.265874 -0.313422
N7    N     N_R   0.739721 0.397894 0.242733 0.170854
O17   O     O_R   0.730560 0.275336 0.159501 -0.230252
O18   O     O_R   0.772564 0.466685 0.213805 -0.305529
N8    N     N_R   0.237229 0.570066 0.316009 0.166589
O19   O     O_R   0.241596 0.683498 0.304638 -0.237257
O20   O     O_R   0.198962 0.491990 0.244192 -0.310553
N9    N     N_R   0.032205 0.179851 0.593997 0.116919
O21   O     O_R   0.045112 0.061788 0.533494 -0.342384
O22   O     O_R   0.005606 0.204779 0.699039 -0.277710
N10   N     N_R   0.985250 0.871949 0.795282 0.118718
O23   O     O_R   0.969989 0.984279 0.800974 -0.272015
O24   O     O_R   0.020211 0.868326 0.896585 -0.300932

loop_
_geom_bond_atom_site_label_1
_geom_bond_atom_site_label_2
_geom_bond_distance
_ccdc_geom_bond_type
C13   C15   1.393727 A    
N9    O21   1.301666 A    
N4    H15   1.030710 S    
C1    C41   1.449739 S    
N1    C17   1.441206 S    
C10   N7    1.436675 S    
C8    O11   1.349546 S    
N5    O13   1.301476 A    
C45   C46   1.507789 S    
C19   C34   1.416948 A    
C5    N1    1.370848 A    
C20   C33   1.417109 A    
C19   C25   1.407683 A    
C31   C40   1.426104 A    
O1    C1    1.291382 A    
C32   C39   1.426147 A    
N4    C46   1.300045 D    
C21   C23   1.398399 A    
C10   C12   1.413026 A    
C40   N10   1.438298 S    
H10   C43   1.088225 S    
C14   N6    1.436675 S    
H9    C44   1.088210 S    
C41   H12   1.087584 S    
C14   C28   1.421090 A    
O4    Cu1   1.946436 S    
C4    C28   1.488793 S    
C12   Br1   1.935003 S    
C31   C33   1.418755 A    
H14   C45   1.085061 S    
C32   C34   1.418551 A    
H13   C46   1.083517 S    
N7    O18   1.301298 A    
N3    H16   1.030709 S    
C6    N2    1.370773 A    
C29   C35   1.412145 A    
C2    C42   1.449776 S    
Cu1   Cu2   2.674254 S    
C15   H1    1.083498 S    
C16   H2    1.083717 S    
O2    C2    1.291450 A    
C39   N9    1.438332 S    
C5    C21   1.404031 A    
N5    O14   1.301578 A    
O5    C3    1.299445 A    
C29   C32   1.421201 A    
C35   C37   1.389796 A    
C36   C38   1.389645 A    
C13   N5    1.436636 S    
N6    O15   1.301892 A    
O4    C2    1.288019 A    
C11   C27   1.422376 A    
C29   C33   1.419705 A    
C11   Br2   1.934848 S    
C41   C43   1.330690 D    
C9    C17   1.409790 A    
C30   C36   1.412179 A    
O7    Cu2   1.943978 S    
C10   C18   1.408995 A    
N3    C45   1.300266 D    
C13   C27   1.418608 A    
C25   C38   1.397974 A    
C7    C25   1.403019 A    
Cu1   N4    2.009081 S    
C30   C34   1.419768 A    
O6    C4    1.299737 A    
C26   C37   1.397946 A    
C8    C26   1.403404 A    
N8    O20   1.301233 A    
O7    C3    1.295823 A    
C23   C39   1.399036 A    
O3    Cu2   1.946435 S    
O8    C4    1.298320 A    
C24   C40   1.398979 A    
C6    O10   1.349902 S    
C30   C31   1.421270 A    
N2    C8    1.370264 A    
N10   O24   1.301742 A    
C38   H6    1.083446 S    
O1    Cu1   1.947947 S    
C23   H3    1.083450 S    
C12   C28   1.425362 A    
N2    C18   1.441107 S    
C5    O9    1.349801 S    
O6    Cu2   1.955326 S    
N1    C7    1.370356 A    
N6    O16   1.301721 A    
O3    C1    1.288058 A    
O8    Cu1   1.943984 S    
N9    O22   1.301656 A    
Cu2   N3    2.009079 S    
C22   C24   1.398288 A    
C7    O12   1.349599 S    
C15   C17   1.395286 A    
C6    C22   1.403935 A    
C16   C18   1.393590 A    
C35   H7    1.079266 S    
C36   H8    1.079125 S    
C42   H11   1.087599 S    
C37   H5    1.083416 S    
C14   C16   1.391731 A    
N8    O19   1.301147 A    
C19   C21   1.405117 A    
C3    C27   1.483497 S    
C20   C22   1.404923 A    
C9    C11   1.411006 A    
C43   C44   1.448197 S    
O2    Cu2   1.947948 S    
C24   H4    1.083447 S    
O5    Cu1   1.955326 S    
C42   C44   1.330658 D    
N10   O23   1.301502 A    
C9    N8    1.436609 S    
C20   C26   1.407826 A    
N7    O17   1.301265 A    
