data_mof_unit_27632.cif
_audit_creation_date              2012-12-11T14:57:52-0500
_audit_creation_method            fapswitch 2.2
_symmetry_space_group_name_H-M    P1
_symmetry_Int_Tables_number       1
_space_group_crystal_system       triclinic
_cell_length_a                    6.930335
_cell_length_b                    16.676502
_cell_length_c                    17.179503
_cell_angle_alpha                 100.24118
_cell_angle_beta                  91.247241
_cell_angle_gamma                 89.192633
_cell_volume                      1953.29835341

loop_
_atom_site_label
_atom_site_type_symbol
_atom_type_description
_atom_site_fract_x
_atom_site_fract_y
_atom_site_fract_z
_atom_type_partial_charge
O1    O     O_R   0.506180 0.438940 0.579430 -0.534015
O2    O     O_R   0.170520 0.406230 0.413590 -0.528666
O3    O     O_R   0.005180 0.561060 0.420570 -0.552723
C1    C     C_R   0.339827 0.383424 0.384855 0.682446
O4    O     O_R   0.176140 0.429310 0.578370 -0.516712
O5    O     O_R   0.010830 0.584300 0.586530 -0.539185
C2    C     C_R   0.347179 0.413039 0.604269 0.782396
O6    O     O_R   0.500520 0.415700 0.413470 -0.549551
O7    O     O_3   0.340830 0.550820 0.502480 -0.369971
V1    V     V_3+5 0.064040 0.490570 0.499540 1.509533
O8    O     O_R   0.681400 0.593770 0.586410 -0.514933
C3    C     C_R   0.849982 0.621015 0.610767 0.683324
O9    O     O_R   0.675790 0.570690 0.421630 -0.534734
C4    C     C_R   0.841180 0.587941 0.395891 0.705497
V2    V     V_3+5 0.564650 0.509430 0.500460 1.509924
O10   O     O_3   0.837730 0.449180 0.497520 -0.360636
C5    C     C_R   0.930376 0.865456 0.170882 -0.036779
C6    C     C_R   0.834221 0.644387 0.337419 -0.018529
C7    C     C_R   0.642797 0.706578 0.241961 -0.178380
C8    C     C_R   0.663005 0.649902 0.292589 -0.104392
C9    C     C_R   0.986478 0.697415 0.329994 -0.187049
C10   C     C_R   0.967090 0.754684 0.278519 0.136148
C11   C     C_R   0.793464 0.759481 0.234392 0.123606
C12   C     C_R   0.774780 0.815677 0.182050 -0.171075
C13   C     C_R   0.101307 0.860787 0.216059 -0.136862
C14   C     C_R   0.118956 0.806652 0.269541 -0.170247
H1    H     H_    0.642587 0.818002 0.147565 0.146831
H2    H     H_    0.223650 0.898455 0.209141 0.120707
H3    H     H_    0.253116 0.804325 0.302700 0.132164
H4    H     H_    0.542632 0.610298 0.296968 0.135140
H5    H     H_    0.118412 0.694682 0.364546 0.128878
H6    H     H_    0.109056 0.600986 0.950638 0.152423
C15   C     C_R   0.837967 0.914580 0.735974 -0.143883
C16   C     C_R   0.776238 0.936426 0.665400 -0.087041
C17   C     C_R   0.713872 0.877343 0.603504 -0.122824
C18   C     C_R   0.715804 0.794979 0.610731 -0.045153
C19   C     C_R   0.804195 0.769748 0.678757 0.014590
C20   C     C_R   0.849137 0.831747 0.745005 0.076414
C21   C     C_R   0.857309 0.687053 0.682231 -0.164953
C22   C     C_R   0.930923 0.667155 0.754489 0.064512
C23   C     C_R   0.942999 0.727768 0.824760 0.021394
C24   C     C_R   0.903167 0.811329 0.819250 -0.172571
C25   C     C_R   0.987059 0.585706 0.758367 -0.064299
C26   C     C_R   0.059328 0.564158 0.827484 -0.033278
C27   C     C_R   0.064528 0.621048 0.896239 -0.136040
C28   C     C_R   0.999379 0.701013 0.896930 -0.086766
H7    H     H_    0.878597 0.963853 0.783115 0.102709
H8    H     H_    0.765155 0.000084 0.660427 0.147572
H9    H     H_    0.648311 0.896843 0.551987 0.144167
H10   H     H_    0.973980 0.536405 0.708583 0.124037
H11   H     H_    0.102854 0.501719 0.828511 0.128976
C29   C     C_R   0.546954 0.233775 0.398980 -0.065561
C30   C     C_R   0.655043 0.164669 0.407504 -0.043555
C31   C     C_R   0.679289 0.102028 0.343404 -0.118283
C32   C     C_R   0.597764 0.108422 0.269962 -0.159440
C33   C     C_R   0.492429 0.178965 0.258681 0.064304
C34   C     C_R   0.464666 0.242989 0.324843 0.058792
C35   C     C_R   0.413491 0.185873 0.183322 -0.174021
C36   C     C_R   0.312157 0.258215 0.173830 0.082117
C37   C     C_R   0.285345 0.322676 0.239624 0.050172
C38   C     C_R   0.356412 0.314292 0.316153 -0.163548
C39   C     C_R   0.242415 0.268791 0.098363 -0.158513
C40   C     C_R   0.152021 0.340779 0.087115 -0.162224
C41   C     C_R   0.130793 0.405486 0.150254 0.031816
C42   C     C_R   0.195527 0.396023 0.226188 -0.207468
H12   H     H_    0.528329 0.279387 0.451512 0.108566
H13   H     H_    0.718467 0.159295 0.464496 0.133947
H14   H     H_    0.761168 0.047976 0.350648 0.128881
H15   H     H_    0.619327 0.057457 0.222351 0.107898
H16   H     H_    0.177895 0.446953 0.274246 0.138181
C43   C     C_R   0.397160 0.134116 0.831000 -0.076102
C44   C     C_R   0.363058 0.362651 0.667569 -0.186563
C45   C     C_R   0.502269 0.340966 0.793722 -0.177952
C46   C     C_R   0.460805 0.393580 0.740042 -0.038669
C47   C     C_R   0.294909 0.280917 0.653477 -0.144125
C48   C     C_R   0.317235 0.231753 0.713601 0.017955
C49   C     C_R   0.434023 0.261176 0.781299 0.136907
C50   C     C_R   0.476774 0.211668 0.838142 -0.205903
C51   C     C_R   0.273675 0.106199 0.766831 -0.207572
C52   C     C_R   0.229428 0.153937 0.709226 -0.023657
H17   H     H_    0.204059 0.047770 0.763557 0.131656
H18   H     H_    0.583500 0.363269 0.847717 0.160925
O11   O     O_R   0.265840 0.084300 0.086750 -0.542699
O12   O     O_R   0.589750 0.070740 0.921690 -0.541309
O13   O     O_R   0.755020 0.915730 0.913400 -0.520648
C53   C     C_R   0.418258 0.085906 0.895090 0.698821
O14   O     O_R   0.595830 0.093740 0.086480 -0.543766
O15   O     O_R   0.761150 0.938890 0.079360 -0.536958
C54   C     C_R   0.427122 0.116310 0.115293 0.678554
O16   O     O_R   0.259710 0.061140 0.920790 -0.543296
O17   O     O_3   0.425260 0.949200 0.997610 -0.357645
V3    V     V_3+5 0.702060 0.009430 0.000450 1.457394
O18   O     O_R   0.090530 0.929220 0.078150 -0.532261
C55   C     C_R   0.925562 0.916735 0.107764 0.769157
O19   O     O_R   0.084440 0.906220 0.913360 -0.544762
C56   C     C_R   0.915114 0.879379 0.888832 0.734600
V4    V     V_3+5 0.201450 0.990520 0.999290 1.453824
O20   O     O_3   0.928380 0.050800 0.002390 -0.376756
C57   C     C_2   0.574948 0.745452 0.558626 0.746102
O21   O     O_2   0.587436 0.737588 0.486810 -0.577601
O22   O     O_R   0.412668 0.717529 0.592202 -0.640264
H19   H     H_    0.307872 0.698324 0.551431 0.300993
C58   C     C_2   0.969263 0.748378 0.976349 0.749326
O23   O     O_2   0.806837 0.772254 0.995222 -0.547934
O24   O     O_R   0.119455 0.758783 0.032793 -0.650471
H20   H     H_    0.248450 0.737828 0.010462 0.268224
C59   C     C_2   0.048264 0.484096 0.135871 0.745750
O25   O     O_2   0.958620 0.487611 0.074385 -0.554250
O26   O     O_R   0.077224 0.554962 0.191519 -0.677957
H21   H     H_    0.021803 0.604884 0.172677 0.310992
H22   H     H_    0.261763 0.222572 0.046295 0.114314
H23   H     H_    0.104320 0.346712 0.027906 0.152984
H24   H     H_    0.565330 0.234814 0.889875 0.114385
C60   C     C_2   0.072319 0.123847 0.652473 0.762254
O27   O     O_2   0.085085 0.056091 0.611620 -0.553954
O28   O     O_R   0.907368 0.172067 0.647476 -0.654376
H25   H     H_    0.808585 0.144394 0.607584 0.282208
C61   C     C_2   0.519836 0.480758 0.762708 0.719706
O29   O     O_2   0.632834 0.500808 0.818226 -0.556407
O30   O     O_R   0.441536 0.540774 0.723569 -0.663311
H26   H     H_    0.491648 0.597233 0.745777 0.306467
C62   C     C_2   0.226747 0.243889 0.572229 0.772340
O31   O     O_2   0.087076 0.272588 0.541988 -0.518520
O32   O     O_R   0.317525 0.174517 0.530458 -0.644328
H27   H     H_    0.433509 0.156258 0.560001 0.250602
H28   H     H_    0.509028 0.708791 0.208496 0.139371

loop_
_geom_bond_atom_site_label_1
_geom_bond_atom_site_label_2
_ccdc_geom_bond_type
C32   C33   A    
C23   C24   A    
O22   H19   S    
C6    C9    A    
H6    C27   S    
C4    C6    S    
O2    C1    A    
C7    C8    A    
C12   H1    S    
C1    O6    A    
O14   V3    S    
C43   C51   A    
C60   O27   D    
V3    O20   S    
C8    H4    S    
C30   C31   A    
C29   C30   A    
C13   H2    S    
C9    H5    S    
O18   C55   A    
C24   C56   S    
C18   C19   A    
C19   C20   A    
O12   C53   A    
C20   C24   A    
O5    C3    A    
O13   C56   A    
C31   H14   S    
C42   H16   S    
C47   C62   S    
O28   H25   S    
C16   C17   A    
C45   C46   A    
C40   H23   S    
C61   O29   D    
O8    V2    S    
C22   C25   A    
C39   H22   S    
O15   V3    S    
C17   H9    S    
C23   C28   A    
O1    V2    S    
O7    V1    S    
O16   V4    S    
C36   C37   A    
O9    C4    A    
C59   O26   S    
C44   C47   A    
O11   C54   A    
O13   V3    S    
V4    O20   S    
C10   C11   A    
C46   C61   S    
O15   C55   A    
C5    C12   A    
C48   C49   A    
C44   C46   A    
C53   O16   A    
C2    C44   S    
O4    C2    A    
C35   C36   A    
C49   C50   A    
C1    C38   S    
C51   C52   A    
C37   C38   A    
C17   C18   A    
C7    C11   A    
C47   C48   A    
C39   C40   A    
C43   C53   S    
C57   O21   D    
C59   O25   D    
C15   C16   A    
C58   O24   S    
O17   V4    S    
C32   H15   S    
O3    C4    A    
C26   H11   S    
C22   C23   A    
C57   O22   S    
C52   C60   S    
C37   C42   A    
O6    V2    S    
O9    V2    S    
C25   C26   A    
O11   V4    S    
C15   H7    S    
C50   H24   S    
C16   H8    S    
C33   C34   A    
C62   O32   S    
O2    V1    S    
O18   V4    S    
C45   H18   S    
O17   V3    S    
C29   H12   S    
C26   C27   A    
C41   C59   S    
C51   H17   S    
O24   H20   S    
C31   C32   A    
C36   C39   A    
O1    C2    A    
C48   C52   A    
O5    V1    S    
C60   O28   S    
O8    C3    A    
O19   V4    S    
C25   H10   S    
C34   C38   A    
C28   C58   S    
C7    H28   S    
C15   C20   A    
C5    C13   A    
C41   C42   A    
C3    C21   S    
O14   C54   A    
C13   C14   A    
O4    V1    S    
C19   C21   A    
O3    V1    S    
V1    O10   S    
O26   H21   S    
C33   C35   A    
C18   C57   S    
C6    C8    A    
O7    V2    S    
C30   H13   S    
C35   C54   S    
C61   O30   S    
C29   C34   A    
C11   C12   A    
C40   C41   A    
C21   C22   A    
C27   C28   A    
C14   H3    S    
C10   C14   A    
C58   O23   D    
C45   C49   A    
O30   H26   S    
C5    C55   S    
O12   V3    S    
C62   O31   D    
C9    C10   A    
C43   C50   A    
O19   C56   A    
V2    O10   S    
O32   H27   S    
