data_mof_unit_39986.cif
_audit_creation_date              2012-12-10T16:57:04-0500
_audit_creation_method            fapswitch 2.2
_symmetry_space_group_name_H-M    P1
_symmetry_Int_Tables_number       1
_space_group_crystal_system       triclinic
_cell_length_a                    7.796804
_cell_length_b                    8.576002
_cell_length_c                    16.351619
_cell_angle_alpha                 91.785821
_cell_angle_beta                  80.526412
_cell_angle_gamma                 93.600814
_cell_volume                      1076.07606216

loop_
_atom_site_label
_atom_site_type_symbol
_atom_type_description
_atom_site_fract_x
_atom_site_fract_y
_atom_site_fract_z
_atom_type_partial_charge
C1    C     C_R   0.546022 0.794662 0.497901 0.973548
C2    C     C_R   0.417466 0.516927 0.211641 -0.292815
C3    C     C_R   0.606636 0.734181 0.837350 -0.233453
C4    C     C_R   0.425630 0.581940 0.134421 -0.240905
C5    C     C_R   0.449783 0.730011 0.893431 0.018547
C6    C     C_R   0.560231 0.692708 0.105173 0.016642
C7    C     C_R   0.297203 0.662365 0.868032 0.468504
C8    C     C_R   0.691715 0.734704 0.152074 0.458170
C9    C     C_R   0.309895 0.570259 0.794693 0.428964
C10   C     C_R   0.694437 0.655514 0.226178 0.416502
C11   C     C_2   0.446032 0.769272 0.982310 -0.192257
C12   C     C_R   0.453993 0.205335 0.502056 0.972652
C13   C     C_2   0.582295 0.742683 0.019028 -0.126623
C14   C     C_3   0.952945 0.580802 0.254867 -0.272359
C15   C     C_3   0.035348 0.548243 0.759321 -0.194503
C16   C     C_3   0.090833 0.836661 0.900291 -0.424566
C17   C     C_3   0.969069 0.846533 0.111334 -0.289343
C18   C     C_2   0.570284 0.958085 0.496616 -0.355869
C19   C     C_2   0.429765 0.041874 0.503236 -0.381657
C20   C     C_R   0.477893 0.509578 0.655313 0.928200
C21   C     C_R   0.525069 0.505173 0.344749 0.923887
C22   C     C_R   0.470755 0.568954 0.740682 -0.196031
C23   C     C_R   0.549891 0.553237 0.258224 -0.201845
C24   C     C_R   0.615667 0.657111 0.761077 -0.317954
H1    H     H_    0.735878 0.668325 0.717383 0.168884
H2    H     H_    0.977668 0.620197 0.561243 0.176638
H3    H     H_    0.028147 0.591687 0.191528 0.127919
H4    H     H_    0.896830 0.458546 0.261408 0.166327
H5    H     H_    0.045771 0.599911 0.299261 0.202899
H6    H     H_    0.964110 0.470576 0.719118 0.180203
H7    H     H_    0.079066 0.656795 0.724109 0.115847
H8    H     H_    0.942021 0.574301 0.816172 0.206489
H9    H     H_    0.086991 0.854031 0.833476 0.165371
H10   H     H_    0.181213 0.927613 0.922689 0.186398
H11   H     H_    0.959355 0.855847 0.934503 0.203664
H12   H     H_    0.308245 0.437251 0.234959 0.168835
H13   H     H_    0.992905 0.733966 0.076725 0.171733
H14   H     H_    0.033785 0.855705 0.166922 0.213922
H15   H     H_    0.031076 0.941914 0.070488 0.183573
H16   H     H_    0.708560 0.724195 0.982756 0.163773
H17   H     H_    0.320697 0.782125 0.021344 0.175919
H18   H     H_    0.326766 0.545106 0.097329 0.175063
H19   H     H_    0.722698 0.796516 0.852294 0.161161
H20   H     H_    0.703061 0.008926 0.490256 0.183450
H21   H     H_    0.296993 0.991016 0.509582 0.181093
H22   H     H_    0.022346 0.379908 0.438700 0.185605
N1    N     N_2   0.953500 0.457650 0.478520 -0.170660
N2    N     N_2   0.046500 0.542350 0.521480 -0.174748
O1    O     O_R   0.388470 0.738640 0.505270 -0.621166
O2    O     O_3   0.173754 0.467036 0.779638 -0.595241
O3    O     O_3   0.136121 0.683922 0.915121 -0.626650
O4    O     O_3   0.790936 0.873028 0.133249 -0.593105
O5    O     O_R   0.611530 0.261360 0.494730 -0.611889
O6    O     O_R   0.679650 0.711510 0.491500 -0.610276
O7    O     O_R   0.320350 0.288490 0.508500 -0.623051
O8    O     O_R   0.337210 0.515200 0.623500 -0.588927
O9    O     O_R   0.662790 0.484800 0.376500 -0.583029
O10   O     O_R   0.628380 0.488060 0.609730 -0.635244
O11   O     O_R   0.371620 0.511940 0.390270 -0.628547
O12   O     O_3   0.825868 0.693625 0.272027 -0.582772
Zn1   Zn    Zn3+2 0.305580 0.518120 0.509190 0.942000
Zn2   Zn    Zn3+2 0.694420 0.481880 0.490810 0.953104

loop_
_geom_bond_atom_site_label_1
_geom_bond_atom_site_label_2
_ccdc_geom_bond_type
O10   Zn2   S    
C10   O12   S    
C1    O6    A    
C19   H21   S    
C15   H7    S    
C18   H20   S    
C16   H9    S    
C14   O12   S    
O5    Zn2   S    
C8    O4    S    
C2    C4    A    
N1    N2    D    
C16   O3    S    
H2    N2    S    
C20   O8    A    
C16   H10   S    
N1    Zn2   S    
N2    Zn1   S    
C7    O3    S    
C15   H8    S    
C16   H11   S    
C17   H13   S    
C6    C13   S    
C21   O9    A    
C11   C13   D    
C3    H19   S    
C1    C18   S    
C4    H18   S    
O7    Zn1   S    
C17   O4    S    
C4    C6    A    
C20   C22   S    
C21   O11   A    
C5    C7    A    
C17   H14   S    
C21   C23   S    
C5    C11   S    
C14   H3    S    
C22   C24   A    
C9    C22   A    
O11   Zn1   S    
C12   O7    A    
O1    Zn1   S    
C14   H5    S    
C20   O10   A    
C3    C5    A    
O9    Zn2   S    
C24   H1    S    
C12   C19   S    
C15   H6    S    
C8    C10   A    
C18   C19   D    
C17   H15   S    
C15   O2    S    
C2    H12   S    
C2    C23   A    
C7    C9    A    
H22   N1    S    
C10   C23   A    
C6    C8    A    
O6    Zn2   S    
C14   H4    S    
O8    Zn1   S    
C1    O1    A    
C9    O2    S    
C12   O5    A    
C11   H17   S    
C3    C24   A    
C13   H16   S    
