data_mof_unit_13224.cif
_audit_creation_date              2012-12-10T18:47:02-0500
_audit_creation_method            fapswitch 2.2
_symmetry_space_group_name_H-M    P1
_symmetry_Int_Tables_number       1
_space_group_crystal_system       triclinic
_cell_length_a                    10.712132
_cell_length_b                    9.871248
_cell_length_c                    14.894699
_cell_angle_alpha                 90.001509
_cell_angle_beta                  90.441382
_cell_angle_gamma                 91.090037
_cell_volume                      1574.66515567

loop_
_atom_site_label
_atom_site_type_symbol
_atom_type_description
_atom_site_fract_x
_atom_site_fract_y
_atom_site_fract_z
_atom_type_partial_charge
C1    C     C_R   0.261323 0.498317 0.511107 1.018787
C2    C     C_R   0.740797 0.500939 0.500721 1.017239
C3    C     C_R   0.264507 0.514466 0.042330 0.437735
C4    C     C_R   0.722215 0.571206 0.956829 0.439295
C5    C     C_R   0.062135 0.372495 0.511705 0.329476
C6    C     C_R   0.938788 0.612739 0.549566 0.368105
C7    C     C_R   0.937966 0.380513 0.489813 0.286604
C8    C     C_R   0.067871 0.610227 0.556276 0.340861
C9    C     C_R   0.874426 0.500735 0.510071 -0.360732
C10   C     C_R   0.129629 0.493081 0.528928 -0.362147
C11   C     C_R   0.559099 0.074313 0.567054 0.347977
C12   C     C_R   0.451615 0.927288 0.428615 0.347984
C13   C     C_R   0.441066 0.072002 0.432577 0.382293
C14   C     C_R   0.549226 0.929425 0.571089 0.376603
C15   C     C_R   0.499649 0.500298 0.327222 1.016095
C16   C     C_R   0.498657 0.500068 0.672686 1.008906
C17   C     C_R   0.613011 0.516109 0.813548 0.322289
C18   C     C_R   0.381300 0.493262 0.186950 0.320877
C19   C     C_R   0.499056 0.501776 0.768000 -0.275812
C20   C     C_R   0.496478 0.503088 0.231719 -0.269030
C21   C     C_R   0.384417 0.500623 0.811462 0.403428
C22   C     C_R   0.608289 0.529676 0.187567 0.376151
C23   C     C_R   0.382778 0.513159 0.904449 -0.041442
C24   C     C_R   0.607001 0.542452 0.094769 -0.036805
C25   C     C_R   0.496292 0.526997 0.952662 -0.060267
C26   C     C_R   0.493286 0.527531 0.046888 -0.057554
C27   C     C_R   0.612670 0.538110 0.906841 -0.079779
C28   C     C_R   0.377403 0.511360 0.092985 -0.071441
C29   C     C_R   0.269015 0.514411 0.949436 -0.191835
C30   C     C_R   0.718004 0.571678 0.049596 -0.206641
H1    H     H_    0.181675 0.514577 0.912213 0.248899
H2    H     H_    0.803345 0.594809 0.086513 0.247719
N1    N     N_R   0.500000 0.857200 0.500000 -0.178362
N2    N     N_R   0.500000 0.142800 0.500000 -0.167069
O1    O     O_R   0.316770 0.614620 0.499990 -0.561949
O2    O     O_R   0.683230 0.385380 0.500010 -0.569406
O3    O     O_R   0.683230 0.614620 0.500010 -0.564539
O4    O     O_R   0.316770 0.385380 0.499990 -0.563168
O5    O     O_R   0.499980 0.614680 0.367850 -0.576636
O6    O     O_R   0.500020 0.385320 0.632150 -0.589568
O7    O     O_R   0.500020 0.614680 0.632150 -0.570167
O8    O     O_R   0.499980 0.385320 0.367850 -0.571532
Zn1   Zn    Zn3+2 0.500000 0.653120 0.500000 1.106800
Zn2   Zn    Zn3+2 0.500000 0.346880 0.500000 1.089272
Cl1   Cl    Cl    0.751226 0.489502 0.751305 -0.513935
Cl2   Cl    Cl    0.248609 0.449230 0.252334 -0.537540
O9    O     O_3   0.274147 0.495375 0.761949 -0.599340
C31   C     C_3   0.234353 0.358817 0.753290 -0.213241
H3    H     H_    0.142918 0.355954 0.717826 0.227162
H4    H     H_    0.220783 0.309417 0.819743 0.162217
H5    H     H_    0.300730 0.299789 0.712648 0.183341
O10   O     O_3   0.717891 0.549796 0.236365 -0.629575
C32   C     C_3   0.778682 0.424820 0.244254 -0.185093
H6    H     H_    0.867035 0.441720 0.282272 0.239712
H7    H     H_    0.803383 0.382891 0.177513 0.182069
H8    H     H_    0.720780 0.349613 0.281778 0.184171
Cl3   Cl    Cl    0.113028 0.529903 0.086700 -0.503588
Cl4   Cl    Cl    0.865481 0.627801 0.910886 -0.452976
Cl5   Cl    Cl    0.125215 0.208909 0.526186 -0.564963
Cl6   Cl    Cl    0.862649 0.756340 0.593151 -0.427687
Cl7   Cl    Cl    0.870068 0.239511 0.431755 -0.600692
Cl8   Cl    Cl    0.149288 0.749746 0.606379 -0.467585
O11   O     O_3   0.620896 0.149060 0.633001 -0.593723
C33   C     C_3   0.747376 0.111760 0.639694 -0.017782
H9    H     H_    0.804332 0.203477 0.656448 0.199511
H10   H     H_    0.785605 0.069082 0.576547 0.201188
H11   H     H_    0.759451 0.038326 0.695343 0.201645
O12   O     O_3   0.410212 0.856554 0.353863 -0.566268
C34   C     C_3   0.496258 0.878574 0.283590 -0.197979
H12   H     H_    0.467667 0.814124 0.225685 0.186910
H13   H     H_    0.592422 0.849308 0.303755 0.182474
H14   H     H_    0.496882 0.985378 0.260054 0.167548
O13   O     O_3   0.381834 0.145440 0.365639 -0.579499
C35   C     C_3   0.262407 0.090743 0.343734 -0.010341
H15   H     H_    0.197942 0.175581 0.331969 0.230408
H16   H     H_    0.220585 0.025740 0.397243 0.190688
H17   H     H_    0.266937 0.032692 0.280107 0.166478
O14   O     O_3   0.594886 0.860552 0.644614 -0.531128
C36   C     C_3   0.514743 0.880866 0.718121 -0.158601
H18   H     H_    0.544630 0.814441 0.774060 0.187002
H19   H     H_    0.416121 0.852739 0.701186 0.185346
H20   H     H_    0.520595 0.986809 0.743090 0.166153

loop_
_geom_bond_atom_site_label_1
_geom_bond_atom_site_label_2
_ccdc_geom_bond_type
O13   C35   S    
C6    C9    A    
C32   H6    S    
C12   O12   S    
C35   H16   S    
C23   C29   A    
C22   O10   S    
C3    C28   A    
C19   C21   A    
C24   C26   A    
C11   O11   S    
C11   C14   A    
C3    C29   A    
C34   H13   S    
C7    Cl7   S    
C31   H5    S    
O12   C34   S    
C35   H17   S    
O1    Zn1   S    
C31   H4    S    
O7    Zn1   S    
O8    Zn2   S    
C14   N1    A    
C18   Cl2   S    
C32   H7    S    
C15   C20   S    
C17   Cl1   S    
C35   H15   S    
C5    Cl5   S    
C17   C27   A    
C33   H11   S    
C6    Cl6   S    
C18   C28   A    
C5    C7    A    
O14   C36   S    
C6    C8    A    
C25   C26   A    
C36   H18   S    
C33   H10   S    
O3    Zn1   S    
C34   H14   S    
O4    Zn2   S    
O9    C31   S    
O6    Zn2   S    
N2    Zn2   S    
C15   O5    A    
C1    O4    A    
C16   O6    A    
C3    Cl3   S    
C31   H3    S    
C20   C22   A    
C21   C23   A    
C22   C24   A    
O2    Zn2   S    
C4    C27   A    
O10   C32   S    
C1    O1    A    
C36   H19   S    
C32   H8    S    
C2    O2    A    
C7    C9    A    
C11   N2    A    
C1    C10   S    
C15   O8    A    
C13   O13   S    
C36   H20   S    
O5    Zn1   S    
C25   C27   A    
C26   C28   A    
C33   H9    S    
C13   N2    A    
C29   H1    S    
C30   H2    S    
C2    C9    S    
C2    O3    A    
C16   C19   S    
C17   C19   A    
C18   C20   A    
C14   O14   S    
C34   H12   S    
C24   C30   A    
O11   C33   S    
C5    C10   A    
C23   C25   A    
C12   C13   A    
C8    C10   A    
C4    Cl4   S    
C12   N1    A    
N1    Zn1   S    
C16   O7    A    
C4    C30   A    
C8    Cl8   S    
C21   O9    S    
