data_mof_unit_11278.cif
_audit_creation_date              2012-12-10T20:47:09-0500
_audit_creation_method            fapswitch 2.2
_symmetry_space_group_name_H-M    P1
_symmetry_Int_Tables_number       1
_space_group_crystal_system       triclinic
_cell_length_a                    10.64452
_cell_length_b                    8.945793
_cell_length_c                    8.100625
_cell_angle_alpha                 90.49171
_cell_angle_beta                  91.478775
_cell_angle_gamma                 88.809498
_cell_volume                      770.922927263

loop_
_atom_site_label
_atom_site_type_symbol
_atom_type_description
_atom_site_fract_x
_atom_site_fract_y
_atom_site_fract_z
_atom_type_partial_charge
C1    C     C_R   0.503428 0.217920 0.499537 0.920259
C2    C     C_R   0.059302 0.549736 0.643322 -0.070714
C3    C     C_R   0.123686 0.516773 0.496517 -0.068635
C4    C     C_R   0.873768 0.450301 0.515091 -0.088564
C5    C     C_R   0.061750 0.451138 0.360684 -0.223246
C6    C     C_R   0.935874 0.422053 0.368763 -0.240601
C7    C     C_1   0.507704 0.065031 0.498998 -0.224832
C8    C     C_1   0.507956 0.934633 0.500292 -0.230679
C9    C     C_3   0.130780 0.889336 0.711039 0.035759
C10   C     C_3   0.217492 0.994679 0.625238 -0.314172
C11   C     C_3   0.153426 0.145178 0.591022 -0.950060
C12   C     C_R   0.503673 0.781901 0.500446 0.953560
C13   C     C_3   0.853383 0.224160 0.848492 0.069725
C14   C     C_3   0.758088 0.112830 0.909327 -0.341070
C15   C     C_3   0.734531 0.131982 0.093588 -0.778556
C16   C     C_R   0.258682 0.513684 0.498369 0.910802
C17   C     C_R   0.739800 0.477381 0.503490 0.872969
C18   C     C_R   0.105933 0.645396 0.770265 0.516656
C19   C     C_R   0.896118 0.471750 0.824793 0.515796
C20   C     C_R   0.049444 0.648243 0.924559 -0.343475
C21   C     C_R   0.947056 0.559183 0.952192 -0.313137
C22   C     C_R   0.942076 0.486179 0.662031 -0.099196
H1    H     H_    0.110434 0.421647 0.248792 0.177758
H2    H     H_    0.217660 0.213534 0.519059 0.267158
H3    H     H_    0.132470 0.204293 0.708574 0.257685
H4    H     H_    0.942840 0.209335 0.921956 0.121935
H5    H     H_    0.871414 0.196774 0.716837 0.102305
H6    H     H_    0.667894 0.127702 0.838738 0.239802
H7    H     H_    0.794262 0.997254 0.886190 0.169592
H8    H     H_    0.823356 0.114404 0.166475 0.223771
H9    H     H_    0.665747 0.048443 0.132601 0.244273
H10   H     H_    0.695496 0.245517 0.119871 0.289979
H11   H     H_    0.886091 0.380111 0.260447 0.172816
H12   H     H_    0.084414 0.720860 0.022231 0.182164
H13   H     H_    0.904923 0.561276 0.071686 0.196088
H14   H     H_    0.104558 0.939491 0.831982 0.144122
H15   H     H_    0.044176 0.877399 0.631282 0.130103
H16   H     H_    0.302553 0.012069 0.704872 0.241706
H17   H     H_    0.245434 0.943340 0.505943 0.219859
H18   H     H_    0.064998 0.130706 0.517316 0.259785
N1    N     N_1   0.500000 0.500000 0.073640 -0.030786
N2    N     N_1   0.500000 0.500000 0.926360 -0.002325
O1    O     O_R   0.500000 0.285350 0.636850 -0.621063
O2    O     O_3   0.804224 0.371513 0.863949 -0.596274
O3    O     O_R   0.500000 0.714650 0.636850 -0.597323
O4    O     O_R   0.500000 0.285360 0.363100 -0.626061
O5    O     O_R   0.500000 0.714640 0.363100 -0.616900
O6    O     O_R   0.316770 0.500000 0.636900 -0.585697
O7    O     O_R   0.683230 0.500000 0.636900 -0.576406
O8    O     O_R   0.316780 0.500000 0.363150 -0.638015
O9    O     O_R   0.683220 0.500000 0.363150 -0.632791
O10   O     O_3   0.194450 0.750573 0.735966 -0.629971
Zn1   Zn    Zn3+2 0.500000 0.500000 0.682780 1.030179
Zn2   Zn    Zn3+2 0.500000 0.500000 0.317220 0.973945

loop_
_geom_bond_atom_site_label_1
_geom_bond_atom_site_label_2
_ccdc_geom_bond_type
C2    C22   A    
C9    H14   S    
C15   H9    S    
C21   H13   S    
O6    Zn1   S    
C2    C18   A    
C4    C22   A    
C9    C10   S    
O4    Zn2   S    
C5    H1    S    
C6    H11   S    
C8    C12   S    
C10   H16   S    
O9    Zn2   S    
C20   H12   S    
C16   O6    A    
C9    H15   S    
C2    C3    A    
O3    Zn1   S    
C7    C8    T    
C13   C14   S    
C20   C21   A    
N1    Zn2   S    
C10   H17   S    
C17   O9    A    
O8    Zn2   S    
C9    O10   S    
O5    Zn2   S    
O7    Zn1   S    
C4    C17   S    
C19   C21   A    
O1    Zn1   S    
C18   C20   A    
C12   O5    A    
N2    Zn1   S    
C5    C6    A    
C1    O4    A    
C13   H4    S    
C10   C11   S    
C11   H3    S    
C14   H7    S    
C18   O10   S    
C11   H18   S    
C11   H2    S    
C15   H10   S    
C19   C22   A    
C19   O2    S    
C15   H8    S    
C4    C6    A    
N1    N2    T    
C17   O7    A    
C14   C15   S    
C13   H5    S    
C14   H6    S    
C1    C7    S    
C1    O1    A    
C13   O2    S    
C3    C16   S    
C16   O8    A    
C12   O3    A    
C3    C5    A    
