data_mof_unit_15701.cif
_audit_creation_date              2012-12-10T19:04:44-0500
_audit_creation_method            fapswitch 2.2
_symmetry_space_group_name_H-M    P1
_symmetry_Int_Tables_number       1
_space_group_crystal_system       triclinic
_cell_length_a                    15.844606
_cell_length_b                    10.843278
_cell_length_c                    9.558078
_cell_angle_alpha                 89.437415
_cell_angle_beta                  90.0005
_cell_angle_gamma                 90.069306
_cell_volume                      1642.06881474

loop_
_atom_site_label
_atom_site_type_symbol
_atom_type_description
_atom_site_fract_x
_atom_site_fract_y
_atom_site_fract_z
_atom_type_partial_charge
C1    C     C_R   0.498370 0.262866 0.500602 0.822715
C2    C     C_3   0.082527 0.497486 0.500738 0.118870
C3    C     C_3   0.971692 0.604938 0.455653 0.429937
C4    C     C_3   0.916893 0.495429 0.500486 0.109055
C5    C     C_3   0.027951 0.518053 0.369620 -0.177913
C6    C     C_3   0.972085 0.407175 0.415312 -0.211117
C7    C     C_1   0.174306 0.498457 0.500499 -0.035924
C8    C     C_1   0.825260 0.495468 0.499927 0.007238
C9    C     C_R   0.516170 0.061578 0.617464 -0.099434
C10   C     C_R   0.492338 0.130404 0.501404 -0.132624
C11   C     C_R   0.458881 0.068436 0.385781 -0.328201
C12   C     C_R   0.339807 0.499924 0.499998 0.818032
C13   C     C_R   0.459894 0.937461 0.379931 0.437172
C14   C     C_R   0.492012 0.871085 0.497758 -0.133529
C15   C     C_R   0.513872 0.936088 0.617648 -0.079637
C16   C     C_3   0.580318 0.923679 0.728966 0.228212
C17   C     C_3   0.584243 0.065888 0.727047 0.272981
C18   C     C_R   0.564678 0.448632 0.074357 0.181586
C19   C     C_R   0.432166 0.542568 0.073831 -0.057766
C20   C     C_R   0.432329 0.543179 0.925183 -0.110040
C21   C     C_R   0.564466 0.447363 0.927018 0.245411
C22   C     C_3   0.655657 0.482578 0.921849 0.165319
C23   C     C_R   0.498574 0.737663 0.499151 0.872873
C24   C     C_3   0.655254 0.485223 0.080352 -0.506896
C25   C     C_R   0.660088 0.498973 0.499970 0.849421
C26   C     C_3   0.971613 0.474944 0.631373 -0.197316
C27   C     C_3   0.028280 0.386536 0.546244 -0.135209
C28   C     C_1   0.249967 0.499240 0.500163 -0.170692
C29   C     C_1   0.749714 0.496694 0.499713 -0.127738
C30   C     C_3   0.027503 0.585942 0.586137 -0.198843
Cu1   Cu    Cu3+1 0.500000 0.499980 0.640670 0.977684
Cu2   Cu    Cu3+1 0.500000 0.500020 0.359330 0.967619
H1    H     H_    0.053021 0.296335 0.583666 0.152430
H2    H     H_    0.560078 0.105404 0.826147 0.085970
H3    H     H_    0.378247 0.579335 0.128590 0.162837
H4    H     H_    0.378646 0.580843 0.869701 0.155846
H5    H     H_    0.666889 0.573998 0.872196 0.128721
H6    H     H_    0.694818 0.412869 0.130968 0.232094
H7    H     H_    0.664316 0.579574 0.122472 0.191073
H8    H     H_    0.947063 0.456985 0.738453 0.179064
H9    H     H_    0.947974 0.333695 0.345747 0.161909
H10   H     H_    0.052069 0.536650 0.262413 0.157267
H11   H     H_    0.051195 0.659863 0.655482 0.159005
H12   H     H_    0.433916 0.123390 0.300459 0.150841
H13   H     H_    0.553358 0.882909 0.826514 0.046710
N1    N     N_R   0.500530 0.500930 0.147930 -0.180760
N2    N     N_R   0.500530 0.500890 0.852020 -0.211497
O1    O     O_R   0.500000 0.319640 0.618810 -0.559270
O2    O     O_R   0.500010 0.319680 0.381230 -0.593716
O3    O     O_R   0.379070 0.499970 0.618770 -0.590331
O4    O     O_R   0.379080 0.500010 0.381190 -0.582358
O5    O     O_R   0.499990 0.680320 0.618770 -0.583921
O6    O     O_R   0.500000 0.680360 0.381190 -0.533976
O7    O     O_R   0.620920 0.499990 0.618810 -0.546732
O8    O     O_R   0.620930 0.500030 0.381230 -0.592640
O9    O     O_3   0.653589 0.864568 0.678573 -0.557781
C31   C     C_3   0.710590 0.846068 0.790453 0.086390
H14   H     H_    0.680850 0.792572 0.877453 0.115261
H15   H     H_    0.733300 0.935881 0.831391 0.194811
C32   C     C_3   0.786472 0.773808 0.738924 -0.730995
H16   H     H_    0.817204 0.823391 0.650462 0.276357
H17   H     H_    0.832883 0.762064 0.825054 0.207510
H18   H     H_    0.766075 0.681429 0.703558 0.251282
O10   O     O_3   0.665013 0.116636 0.692301 -0.520383
C33   C     C_3   0.687177 0.114513 0.548800 0.180625
H19   H     H_    0.659330 0.195273 0.494022 0.116993
H20   H     H_    0.667246 0.028455 0.495908 0.173027
C34   C     C_3   0.782556 0.125736 0.535682 -0.724545
H21   H     H_    0.813659 0.046945 0.589666 0.258234
H22   H     H_    0.800935 0.125805 0.423561 0.196973
H23   H     H_    0.804445 0.213111 0.583463 0.264083
Cl1   Cl    Cl    0.719976 0.361507 0.855223 -0.600702
Cl2   Cl    Cl    0.932901 0.750122 0.395505 -0.654521
O11   O     O_3   0.428359 0.870791 0.266598 -0.564812
C35   C     C_3   0.423903 0.939937 0.140513 0.074990
H24   H     H_    0.483614 0.991629 0.120320 0.132541
H25   H     H_    0.369167 0.003981 0.143578 0.151602
C36   C     C_3   0.410285 0.853349 0.018750 -0.804087
H26   H     H_    0.352035 0.798108 0.035436 0.246793
H27   H     H_    0.403622 0.907453 0.920111 0.194935
H28   H     H_    0.465376 0.790978 0.009232 0.245606

loop_
_geom_bond_atom_site_label_1
_geom_bond_atom_site_label_2
_ccdc_geom_bond_type
C5    H10   S    
C18   C21   A    
C2    C7    S    
Cu1   O5    S    
C4    C8    S    
C23   O5    A    
C19   N1    A    
C27   H1    S    
C26   C27   S    
C12   C28   S    
C32   H18   S    
C18   C24   S    
C8    C29   T    
C17   O10   S    
C5    C6    S    
C36   H27   S    
C31   H15   S    
C15   C16   S    
C24   H7    S    
O9    C31   S    
C32   H17   S    
Cu1   Cu2   S    
C34   H21   S    
C33   H20   S    
C6    H9    S    
C24   H6    S    
C2    C27   S    
C9    C10   A    
Cu2   O8    S    
Cu1   N2    S    
C13   C14   A    
C18   N1    A    
C22   Cl1   S    
C23   O6    A    
C25   C29   S    
O11   C35   S    
C25   O7    A    
C4    C6    S    
C36   H26   S    
C16   C17   S    
C31   C32   S    
C22   H5    S    
C7    C28   T    
C32   H16   S    
C14   C23   S    
C3    C30   S    
C35   H24   S    
C16   O9    S    
Cu2   O4    S    
C4    C26   S    
C6    C27   S    
C33   C34   S    
C11   H12   S    
C35   H25   S    
C9    C17   S    
C26   C30   S    
Cu1   O1    S    
C22   C24   S    
C30   H11   S    
C2    C5    S    
C17   H2    S    
Cu1   O3    S    
C3    C4    S    
Cu2   O6    S    
C12   O4    A    
Cu2   N1    S    
C1    C10   S    
C25   O8    A    
C3    C5    S    
C16   H13   S    
C12   O3    A    
C1    O1    A    
C2    C30   S    
O10   C33   S    
C19   C20   A    
C9    C15   A    
C19   H3    S    
C11   C13   A    
C36   H28   S    
C26   H8    S    
C31   H14   S    
C34   H23   S    
Cu1   O7    S    
C3    Cl2   S    
C35   C36   S    
Cu2   O2    S    
C20   N2    A    
C10   C11   A    
C20   H4    S    
C13   O11   S    
C34   H22   S    
C33   H19   S    
C14   C15   A    
C21   C22   S    
C1    O2    A    
C21   N2    A    
