data_mof_unit_32926.cif
_audit_creation_date              2012-12-11T15:42:49-0500
_audit_creation_method            fapswitch 2.2
_symmetry_space_group_name_H-M    P1
_symmetry_Int_Tables_number       1
_space_group_crystal_system       triclinic
_cell_length_a                    6.930606
_cell_length_b                    14.564001
_cell_length_c                    16.202838
_cell_angle_alpha                 90.562738
_cell_angle_beta                  89.886405
_cell_angle_gamma                 90.216798
_cell_volume                      1635.37789

loop_
_atom_site_label
_atom_site_type_symbol
_atom_type_description
_atom_site_fract_x
_atom_site_fract_y
_atom_site_fract_z
_atom_type_partial_charge
O1    O     O_R   0.505810 0.583360 0.413880 -0.523660
O2    O     O_R   0.175870 0.595480 0.585520 -0.553315
O3    O     O_R   0.005540 0.416640 0.586120 -0.549229
C1    C     C_R   0.344556 0.618699 0.613872 0.677011
O4    O     O_R   0.176100 0.594390 0.414490 -0.521549
O5    O     O_R   0.005770 0.415540 0.413870 -0.532158
C2    C     C_R   0.346472 0.615106 0.384577 0.748960
O6    O     O_R   0.505580 0.584460 0.586130 -0.532961
O7    O     O_3   0.339190 0.441320 0.500000 -0.355656
V1    V     V_3+5 0.064350 0.510890 0.500000 1.580074
O8    O     O_R   0.676050 0.404520 0.414480 -0.525816
C3    C     C_R   0.843380 0.383974 0.384055 0.718930
O9    O     O_R   0.675830 0.405610 0.585510 -0.505974
C4    C     C_R   0.844604 0.383674 0.613789 0.799152
V2    V     V_3+5 0.564340 0.489110 0.500000 1.624585
O10   O     O_3   0.839370 0.558680 0.500000 -0.348767
C5    C     C_2   0.717950 0.208545 0.785871 0.566165
C6    C     C_2   0.883861 0.182518 0.822942 -0.492692
H1    H     H_    0.020712 0.212701 0.805411 0.141952
C7    C     C_2   0.705355 0.278624 0.719525 0.563590
C8    C     C_2   0.859441 0.314709 0.680082 -0.493343
H2    H     H_    0.004225 0.293511 0.695800 0.141258
C9    C     C_R   0.028764 0.195359 0.241684 -0.113969
H3    H     H_    0.156153 0.152645 0.237883 0.132012
C10   C     C_R   0.012510 0.259149 0.306456 -0.118746
H4    H     H_    0.127712 0.263198 0.351352 0.165719
C11   C     C_R   0.849058 0.315747 0.314599 -0.118458
C12   C     C_R   0.698542 0.306260 0.254845 0.021944
C13   C     C_R   0.716635 0.240891 0.191013 -0.186076
H5    H     H_    0.601886 0.233874 0.145923 0.141483
C14   C     C_R   0.879804 0.184897 0.183976 -0.068829
C15   C     C_R   0.217532 0.759311 0.692447 -0.108559
C16   C     C_R   0.230727 0.820470 0.759940 -0.155442
H6    H     H_    0.125761 0.875158 0.766139 0.126446
C17   C     C_R   0.379551 0.813267 0.818216 -0.050233
C18   C     C_R   0.516560 0.743373 0.807950 -0.150207
H7    H     H_    0.632681 0.735977 0.851996 0.111294
C19   C     C_R   0.502130 0.680625 0.742006 -0.089900
H8    H     H_    0.606074 0.625489 0.737764 0.106865
C20   C     C_R   0.353723 0.687319 0.683122 -0.096519
C21   C     C_R   0.210231 0.744205 0.302336 -0.168299
H9    H     H_    0.085929 0.744333 0.342857 0.195386
C22   C     C_R   0.216812 0.808080 0.238300 0.622093
C23   C     C_R   0.378240 0.812779 0.185508 -0.163458
C24   C     C_R   0.530596 0.751623 0.197927 -0.273711
H10   H     H_    0.655282 0.753980 0.157421 0.168773
C25   C     C_R   0.525546 0.686755 0.261446 -0.066481
C26   C     C_R   0.362465 0.682434 0.315477 -0.189586
O11   O     O_R   0.230120 0.912300 0.917180 -0.549244
O12   O     O_R   0.559740 0.902430 0.088770 -0.544279
O13   O     O_R   0.729930 0.081310 0.089370 -0.546004
C27   C     C_R   0.390168 0.880897 0.117758 0.737529
O14   O     O_R   0.559840 0.901330 0.917750 -0.546789
O15   O     O_R   0.730030 0.080210 0.917120 -0.499323
C28   C     C_R   0.390892 0.879497 0.888566 0.694989
O16   O     O_R   0.230020 0.913400 0.089430 -0.510757
O17   O     O_3   0.396460 0.055470 0.003290 -0.360924
V3    V     V_3+5 0.671360 0.985960 0.003250 1.523304
O18   O     O_R   0.059740 0.091300 0.917690 -0.536791
C29   C     C_R   0.890912 0.113294 0.889419 0.827121
O19   O     O_R   0.059640 0.092400 0.088720 -0.544538
C30   C     C_R   0.890878 0.114891 0.117149 0.721858
V4    V     V_3+5 0.171350 0.007820 0.003190 1.538897
O20   O     O_3   0.896380 0.938200 0.003220 -0.378393
F1    F     F_    0.547166 0.170894 0.810065 -0.630742
F2    F     F_    0.066603 0.866754 0.229651 -0.684292
C31   C     C_2   0.693884 0.624389 0.266246 0.798269
O21   O     O_2   0.799875 0.627448 0.326167 -0.522208
O22   O     O_R   0.743012 0.567186 0.199792 -0.651345
H11   H     H_    0.649095 0.571642 0.152165 0.274421
F3    F     F_    0.524403 0.305197 0.697969 -0.638816
C32   C     C_2   0.523292 0.364347 0.252403 0.736408
O23   O     O_2   0.414936 0.369393 0.311734 -0.563481
O24   O     O_R   0.473242 0.407078 0.178647 -0.660186
H12   H     H_    0.348690 0.443080 0.183427 0.294755
C33   C     C_2   0.063972 0.775627 0.631177 0.821287
O25   O     O_2   0.082555 0.837729 0.581747 -0.513697
O26   O     O_R   0.895451 0.722831 0.630407 -0.627766
H13   H     H_    0.896006 0.674073 0.674537 0.240638

loop_
_geom_bond_atom_site_label_1
_geom_bond_atom_site_label_2
_ccdc_geom_bond_type
O11   V4    S    
C21   H9    S    
C17   C18   A    
C1    O6    A    
O15   C29   A    
C24   H10   S    
C4    C8    S    
C12   C13   A    
C33   O26   S    
O22   H11   S    
O5    C3    A    
C19   H8    S    
V2    O10   S    
C5    C7    S    
C6    H1    S    
O19   V4    S    
O8    V2    S    
C1    C20   S    
O12   C27   A    
C9    H3    S    
C7    F3    S    
O1    V2    S    
O7    V1    S    
C23   C27   S    
C24   C25   A    
O18   C29   A    
O9    C4    A    
C21   C22   A    
C14   C30   S    
C12   C32   S    
O13   C30   A    
C25   C31   S    
O17   V4    S    
O14   C28   A    
V3    O20   S    
O24   H12   S    
C3    C11   S    
C17   C28   S    
C31   O21   D    
O12   V3    S    
C33   O25   D    
C32   O24   S    
O4    C2    A    
O26   H13   S    
C10   H4    S    
O11   C28   A    
C31   O22   S    
C9    C14   A    
O2    C1    A    
C22   C23   A    
C15   C33   S    
C13   H5    S    
C25   C26   A    
O8    C3    A    
C5    C6    D    
O16   V4    S    
O13   V3    S    
O3    C4    A    
C6    C29   S    
O6    V2    S    
O9    V2    S    
O2    V1    S    
C15   C20   A    
C23   C24   A    
O15   V3    S    
C18   H7    S    
O1    C2    A    
O18   V4    S    
C32   O23   D    
O5    V1    S    
O14   V3    S    
C10   C11   A    
C5    F1    S    
C2    C26   S    
C18   C19   A    
O7    V2    S    
O4    V1    S    
C13   C14   A    
O3    V1    S    
V1    O10   S    
C15   C16   A    
C19   C20   A    
O17   V3    S    
C22   F2    S    
C16   C17   A    
C21   C26   A    
C16   H6    S    
C9    C10   A    
O19   C30   A    
V4    O20   S    
C7    C8    D    
C11   C12   A    
C8    H2    S    
C27   O16   A    
