data_mof_unit_10731.cif
_audit_creation_date              2012-12-10T17:17:56-0500
_audit_creation_method            fapswitch 2.2
_symmetry_space_group_name_H-M    P1
_symmetry_Int_Tables_number       1
_space_group_crystal_system       triclinic
_cell_length_a                    14.815563
_cell_length_b                    15.811672
_cell_length_c                    9.584189
_cell_angle_alpha                 90.005569
_cell_angle_beta                  87.443788
_cell_angle_gamma                 90.20946
_cell_volume                      2242.93176319

loop_
_atom_site_label
_atom_site_type_symbol
_atom_type_description
_atom_site_fract_x
_atom_site_fract_y
_atom_site_fract_z
_atom_type_partial_charge
C1    C     C_R   0.377517 0.884136 0.502736 0.783830
C2    C     C_R   0.379811 0.118366 0.503583 0.782414
C3    C     C_R   0.878461 0.383547 0.502271 0.781367
C4    C     C_R   0.882245 0.620430 0.503365 0.778666
C5    C     C_R   0.297151 0.229469 0.388574 -0.208370
C6    C     C_R   0.304185 0.764646 0.394679 -0.219013
C7    C     C_R   0.802741 0.734809 0.389428 -0.214684
C8    C     C_R   0.826958 0.245567 0.426091 -0.197620
C9    C     C_R   0.734994 0.794345 0.384303 -0.220560
C10   C     C_R   0.763713 0.181114 0.421986 -0.217610
C11   C     C_R   0.230804 0.290150 0.383012 -0.237106
C12   C     C_R   0.239407 0.702168 0.389985 -0.228026
C13   C     C_R   0.674001 0.804603 0.497873 -0.081091
C14   C     C_R   0.680242 0.189901 0.493300 -0.062052
C15   C     C_R   0.170880 0.302464 0.497119 -0.086532
C16   C     C_R   0.172199 0.696134 0.495864 -0.074034
C17   C     C_R   0.665404 0.997010 0.134541 -0.156076
C18   C     C_R   0.165377 0.502498 0.134582 -0.162961
C19   C     C_R   0.746929 0.994042 0.057601 -0.229111
C20   C     C_R   0.246912 0.505250 0.057654 -0.231955
C21   C     C_R   0.747589 0.994001 0.913670 -0.203348
C22   C     C_R   0.247507 0.505756 0.913784 -0.204322
C23   C     C_R   0.666751 0.996997 0.845781 -0.120399
C24   C     C_R   0.166709 0.502739 0.845840 -0.116801
C25   C     C_R   0.581814 0.998114 0.920011 0.202070
C26   C     C_R   0.081796 0.501562 0.920053 0.188543
C27   C     C_R   0.581534 0.998113 0.069770 0.199293
C28   C     C_R   0.081518 0.501554 0.069784 0.189221
C29   C     C_R   0.422611 0.003350 0.079379 -0.066936
C30   C     C_R   0.922444 0.496547 0.079343 -0.057939
C31   C     C_R   0.618926 0.118446 0.497740 0.768494
C32   C     C_R   0.613834 0.877315 0.498701 0.777739
C33   C     C_R   0.114478 0.621993 0.498402 0.776811
C34   C     C_R   0.113327 0.377030 0.498558 0.780396
C35   C     C_R   0.422655 0.003665 0.931598 -0.103364
C36   C     C_R   0.922353 0.497126 0.931334 -0.090582
C37   C     C_R   0.267867 0.172369 0.771511 -0.281954
C38   C     C_R   0.233943 0.868233 0.736336 -0.257690
C39   C     C_R   0.781365 0.684435 0.772528 -0.294624
C40   C     C_R   0.702795 0.399034 0.663941 -0.267008
C41   C     C_R   0.207587 0.190758 0.886086 0.146578
C42   C     C_R   0.167766 0.858703 0.844618 0.194657
C43   C     C_R   0.722093 0.701803 0.888030 0.166648
C44   C     C_R   0.616029 0.408807 0.728167 0.186157
C45   C     C_R   0.634732 0.733035 0.864562 0.196353
C46   C     C_R   0.546205 0.352085 0.694817 0.189123
C47   C     C_R   0.124127 0.229535 0.860568 0.199955
C48   C     C_R   0.091585 0.807541 0.822642 0.188855
C49   C     C_R   0.614506 0.755307 0.728554 -0.230604
C50   C     C_R   0.568526 0.279947 0.616961 -0.243632
C51   C     C_R   0.107097 0.253371 0.724357 -0.229747
C52   C     C_R   0.090642 0.759082 0.700672 -0.239520
C53   C     C_R   0.681318 0.754498 0.619042 0.056363
C54   C     C_R   0.657452 0.265288 0.564624 0.070357
C55   C     C_R   0.175314 0.251001 0.617149 0.055946
C56   C     C_R   0.165874 0.756642 0.604433 0.066575
C57   C     C_R   0.251847 0.200173 0.633555 0.077070
C58   C     C_R   0.235890 0.816459 0.616096 0.059927
C59   C     C_R   0.760034 0.706791 0.634563 0.068871
C60   C     C_R   0.723955 0.328401 0.578612 0.056985
C61   C     C_R   0.309752 0.184089 0.511896 -0.103952
C62   C     C_R   0.304962 0.821056 0.507309 -0.088541
C63   C     C_R   0.815636 0.689112 0.512020 -0.097578
C64   C     C_R   0.808996 0.318182 0.506014 -0.080001
Cu1   Cu    Cu3+1 0.499990 1.000000 0.640660 0.913868
Cu2   Cu    Cu3+1 0.999990 0.500000 0.640660 0.909777
Cu3   Cu    Cu3+1 0.500010 1.000000 0.359340 0.923008
Cu4   Cu    Cu3+1 0.000010 0.500000 0.359340 0.920532
H1    H     H_    0.811345 0.992718 0.853845 0.146083
H2    H     H_    0.311171 0.507929 0.854069 0.151744
H3    H     H_    0.547357 0.778592 0.710803 0.175821
H4    H     H_    0.514940 0.235975 0.594954 0.151618
H5    H     H_    0.041454 0.279652 0.705036 0.175339
H6    H     H_    0.030468 0.722551 0.682576 0.164179
H7    H     H_    0.671831 0.999253 0.244376 0.195557
H8    H     H_    0.171776 0.500804 0.244439 0.199346
N1    N     N_R   0.501200 1.000000 0.147910 -0.197747
N2    N     N_R   0.001200 0.500000 0.147910 -0.197994
N3    N     N_R   0.501270 1.000000 0.852040 -0.199030
N4    N     N_R   0.001270 0.500000 0.852040 -0.202500
O1    O     O_R   0.409820 0.909830 0.618810 -0.594098
O2    O     O_R   0.409820 0.090170 0.618810 -0.598151
O3    O     O_R   0.909820 0.409830 0.618810 -0.588121
O4    O     O_R   0.909820 0.590170 0.618810 -0.602701
O5    O     O_R   0.409840 0.909830 0.381240 -0.578980
O6    O     O_R   0.409840 0.090170 0.381240 -0.576576
O7    O     O_R   0.909840 0.409830 0.381240 -0.572789
O8    O     O_R   0.909840 0.590170 0.381240 -0.577132
O9    O     O_R   0.590170 0.090170 0.618760 -0.589572
O10   O     O_R   0.590170 0.909830 0.618760 -0.604229
O11   O     O_R   0.090170 0.590170 0.618760 -0.598972
O12   O     O_R   0.090170 0.409830 0.618760 -0.602826
O13   O     O_R   0.590190 0.090180 0.381190 -0.589467
O14   O     O_R   0.590190 0.909820 0.381190 -0.601446
O15   O     O_R   0.090190 0.590180 0.381190 -0.595083
O16   O     O_R   0.090190 0.409820 0.381190 -0.600615
H9    H     H_    0.341475 0.220593 0.296795 0.168689
H10   H     H_    0.356249 0.766784 0.311597 0.164935
H11   H     H_    0.847160 0.726238 0.297906 0.161029
H12   H     H_    0.891382 0.237878 0.369371 0.145772
H13   H     H_    0.675375 0.999317 0.735261 0.196200
H14   H     H_    0.175335 0.501026 0.735291 0.199004
H15   H     H_    0.359354 0.007633 0.881210 0.129956
H16   H     H_    0.858750 0.494733 0.880302 0.137334
H17   H     H_    0.330724 0.144633 0.797064 0.183917
H18   H     H_    0.283865 0.915703 0.751931 0.176184
H19   H     H_    0.847162 0.661729 0.796130 0.184965
H20   H     H_    0.753692 0.445902 0.684917 0.158341
C65   C     C_3   0.237682 0.174595 0.033239 -0.411775
C66   C     C_3   0.176531 0.112666 0.117317 -0.825786
H21   H     H_    0.130057 0.078341 0.049576 0.246220
H22   H     H_    0.217798 0.065770 0.171827 0.236188
H23   H     H_    0.135711 0.146512 0.199414 0.251594
H24   H     H_    0.307754 0.149794 0.030658 0.192266
H25   H     H_    0.240551 0.236012 0.088743 0.193537
C67   C     C_3   0.183969 0.901665 0.982125 -0.443973
C68   C     C_3   0.254248 0.853064 0.062001 -0.820617
H26   H     H_    0.233557 0.786154 0.077927 0.259486
H27   H     H_    0.320631 0.853757 0.003565 0.255361
H28   H     H_    0.261918 0.882752 0.165727 0.246888
H29   H     H_    0.209536 0.966503 0.961116 0.198768
H30   H     H_    0.121838 0.908023 0.049651 0.212442
C69   C     C_3   0.756731 0.691681 0.033058 -0.422665
C70   C     C_3   0.717375 0.614024 0.107261 -0.845054
H31   H     H_    0.643055 0.617671 0.122412 0.262821
H32   H     H_    0.735507 0.557679 0.044375 0.247810
H33   H     H_    0.746527 0.607128 0.211151 0.256109
H34   H     H_    0.831253 0.684609 0.028130 0.203323
H35   H     H_    0.742574 0.749664 0.094571 0.197742
C71   C     C_3   0.603600 0.472115 0.844992 -0.404679
C72   C     C_3   0.624557 0.429619 0.983294 -0.833639
H36   H     H_    0.590342 0.367353 0.994946 0.266689
H37   H     H_    0.698375 0.418627 0.987900 0.243052
H38   H     H_    0.601220 0.470079 0.072180 0.237612
H39   H     H_    0.649461 0.527183 0.826946 0.209933
H40   H     H_    0.534111 0.497745 0.851661 0.200500
C73   C     C_3   0.564427 0.752644 0.980208 -0.387844
C74   C     C_3   0.484140 0.691859 0.977539 -0.866431
H41   H     H_    0.450208 0.696507 0.876836 0.253877
H42   H     H_    0.506690 0.625814 0.992703 0.250023
H43   H     H_    0.434246 0.708129 0.063179 0.244185
H44   H     H_    0.591986 0.751170 0.085533 0.215248
H45   H     H_    0.539509 0.818180 0.966389 0.205247
C75   C     C_3   0.446990 0.368494 0.731163 -0.404531
C76   C     C_3   0.416799 0.335566 0.875576 -0.834019
H46   H     H_    0.442462 0.270542 0.891955 0.256199
H47   H     H_    0.440002 0.378260 0.958363 0.251922
H48   H     H_    0.341857 0.333940 0.884793 0.249448
H49   H     H_    0.431446 0.436750 0.721832 0.177613
H50   H     H_    0.404832 0.336828 0.653253 0.204330
C77   C     C_3   0.055386 0.255814 0.974447 -0.381189
C78   C     C_3   0.971187 0.199717 0.976140 -0.833522
H51   H     H_    0.989069 0.132512 0.992537 0.245248
H52   H     H_    0.923511 0.219785 0.062463 0.246376
H53   H     H_    0.936577 0.205498 0.876165 0.251680
H54   H     H_    0.083494 0.256558 0.079256 0.215158
H55   H     H_    0.034667 0.322174 0.955735 0.205026
C79   C     C_3   0.010435 0.803036 0.924609 -0.443364
C80   C     C_3   0.025820 0.741336 0.043674 -0.779370
H56   H     H_    0.040370 0.677289 0.001304 0.257731
H57   H     H_    0.082230 0.762185 0.107290 0.259761
H58   H     H_    0.964487 0.738039 0.113875 0.222436
H59   H     H_    0.992755 0.866671 0.966054 0.186750
H60   H     H_    0.949826 0.781448 0.870097 0.194824
H61   H     H_    0.731371 0.833757 0.292384 0.149426
H62   H     H_    0.780346 0.123702 0.364751 0.133188
H63   H     H_    0.227840 0.329064 0.290308 0.154216
H64   H     H_    0.243766 0.656576 0.305514 0.154747
H65   H     H_    0.359360 0.006149 0.139247 0.148112
H66   H     H_    0.859253 0.492441 0.139513 0.147155
H67   H     H_    0.810091 0.992791 0.110263 0.143275
H68   H     H_    0.310112 0.506540 0.110233 0.147827

loop_
_geom_bond_atom_site_label_1
_geom_bond_atom_site_label_2
_ccdc_geom_bond_type
C58   C62   A    
C32   O14   A    
C73   H44   S    
Cu1   N3    S    
C43   C69   S    
C13   C32   S    
Cu2   Cu4   S    
C71   H39   S    
Cu3   N1    S    
C14   C31   S    
C72   H38   S    
C1    C62   S    
C76   H46   S    
C53   C59   A    
C69   C70   S    
C54   C60   A    
C3    C64   S    
Cu1   O9    S    
C4    C63   S    
Cu4   O16   S    
C7    H11   S    
C40   C60   A    
C77   H55   S    
C19   C21   A    
C34   O16   A    
C38   C42   A    
C52   H6    S    
C68   H27   S    
C6    C12   A    
C1    O1    A    
C67   C68   S    
C18   C20   A    
C35   N3    A    
C50   H4    S    
C66   H21   S    
C30   H66   S    
C9    C13   A    
Cu2   O3    S    
C38   C58   A    
C11   C15   A    
C32   O10   A    
C12   C16   A    
Cu1   Cu3   S    
Cu3   O14   S    
C75   H50   S    
C77   C78   S    
C80   H57   S    
C28   N2    A    
C15   C34   S    
C24   H14   S    
C2    C61   S    
C79   H60   S    
C40   H20   S    
C73   H45   S    
C19   H67   S    
C69   H35   S    
C1    O5    A    
C33   O15   A    
C26   C28   A    
C76   H47   S    
C44   C46   A    
C60   C64   A    
C13   C53   A    
Cu4   N2    S    
Cu1   O10   S    
Cu3   O5    S    
Cu4   O15   S    
C67   H29   S    
C3    O7    A    
C11   H63   S    
Cu4   O7    S    
C18   C28   A    
C10   C14   A    
C68   H28   S    
Cu2   O12   S    
C31   O9    A    
C31   O13   A    
C37   C57   A    
C48   C79   S    
C26   N4    A    
C21   H1    S    
C15   C55   A    
C38   H18   S    
C42   C48   A    
C39   H19   S    
C16   C56   A    
C37   H17   S    
C75   H49   S    
C47   C51   A    
C16   C33   S    
Cu1   O1    S    
C80   H56   S    
C4    O4    A    
C78   H53   S    
C45   C49   A    
C10   H62   S    
C39   C59   A    
C45   C73   S    
C41   C47   A    
C80   H58   S    
C5    C61   A    
C50   C54   A    
C77   H54   S    
C57   C61   A    
C43   C45   A    
C66   H23   S    
C7    C63   A    
C67   H30   S    
C65   H24   S    
C8    C64   A    
C70   H33   S    
C4    O8    A    
C79   H59   S    
C42   C67   S    
C20   H68   S    
C47   C77   S    
C55   C57   A    
C36   N4    A    
C79   C80   S    
Cu4   O8    S    
C22   C24   A    
C2    O2    A    
C40   C44   A    
C72   H36   S    
C6    H10   S    
C76   H48   S    
C70   H32   S    
C78   H52   S    
C7    C9    A    
C46   C50   A    
Cu3   O6    S    
C18   H8    S    
C14   C54   A    
C25   N3    A    
C59   C63   A    
C71   H40   S    
C51   H5    S    
C20   C22   A    
C75   C76   S    
C72   H37   S    
C74   H43   S    
C12   H64   S    
C46   C75   S    
C5    C11   A    
Cu2   O11   S    
C74   H42   S    
C25   C27   A    
Cu2   N4    S    
C73   C74   S    
C29   C35   A    
C35   H15   S    
C30   C36   A    
C36   H16   S    
C6    C62   A    
C21   C23   A    
C71   C72   S    
C8    H12   S    
C65   C66   S    
C3    O3    A    
C24   C26   A    
Cu1   O2    S    
C23   H13   S    
C49   C53   A    
C34   O12   A    
C9    H61   S    
C17   C19   A    
C56   C58   A    
C2    O6    A    
C51   C55   A    
C23   C25   A    
C37   C41   A    
C66   H22   S    
C74   H41   S    
C65   H25   S    
Cu2   O4    S    
C30   N2    A    
C5    H9    S    
C48   C52   A    
C29   N1    A    
C78   H51   S    
C39   C43   A    
C8    C10   A    
C49   H3    S    
C69   H34   S    
Cu3   O13   S    
C27   N1    A    
C41   C65   S    
C29   H65   S    
C68   H26   S    
C44   C71   S    
C22   H2    S    
C17   C27   A    
C52   C56   A    
C17   H7    S    
C70   H31   S    
C33   O11   A    
