data_mof_unit_46856.cif
_audit_creation_date              2012-12-10T16:58:27-0500
_audit_creation_method            fapswitch 2.2
_symmetry_space_group_name_H-M    P1
_symmetry_Int_Tables_number       1
_space_group_crystal_system       triclinic
_cell_length_a                    15.865778
_cell_length_b                    10.905694
_cell_length_c                    9.865636
_cell_angle_alpha                 91.102438
_cell_angle_beta                  89.357276
_cell_angle_gamma                 92.76875
_cell_volume                      1704.62575658

loop_
_atom_site_label
_atom_site_type_symbol
_atom_type_description
_atom_site_fract_x
_atom_site_fract_y
_atom_site_fract_z
_atom_type_partial_charge
C1    C     C_R   0.500199 0.265647 0.498610 0.872764
C2    C     C_3   0.083545 0.500320 0.499202 -0.248870
C3    C     C_3   0.975062 0.613170 0.536286 0.319374
C4    C     C_3   0.916571 0.501222 0.497591 -0.167796
C5    C     C_3   0.031871 0.585435 0.410626 0.196381
C6    C     C_3   0.972495 0.473569 0.373019 0.293054
C7    C     C_1   0.175194 0.498996 0.501209 0.181678
C8    C     C_1   0.824871 0.500926 0.497458 0.178532
C9    C     C_2   0.511683 0.931101 0.389896 -0.253850
C10   C     C_2   0.511895 0.867165 0.504486 -0.372424
C11   C     C_2   0.524056 0.066084 0.388917 0.528065
C12   C     C_R   0.340307 0.499330 0.500583 0.809482
C13   C     C_2   0.497070 0.132496 0.496105 -0.367591
C14   C     C_2   0.457475 0.421362 0.923557 0.031287
C15   C     C_2   0.446038 0.435766 0.076282 0.672565
C16   C     C_R   0.502376 0.734388 0.501109 0.843112
C17   C     C_R   0.659696 0.500364 0.499365 0.760373
C18   C     C_3   0.967465 0.416147 0.585615 -0.296736
C19   C     C_3   0.024152 0.390046 0.460708 0.345036
C20   C     C_1   0.250670 0.498876 0.501661 -0.103198
C21   C     C_1   0.749353 0.500671 0.497935 -0.123889
C22   C     C_3   0.026703 0.528168 0.622822 0.426087
Cu1   Cu    Cu3+1 0.500020 0.500020 0.638630 0.987158
Cu2   Cu    Cu3+1 0.499980 0.499980 0.361370 1.060608
H1    H     H_    0.470318 0.089046 0.585772 0.121232
H2    H     H_    0.428075 0.340152 0.875448 0.086830
H3    H     H_    0.940401 0.347075 0.657165 0.216238
H4    H     H_    0.503714 0.883906 0.292650 0.181934
H5    H     H_    0.523415 0.911473 0.602346 0.155067
N1    N     N_2   0.499090 0.498660 0.846910 0.006123
N2    N     N_2   0.499070 0.498630 0.153040 -0.008285
O1    O     O_R   0.500010 0.321960 0.617040 -0.605169
O2    O     O_R   0.499990 0.321920 0.382900 -0.484967
O3    O     O_R   0.379090 0.500010 0.617050 -0.580490
O4    O     O_R   0.379060 0.499970 0.382910 -0.534951
O5    O     O_R   0.500010 0.678080 0.617100 -0.572582
O6    O     O_R   0.499990 0.678040 0.382960 -0.614881
O7    O     O_R   0.620940 0.500030 0.617090 -0.606738
O8    O     O_R   0.620910 0.499990 0.382950 -0.554903
S1    S     S_3+6 0.057754 0.241367 0.413572 0.072209
O9    O     O_2   0.111759 0.250364 0.287747 -0.237066
O10   O     O_2   0.107955 0.192137 0.526935 -0.283232
O11   O     O_3   0.972801 0.146969 0.383968 -0.493335
H6    H     H_    0.996023 0.069070 0.350848 0.374877
O12   O     O_3   0.514572 0.613253 0.897567 -0.495286
C23   C     C_3   0.597607 0.653114 0.856136 0.018688
H7    H     H_    0.606939 0.676107 0.750339 0.160910
H8    H     H_    0.644897 0.584950 0.880487 0.163550
H9    H     H_    0.614215 0.742465 0.906666 0.065788
O13   O     O_3   0.378962 0.372944 0.139557 -0.592891
C24   C     C_3   0.302200 0.404519 0.081695 -0.230461
H10   H     H_    0.292384 0.357392 0.981885 0.156023
H11   H     H_    0.298335 0.505753 0.071981 0.169175
H12   H     H_    0.249702 0.372946 0.149633 0.256950
O14   O     O_3   0.577607 0.522337 0.103067 -0.493348
C25   C     C_3   0.604562 0.643287 0.146172 -0.008771
H13   H     H_    0.621230 0.656532 0.252046 0.164338
H14   H     H_    0.557250 0.711630 0.122569 0.127092
H15   H     H_    0.665601 0.668367 0.096012 0.105880
S2    S     S_3+6 0.930934 0.434876 0.209247 0.114621
O15   O     O_2   0.872859 0.322362 0.218744 -0.224664
O16   O     O_2   0.881850 0.539485 0.159901 -0.271919
O17   O     O_3   0.010096 0.406374 0.099959 -0.434534
H16   H     H_    0.011825 0.474877 0.035372 0.400313
S3    S     S_3+6 0.081805 0.683018 0.286226 0.007490
O18   O     O_2   0.139544 0.778081 0.354037 -0.304615
O19   O     O_2   0.132867 0.606142 0.191102 -0.287821
O20   O     O_3   0.008206 0.752265 0.197934 -0.508599
H17   H     H_    0.039868 0.795091 0.124253 0.376302
O21   O     O_3   0.938004 0.719933 0.588268 -0.578241
C26   C     C_3   0.981656 0.826410 0.542197 -0.174503
H18   H     H_    0.968580 0.840276 0.433593 0.225326
H19   H     H_    0.050402 0.825079 0.561504 0.177138
H20   H     H_    0.957869 0.906541 0.599158 0.192082
O22   O     O_3   0.055011 0.544943 0.757432 -0.544196
C27   C     C_3   0.095855 0.661518 0.774812 -0.210098
H21   H     H_    0.048601 0.732585 0.788572 0.197918
H22   H     H_    0.140341 0.685275 0.690284 0.140543
H23   H     H_    0.133351 0.661399 0.869042 0.202920
O23   O     O_3   0.554409 0.125521 0.273149 -0.542594
C28   C     C_3   0.625877 0.068692 0.219405 -0.242366
H24   H     H_    0.606935 0.984425 0.160084 0.135567
H25   H     H_    0.671607 0.047677 0.299675 0.160462
H26   H     H_    0.658949 0.133048 0.148620 0.216718

loop_
_geom_bond_atom_site_label_1
_geom_bond_atom_site_label_2
_ccdc_geom_bond_type
O14   C25   S    
N1    O12   S    
C2    C7    S    
C27   H23   S    
C4    C8    S    
C28   H24   S    
C1    O2    A    
O12   C23   S    
C6    C19   S    
C23   H9    S    
S2    O17   S    
C27   H22   S    
C5    C6    S    
Cu2   O8    S    
C25   H13   S    
S2    O16   D    
C18   C19   S    
C17   O8    A    
C15   O13   S    
S1    O11   S    
O20   H17   S    
S3    O19   D    
C2    C22   S    
Cu1   Cu2   S    
O21   C26   S    
C9    C10   D    
C16   O6    A    
C4    C18   S    
S3    O20   S    
S1    O10   D    
C13   H1    S    
C22   O22   S    
C14   N1    D    
C28   H25   S    
Cu2   O6    S    
C23   H8    S    
Cu2   O4    S    
C24   H10   S    
Cu1   N1    S    
C6    S2    S    
C3    O21   S    
C27   H21   S    
C5    S3    S    
C11   O23   S    
C26   H19   S    
C1    O1    A    
C17   C21   S    
S2    O15   D    
C24   H11   S    
O22   C27   S    
Cu1   O3    S    
C12   C20   S    
O13   C24   S    
C14   H2    S    
C12   O4    A    
C9    C11   S    
C4    C6    S    
S1    O9    D    
C7    C20   T    
O11   H6    S    
C2    C5    S    
C1    C13   S    
C12   O3    A    
C3    C4    S    
C28   H26   S    
C23   H7    S    
C2    C19   S    
C18   C22   S    
C18   H3    S    
O23   C28   S    
C3    C5    S    
C8    C21   T    
C26   H20   S    
C15   N2    D    
Cu1   O7    S    
Cu2   O2    S    
C25   H15   S    
C24   H12   S    
Cu1   O1    S    
Cu2   N2    S    
C26   H18   S    
C10   C16   S    
C16   O5    A    
C11   C13   D    
C10   H5    S    
C25   H14   S    
C17   O7    A    
S3    O18   D    
C19   S1    S    
O17   H16   S    
Cu1   O5    S    
C14   C15   S    
C3    C22   S    
N2    O14   S    
C9    H4    S    
