data_mof_unit_48669.cif
_audit_creation_date              2012-12-10T17:03:01-0500
_audit_creation_method            fapswitch 2.2
_symmetry_space_group_name_H-M    P1
_symmetry_Int_Tables_number       1
_space_group_crystal_system       triclinic
_cell_length_a                    9.813774
_cell_length_b                    11.03006
_cell_length_c                    13.408881
_cell_angle_alpha                 93.960706
_cell_angle_beta                  82.661776
_cell_angle_gamma                 110.602055
_cell_volume                      1347.05582896

loop_
_atom_site_label
_atom_site_type_symbol
_atom_type_description
_atom_site_fract_x
_atom_site_fract_y
_atom_site_fract_z
_atom_type_partial_charge
C1    C     C_R   0.556806 0.745426 0.503494 0.732786
C2    C     C_R   0.433771 0.416768 0.964545 -0.125413
C3    C     C_R   0.476462 0.420041 0.859462 -0.233724
C4    C     C_R   0.544520 0.454179 0.031319 -0.130891
C5    C     C_R   0.689896 0.463426 0.994354 -0.376199
C6    C     C_R   0.726504 0.448788 0.890717 0.448541
C7    C     C_R   0.618590 0.417892 0.825677 0.570509
C8    C     C_R   0.516981 0.489644 0.132802 0.581559
C9    C     C_R   0.759480 0.501994 0.164109 0.489851
C10   C     C_R   0.373004 0.419141 0.792823 -0.270083
C11   C     C_2   0.588736 0.884300 0.497765 0.391339
C12   C     C_R   0.420876 0.468129 0.688181 0.868592
C13   C     C_2   0.498816 0.930779 0.457107 0.260793
C14   C     C_2   0.416927 0.116261 0.480474 0.303734
C15   C     C_2   0.527751 0.070424 0.462328 0.457483
C16   C     C_2   0.921825 0.489446 0.491908 0.770936
C17   C     C_2   0.080513 0.516135 0.502830 0.655710
C18   C     C_R   0.445286 0.254808 0.490281 0.734863
C19   C     C_R   0.576777 0.511176 0.309353 0.864765
C20   C     C_R   0.795567 0.485777 0.061991 0.615342
C21   C     C_R   0.619815 0.504121 0.200559 -0.435689
C22   C     C_R   0.222420 0.370602 0.828425 0.235661
C23   C     C_R   0.178470 0.341937 0.929861 0.544376
C24   C     C_R   0.281458 0.363636 0.998002 0.414835
Cu1   Cu    Cu3+1 0.362000 0.479240 0.482530 1.124281
Cu2   Cu    Cu3+1 0.638000 0.520760 0.517470 1.183463
N1    N     N_2   0.845330 0.551960 0.543750 0.041632
N2    N     N_2   0.154690 0.448120 0.456210 0.033472
O1    O     O_R   0.426290 0.668220 0.490680 -0.529615
O2    O     O_R   0.659360 0.703290 0.520190 -0.514665
O3    O     O_R   0.326580 0.473880 0.629020 -0.555134
O4    O     O_R   0.559660 0.508940 0.658530 -0.526100
O5    O     O_R   0.340640 0.296710 0.479810 -0.554532
O6    O     O_R   0.573710 0.331780 0.509320 -0.496384
O7    O     O_R   0.440340 0.491060 0.341470 -0.525218
O8    O     O_R   0.673420 0.526120 0.370980 -0.514408
F1    F     F_    0.863076 0.517078 0.226696 -0.558235
O9    O     O_3   0.371374 0.847854 0.420639 -0.515942
C25   C     C_3   0.387201 0.855651 0.314954 0.030612
H1    H     H_    0.485568 0.833283 0.280517 0.134405
H2    H     H_    0.396069 0.953633 0.292285 0.138673
C26   C     C_3   0.252904 0.756648 0.274307 -0.510983
H3    H     H_    0.152865 0.777241 0.306126 0.251584
H4    H     H_    0.263978 0.761200 0.191064 0.199020
H5    H     H_    0.241692 0.657562 0.295094 0.283838
F2    F     F_    0.275004 0.034596 0.490516 -0.615637
F3    F     F_    0.712462 0.966051 0.534459 -0.622599
F4    F     F_    0.149543 0.614356 0.565377 -0.628573
F5    F     F_    0.854495 0.395244 0.425880 -0.539906
F6    F     F_    0.086937 0.349008 0.396156 -0.495859
F7    F     F_    0.917693 0.661381 0.592055 -0.542129
O10   O     O_3   0.869744 0.468930 0.850966 -0.467752
C27   C     C_3   0.940474 0.603579 0.836004 0.138064
H6    H     H_    0.921835 0.663097 0.903557 0.106687
H7    H     H_    0.899713 0.633233 0.771690 0.202406
C28   C     C_3   0.104912 0.635100 0.814101 -0.554761
H8    H     H_    0.129725 0.579685 0.746690 0.304694
H9    H     H_    0.159720 0.740150 0.800067 0.186594
H10   H     H_    0.148543 0.610215 0.879230 0.244320
F8    F     F_    0.933230 0.487247 0.030813 -0.549427
F9    F     F_    0.397491 0.523301 0.163890 -0.597915
O11   O     O_3   0.116060 0.346830 0.764060 -0.515618
C29   C     C_3   0.082698 0.218331 0.725907 0.052854
H11   H     H_    0.043039 0.147579 0.787796 0.162228
H12   H     H_    0.180402 0.205152 0.680975 0.149718
C30   C     C_3   0.962040 0.188621 0.657749 -0.457770
H13   H     H_    0.998126 0.256307 0.594398 0.246818
H14   H     H_    0.936630 0.088070 0.627011 0.259146
H15   H     H_    0.861766 0.198348 0.700826 0.264981
O12   O     O_3   0.230568 0.321201 0.095038 -0.438953
C31   C     C_3   0.239776 0.197233 0.102596 0.027530
H16   H     H_    0.352679 0.197048 0.078453 0.113670
H17   H     H_    0.161697 0.124727 0.055929 0.149016
C32   C     C_3   0.200044 0.156657 0.211713 -0.535254
H18   H     H_    0.086953 0.153511 0.238258 0.300340
H19   H     H_    0.206189 0.058987 0.218585 0.160264
H20   H     H_    0.277630 0.226741 0.259730 0.257858
F10   F     F_    0.033632 0.289096 0.962211 -0.558864
F11   F     F_    0.649519 0.367846 0.733763 -0.635506
F12   F     F_    0.669625 0.151730 0.450237 -0.560105

loop_
_geom_bond_atom_site_label_1
_geom_bond_atom_site_label_2
_ccdc_geom_bond_type
Cu1   O3    S    
C30   H14   S    
C29   H12   S    
Cu2   O4    S    
C14   C18   S    
C11   F3    S    
C1    C11   S    
C17   F4    S    
C4    C8    A    
C24   O12   S    
C25   H2    S    
C5    C20   A    
C27   H6    S    
C10   C22   A    
Cu1   N2    S    
Cu2   N1    S    
C32   H19   S    
C19   C21   S    
C3    C7    A    
C19   O8    A    
C5    C6    A    
C30   H15   S    
C28   H8    S    
N2    F6    S    
Cu2   O6    S    
C16   C17   S    
C32   H20   S    
C23   C24   A    
O12   C31   S    
C20   F8    S    
C8    F9    S    
C16   N1    D    
C30   H13   S    
C29   C30   S    
C12   O4    A    
C26   H4    S    
C9    F1    S    
N1    F7    S    
C25   C26   S    
C27   H7    S    
Cu1   O1    S    
C32   H18   S    
C16   F5    S    
C14   F2    S    
C25   H1    S    
C31   H17   S    
Cu1   Cu2   S    
C26   H5    S    
C2    C4    A    
O11   C29   S    
C22   O11   S    
C9    C20   A    
C15   F12   S    
C1    O1    A    
C8    C21   A    
C18   O6    A    
C13   O9    S    
C10   C12   S    
Cu1   O7    S    
Cu2   O8    S    
Cu2   O2    S    
C13   C15   S    
C12   O3    A    
C2    C24   A    
C26   H3    S    
O10   C27   S    
C7    F11   S    
C27   C28   S    
C14   C15   D    
C17   N2    D    
C4    C5    A    
C31   C32   S    
C6    C7    A    
C28   H10   S    
C2    C3    A    
C31   H16   S    
C3    C10   A    
C19   O7    A    
C11   C13   D    
C9    C21   A    
O9    C25   S    
C1    O2    A    
C28   H9    S    
C23   F10   S    
C18   O5    A    
C29   H11   S    
C22   C23   A    
C6    O10   S    
Cu1   O5    S    
