data_mof_unit_17577.cif
_audit_creation_date              2012-12-10T18:45:08-0500
_audit_creation_method            fapswitch 2.2
_symmetry_space_group_name_H-M    P1
_symmetry_Int_Tables_number       1
_space_group_crystal_system       triclinic
_cell_length_a                    10.716956
_cell_length_b                    9.929809
_cell_length_c                    10.672732
_cell_angle_alpha                 89.513264
_cell_angle_beta                  91.230451
_cell_angle_gamma                 90.297558
_cell_volume                      1135.44647266

loop_
_atom_site_label
_atom_site_type_symbol
_atom_type_description
_atom_site_fract_x
_atom_site_fract_y
_atom_site_fract_z
_atom_type_partial_charge
C1    C     C_R   0.260194 0.500239 0.500392 0.940936
C2    C     C_R   0.739744 0.500683 0.499767 0.918076
C3    C     C_R   0.937371 0.617279 0.540630 0.539382
C4    C     C_R   0.065105 0.618246 0.538367 0.526394
C5    C     C_R   0.585596 0.070155 0.570382 0.059057
C6    C     C_R   0.410587 0.071133 0.431472 0.083745
C7    C     C_R   0.582204 0.926957 0.573243 0.530679
C8    C     C_R   0.415034 0.926344 0.429049 0.561337
C9    C     C_R   0.516098 0.501058 0.261460 0.903867
C10   C     C_R   0.502431 0.500555 0.740883 0.890359
C11   C     C_R   0.586659 0.755885 0.112658 0.301926
C12   C     C_R   0.430959 0.737147 0.898602 0.284437
C13   C     C_R   0.546917 0.872367 0.049135 -0.231954
C14   C     C_R   0.462118 0.863353 0.948373 -0.209003
C15   C     C_R   0.496727 0.622632 0.944251 0.006368
C16   C     C_R   0.548152 0.629068 0.065013 -0.009190
C17   C     C_R   0.551743 0.505724 0.131191 -0.219521
C18   C     C_R   0.522387 0.504498 0.875079 -0.223262
C19   C     C_R   0.574286 0.387423 0.064038 0.171745
C20   C     C_R   0.590370 0.400247 0.935528 0.172849
C21   C     C_R   0.062208 0.389853 0.456608 -0.273652
C22   C     C_R   0.934440 0.391940 0.451923 -0.290411
C23   C     C_R   0.872187 0.503356 0.497948 -0.253814
C24   C     C_R   0.127532 0.502530 0.499567 -0.241034
H1    H     H_    0.579234 0.969286 0.080708 0.143668
H2    H     H_    0.420720 0.953769 0.909060 0.136970
H3    H     H_    0.109730 0.301564 0.424931 0.213770
H4    H     H_    0.884599 0.307080 0.412084 0.192912
N1    N     N_R   0.500000 0.857200 0.500000 -0.204240
N2    N     N_R   0.500000 0.142810 0.500000 -0.163666
O1    O     O_R   0.316770 0.614620 0.499990 -0.504058
O2    O     O_R   0.683230 0.614620 0.500010 -0.521480
O3    O     O_R   0.316800 0.385290 0.500000 -0.639462
O4    O     O_R   0.683200 0.385290 0.500000 -0.621265
O5    O     O_R   0.500010 0.614690 0.316770 -0.573655
O6    O     O_R   0.499990 0.614690 0.683230 -0.555481
O7    O     O_R   0.500040 0.385360 0.316770 -0.624057
O8    O     O_R   0.499960 0.385360 0.683230 -0.621339
Zn1   Zn    Zn3+2 0.500000 0.653120 0.500000 1.101190
Zn2   Zn    Zn3+2 0.500000 0.346880 0.500000 0.954821
N3    N     N_2   0.557448 0.257743 0.118050 -0.273692
H5    H     H_    0.630343 0.192729 0.105558 0.229607
C25   C     C_3   0.437435 0.199222 0.084708 -0.788965
H6    H     H_    0.422946 0.105877 0.139798 0.245929
H7    H     H_    0.433138 0.175381 0.983257 0.237684
H8    H     H_    0.360803 0.270103 0.105544 0.241456
N4    N     N_2   0.677253 0.318100 0.870960 -0.298141
H9    H     H_    0.696686 0.351617 0.781951 0.257287
C26   C     C_3   0.791781 0.278672 0.936828 -0.828206
H10   H     H_    0.789083 0.168864 0.956801 0.249677
H11   H     H_    0.807288 0.334746 0.025522 0.240137
H12   H     H_    0.873753 0.299242 0.877325 0.239789
N5    N     N_2   0.671861 0.767426 0.216703 -0.276418
H13   H     H_    0.675277 0.861626 0.256797 0.212057
C27   C     C_3   0.794624 0.712192 0.197562 -0.757985
H14   H     H_    0.853091 0.725719 0.283721 0.253047
H15   H     H_    0.840274 0.765157 0.118511 0.241257
H16   H     H_    0.788779 0.602746 0.177849 0.229597
N6    N     N_2   0.326105 0.724615 0.814887 -0.268822
H17   H     H_    0.295547 0.814251 0.775774 0.256257
C28   C     C_3   0.225263 0.643223 0.863643 -0.738156
H18   H     H_    0.146771 0.639191 0.794619 0.274257
H19   H     H_    0.190721 0.687481 0.951639 0.236734
H20   H     H_    0.256733 0.538410 0.882101 0.219044
F1    F     F_    0.878471 0.726925 0.585655 -0.592794
F2    F     F_    0.126718 0.731276 0.576168 -0.632552
N7    N     N_2   0.674977 0.137818 0.646341 -0.248956
H21   H     H_    0.664442 0.112490 0.739318 0.254915
C29   C     C_3   0.802999 0.119651 0.609457 -0.625526
H22   H     H_    0.840425 0.023046 0.647183 0.293520
H23   H     H_    0.861250 0.202854 0.647965 0.221446
H24   H     H_    0.810000 0.119316 0.505835 0.220875
N8    N     N_2   0.312595 0.143139 0.367190 -0.285436
H25   H     H_    0.337454 0.231733 0.324945 0.281556
C30   C     C_3   0.207484 0.075324 0.306980 -0.702671
H26   H     H_    0.238270 0.016518 0.225411 0.271868
H27   H     H_    0.139856 0.150734 0.269948 0.191107
H28   H     H_    0.158526 0.010188 0.375532 0.300628
F3    F     F_    0.661119 0.857753 0.650664 -0.598013
F4    F     F_    0.335784 0.852694 0.356387 -0.637340

loop_
_geom_bond_atom_site_label_1
_geom_bond_atom_site_label_2
_ccdc_geom_bond_type
C15   C18   A    
O8    Zn2   S    
C27   H14   S    
C7    N1    A    
C29   H24   S    
N3    C25   S    
N8    H25   S    
C3    C23   A    
C19   C20   A    
C5    N7    S    
C1    O3    A    
N4    C26   S    
N5    H13   S    
O4    Zn2   S    
C8    N1    A    
C2    O2    A    
O7    Zn2   S    
C4    C24   A    
C9    O5    A    
C15   C16   A    
C1    O1    A    
C29   H23   S    
N3    H5    S    
O2    Zn1   S    
C28   H19   S    
C12   N6    S    
C16   C17   A    
C26   H11   S    
C28   H18   S    
C11   N5    S    
C2    O4    A    
C21   H3    S    
N6    H17   S    
C22   H4    S    
C13   C14   A    
N8    C30   S    
C13   H1    S    
C3    F1    S    
C30   H28   S    
N5    C27   S    
N6    C28   S    
O3    Zn2   S    
N7    H21   S    
C5    C7    A    
C6    C8    A    
N7    C29   S    
C28   H20   S    
O5    Zn1   S    
C30   H26   S    
C30   H27   S    
C11   C16   A    
N4    H9    S    
C12   C15   A    
C26   H12   S    
N1    Zn1   S    
C9    O7    A    
N2    Zn2   S    
C14   H2    S    
C25   H7    S    
C9    C17   S    
C6    N2    A    
C12   C14   A    
C27   H15   S    
C25   H6    S    
C27   H16   S    
C3    C4    A    
C6    N8    S    
C7    F3    S    
C5    N2    A    
O6    Zn1   S    
C10   O8    A    
C4    F2    S    
C11   C13   A    
C10   C18   S    
C17   C19   A    
O1    Zn1   S    
C18   C20   A    
C29   H22   S    
C25   H8    S    
C20   N4    S    
C1    C24   S    
C26   H10   S    
C21   C24   A    
C2    C23   S    
C8    F4    S    
C22   C23   A    
C10   O6    A    
C21   C22   A    
C19   N3    S    
