data_mof_unit_17943.cif
_audit_creation_date              2012-12-10T17:26:23-0500
_audit_creation_method            fapswitch 2.2
_symmetry_space_group_name_H-M    P1
_symmetry_Int_Tables_number       1
_space_group_crystal_system       triclinic
_cell_length_a                    10.101646
_cell_length_b                    10.811312
_cell_length_c                    27.742378
_cell_angle_alpha                 90.005225
_cell_angle_beta                  81.557338
_cell_angle_gamma                 95.326047
_cell_volume                      2983.74779964

loop_
_atom_site_label
_atom_site_type_symbol
_atom_type_description
_atom_site_fract_x
_atom_site_fract_y
_atom_site_fract_z
_atom_type_partial_charge
C1    C     C_R   0.556166 0.732731 0.495347 0.949408
C2    C     C_R   0.493980 0.612140 0.127395 -0.020540
C3    C     C_R   0.502260 0.499209 0.646569 -0.125916
C4    C     C_R   0.497729 0.500811 0.353446 -0.098896
C5    C     C_R   0.506488 0.613024 0.024960 0.049962
C6    C     C_R   0.486365 0.382992 0.975304 0.048681
C7    C     C_R   0.487955 0.383354 0.026303 0.049055
C8    C     C_R   0.518541 0.612558 0.973454 0.049307
C9    C     C_R   0.495025 0.498438 0.050953 0.080494
C10   C     C_R   0.504637 0.497623 0.949058 0.080825
C11   C     C_R   0.504183 0.724574 0.051636 -0.196581
C12   C     C_R   0.443731 0.267266 0.501853 0.952585
C13   C     C_R   0.466166 0.271608 0.949447 -0.198605
C14   C     C_R   0.498511 0.723883 0.101854 -0.108030
C15   C     C_R   0.468358 0.272667 0.899376 -0.107907
C16   C     C_R   0.500768 0.499843 0.593956 0.912177
C17   C     C_R   0.499231 0.500159 0.406047 0.898457
C18   C     C_R   0.545444 0.723491 0.945229 -0.198369
C19   C     C_R   0.483544 0.272239 0.053709 -0.196672
C20   C     C_2   0.587938 0.864664 0.488126 -0.358546
C21   C     C_2   0.411561 0.135297 0.498349 -0.360222
C22   C     C_2   0.487215 0.933808 0.484583 -0.133167
C23   C     C_R   0.508594 0.497383 0.897802 -0.047941
C24   C     C_2   0.511604 0.066079 0.483153 -0.134297
C25   C     C_2   0.927064 0.509973 0.503949 -0.121318
C26   C     C_2   0.072950 0.490058 0.496036 -0.122790
C27   C     C_R   0.531793 0.607779 0.820604 0.583196
C28   C     C_R   0.483116 0.389300 0.178849 0.591795
C29   C     C_R   0.491305 0.386721 0.822729 0.585638
C30   C     C_R   0.492905 0.610687 0.177847 0.583606
C31   C     C_R   0.383108 0.509022 0.728944 0.499181
C32   C     C_R   0.617564 0.494681 0.271046 0.440313
C33   C     C_R   0.382950 0.509827 0.678705 -0.267112
C34   C     C_R   0.491035 0.499001 0.102210 -0.045351
C35   C     C_R   0.617657 0.493551 0.321284 -0.298212
C36   C     C_R   0.622628 0.487833 0.665013 -0.186547
C37   C     C_R   0.376716 0.508806 0.335039 -0.194616
C38   C     C_R   0.623691 0.487286 0.714956 -0.151287
C39   C     C_R   0.375556 0.508824 0.285102 -0.142892
C40   C     C_R   0.504877 0.497840 0.746886 0.173784
C41   C     C_R   0.494974 0.501463 0.253128 0.191154
C42   C     C_R   0.530796 0.609994 0.871041 -0.027345
C43   C     C_R   0.484399 0.386457 0.128399 -0.026487
C44   C     C_R   0.551028 0.721975 0.895022 -0.106957
C45   C     C_R   0.481367 0.274043 0.103773 -0.103327
C46   C     C_R   0.490031 0.384576 0.873191 -0.028433
H1    H     H_    0.715940 0.479670 0.640934 0.177830
H2    H     H_    0.478215 0.186453 0.123085 0.194667
H3    H     H_    0.711332 0.487277 0.335311 0.201927
H4    H     H_    0.289768 0.518476 0.664642 0.219171
H5    H     H_    0.498152 0.811844 0.120580 0.193722
H6    H     H_    0.452048 0.184910 0.881289 0.196601
H7    H     H_    0.504029 0.814488 0.034974 0.141029
H8    H     H_    0.445257 0.181498 0.966830 0.143489
H9    H     H_    0.565408 0.813494 0.960642 0.143525
H10   H     H_    0.484640 0.181734 0.037579 0.140628
H11   H     H_    0.119510 0.614417 0.544895 0.173382
H12   H     H_    0.282920 0.514337 0.359149 0.174734
H13   H     H_    0.880477 0.385560 0.455113 0.170627
H14   H     H_    0.906042 0.598901 0.271113 0.355927
H15   H     H_    0.022382 0.534563 0.761334 0.388069
H16   H     H_    0.614782 0.106253 0.472919 0.191054
H17   H     H_    0.383733 0.893599 0.486358 0.190730
H18   H     H_    0.308684 0.094674 0.508650 0.156867
H19   H     H_    0.691125 0.905323 0.486453 0.155361
H20   H     H_    0.109539 0.422659 0.469542 0.165184
H21   H     H_    0.890485 0.577392 0.530436 0.165777
H22   H     H_    0.716978 0.478767 0.729034 0.167518
H23   H     H_    0.281677 0.514229 0.271064 0.180600
H24   H     H_    0.570829 0.809501 0.875072 0.195145
N1    N     N_R   0.509440 0.497426 0.797934 -0.346795
N2    N     N_R   0.490130 0.500442 0.202089 -0.345955
N3    N     N_2   0.842700 0.448890 0.480020 -0.194384
N4    N     N_2   0.157300 0.551110 0.519980 -0.193458
O1    O     O_R   0.431060 0.692470 0.504020 -0.610872
O2    O     O_2   0.475662 0.282241 0.204569 -0.515504
O3    O     O_2   0.496500 0.718305 0.202512 -0.527534
O4    O     O_2   0.473287 0.279500 0.798570 -0.517505
O5    O     O_2   0.771935 0.360151 0.209185 -0.215000
O6    O     O_2   0.784770 0.582672 0.191493 -0.288106
O7    O     O_3   0.902506 0.509983 0.262294 -0.537780
O8    O     O_2   0.202445 0.411618 0.802573 -0.274820
O9    O     O_2   0.244181 0.638388 0.797783 -0.266493
O10   O     O_3   0.102582 0.528343 0.736511 -0.565878
O11   O     O_R   0.568940 0.307530 0.495980 -0.610423
O12   O     O_R   0.651120 0.659650 0.491200 -0.612216
O13   O     O_R   0.348880 0.340350 0.508800 -0.609943
O14   O     O_R   0.389980 0.516390 0.577660 -0.608336
O15   O     O_R   0.610020 0.483610 0.422340 -0.613690
O16   O     O_R   0.610040 0.483570 0.564830 -0.618976
O17   O     O_R   0.389960 0.516430 0.435170 -0.623936
O18   O     O_2   0.553479 0.714790 0.794363 -0.519842
S1    S     S_3+6 0.770877 0.486672 0.231546 0.057009
S2    S     S_3+6 0.230994 0.522089 0.768522 0.043308
Zn1   Zn    Zn3+2 0.353060 0.521910 0.508560 0.962669
Zn2   Zn    Zn3+2 0.646940 0.478090 0.491440 0.959639

loop_
_geom_bond_atom_site_label_1
_geom_bond_atom_site_label_2
_ccdc_geom_bond_type
C19   H10   S    
C16   O16   A    
O8    S2    D    
C40   N1    S    
C25   H21   S    
O1    Zn1   S    
C39   C41   A    
C23   C42   A    
C12   O11   A    
O5    S1    D    
C11   C14   A    
C3    C33   A    
C31   C40   A    
C36   H1    S    
C21   H18   S    
C26   N4    D    
C22   H17   S    
C30   O3    S    
C29   O4    S    
C17   O17   A    
C35   H3    S    
C32   C41   A    
C31   C33   A    
C44   H24   S    
H13   N3    S    
C37   H12   S    
C11   H7    S    
C2    C34   A    
C32   S1    S    
O14   Zn1   S    
C23   C46   A    
C28   N2    A    
C42   C44   A    
C26   H20   S    
C32   C35   A    
C20   H19   S    
C17   O15   A    
C25   C26   S    
O9    S2    D    
C12   C21   S    
C8    C18   A    
O13   Zn1   S    
C1    O1    A    
H11   N4    S    
C5    C9    A    
C18   C44   A    
O7    S1    S    
H14   O7    S    
C14   H5    S    
C39   H23   S    
C27   O18   S    
O10   S2    S    
C15   H6    S    
O16   Zn2   S    
C43   C45   A    
O12   Zn2   S    
C18   H9    S    
C41   N2    S    
C4    C17   S    
C20   C22   D    
C7    C19   A    
C13   C15   A    
C9    C34   A    
C22   C24   S    
C28   O2    S    
C27   N1    A    
C13   H8    S    
C45   H2    S    
C1    O12   A    
C7    C9    A    
C1    C20   S    
C24   H16   S    
C12   O13   A    
N4    Zn1   S    
C34   C43   A    
C38   H22   S    
H15   O10   S    
C6    C10   A    
C5    C8    A    
C30   N2    A    
C19   C45   A    
C5    C11   A    
C6    C7    A    
C10   C23   A    
C31   S2    S    
C28   C43   A    
C15   C46   A    
C29   C46   A    
C2    C30   A    
O15   Zn2   S    
C36   C38   A    
C33   H4    S    
C37   C39   A    
C6    C13   A    
C38   C40   A    
C27   C42   A    
C3    C36   A    
O11   Zn2   S    
C25   N3    D    
C2    C14   A    
C4    C35   A    
O17   Zn1   S    
C4    C37   A    
C8    C10   A    
C21   C24   D    
C16   O14   A    
N3    Zn2   S    
O6    S1    D    
C3    C16   S    
C29   N1    A    
