data_mof_unit_58378.cif
_audit_creation_date              2012-12-11T15:43:13-0500
_audit_creation_method            fapswitch 2.2
_symmetry_space_group_name_H-M    P1
_symmetry_Int_Tables_number       1
_space_group_crystal_system       triclinic
_cell_length_a                    19.149941
_cell_length_b                    11.049203
_cell_length_c                    18.806524
_cell_angle_alpha                 89.897989
_cell_angle_beta                  89.705609
_cell_angle_gamma                 89.830145
_cell_volume                      3979.22601977

loop_
_atom_site_label
_atom_site_type_symbol
_atom_type_description
_atom_site_fract_x
_atom_site_fract_y
_atom_site_fract_z
_atom_type_partial_charge
C1    C     C_R   0.729570 0.374758 0.145555 0.551222
C2    C     C_R   0.048566 0.988296 0.017823 -0.096680
C3    C     C_R   0.748680 0.431535 0.572259 0.018485
C4    C     C_R   0.729979 0.379827 0.351633 0.540797
C5    C     C_R   0.270063 0.379673 0.648401 0.560623
C6    C     C_R   0.229979 0.879827 0.351633 0.540797
C7    C     C_R   0.770063 0.879672 0.648401 0.560608
C8    C     C_R   0.535725 0.156998 0.355558 0.571003
C9    C     C_R   0.469243 0.157038 0.647538 0.574476
C10   C     C_R   0.035725 0.656998 0.355558 0.571005
C11   C     C_R   0.969243 0.657038 0.647538 0.574483
C12   C     C_R   0.740702 0.973894 0.355318 0.542331
C13   C     C_R   0.556535 0.469782 0.945345 -0.109030
C14   C     C_R   0.258979 0.973576 0.644791 0.548834
C15   C     C_R   0.240702 0.473894 0.355318 0.542330
C16   C     C_R   0.758979 0.473576 0.644791 0.548826
C17   C     C_R   0.488061 0.155663 0.929548 0.025549
C18   C     C_R   0.498592 0.174219 0.077563 0.008018
C19   C     C_R   0.988061 0.655662 0.929548 0.025541
C20   C     C_R   0.998592 0.674222 0.077563 0.008035
C21   C     C_R   0.514475 0.262997 0.959331 -0.021434
C22   C     C_R   0.513770 0.276868 0.033955 -0.026936
C23   C     C_R   0.014479 0.762992 0.959329 -0.021446
C24   C     C_R   0.548555 0.488301 0.017827 -0.096669
C25   C     C_R   0.013774 0.776867 0.033953 -0.026944
C26   C     C_R   0.469473 0.071222 0.048113 0.069998
C27   C     C_R   0.468582 0.056818 0.974348 0.098058
C28   C     C_R   0.969465 0.571231 0.048114 0.069996
C29   C     C_R   0.968571 0.556824 0.974350 0.098025
C30   C     C_R   0.777739 0.843702 0.937830 0.027283
C31   C     C_R   0.251221 0.916195 0.076260 0.008877
C32   C     C_R   0.277729 0.343711 0.937826 0.027283
C33   C     C_R   0.751217 0.416185 0.076257 0.008877
C34   C     C_R   0.711548 0.835642 0.968770 0.013677
C35   C     C_R   0.293473 0.843968 0.032548 0.013788
C36   C     C_R   0.211529 0.335718 0.968754 0.013658
C37   C     C_R   0.288412 0.329683 0.861188 0.573233
C38   C     C_R   0.793466 0.343954 0.032544 0.013802
C39   C     C_R   0.700700 0.862975 0.039387 -0.022261
C40   C     C_R   0.296723 0.861877 0.960494 0.011137
C41   C     C_R   0.200684 0.363086 0.039368 -0.022294
C42   C     C_R   0.796711 0.361856 0.960489 0.011144
C43   C     C_R   0.824070 0.884874 0.056054 -0.125652
C44   C     C_R   0.219385 0.031744 0.972776 -0.148449
C45   C     C_R   0.324056 0.384844 0.056054 -0.125647
C46   C     C_R   0.719376 0.531724 0.972771 -0.148434
C47   C     C_R   0.834879 0.859974 0.983478 -0.143444
C48   C     C_R   0.229571 0.874760 0.145556 0.551216
C49   C     C_R   0.218997 0.017683 0.046230 -0.152163
C50   C     C_R   0.334865 0.359934 0.983481 -0.143455
C51   C     C_R   0.718992 0.517671 0.046225 -0.152164
C52   C     C_3   0.641882 0.883171 0.947017 -0.041544
C53   C     C_3   0.305140 0.711192 0.025936 -0.017289
C54   C     C_3   0.141894 0.383346 0.946986 -0.041514
C55   C     C_3   0.805134 0.211178 0.025936 -0.017296
C56   C     C_3   0.630432 0.916460 0.024844 -0.232795
C57   C     C_3   0.308220 0.730928 0.945716 -0.240973
C58   C     C_3   0.130470 0.416725 0.024801 -0.232828
C59   C     C_R   0.788414 0.829682 0.861188 0.573241
C60   C     C_3   0.808205 0.230904 0.945714 -0.240983
C61   C     C_R   0.755777 0.899594 0.082786 0.013293
C62   C     C_R   0.254076 0.947481 0.928646 0.036649
C63   C     C_R   0.255767 0.399619 0.082779 0.013294
C64   C     C_R   0.754066 0.447462 0.928641 0.036656
C65   C     C_R   0.531630 0.157458 0.147255 0.570945
C66   C     C_R   0.465367 0.153318 0.854934 0.565556
C67   C     C_R   0.031631 0.657458 0.147255 0.570950
C68   C     C_R   0.965368 0.653318 0.854934 0.565563
C69   C     C_R   0.507574 0.166182 0.580290 0.039343
C70   C     C_R   0.540590 0.357891 0.916222 -0.075203
C71   C     C_R   0.520925 0.165026 0.431401 0.035451
C72   C     C_R   0.007574 0.666182 0.580290 0.039348
C73   C     C_R   0.020925 0.665026 0.431401 0.035450
C74   C     C_R   0.525931 0.060191 0.543883 -0.011695
C75   C     C_R   0.531770 0.060413 0.471119 -0.001494
C76   C     C_R   0.025931 0.560191 0.543883 -0.011692
C77   C     C_R   0.031770 0.560413 0.471119 -0.001494
C78   C     C_R   0.514904 0.276404 0.467713 0.074107
C79   C     C_R   0.511007 0.277045 0.543041 0.073793
C80   C     C_R   0.014904 0.776404 0.467713 0.074106
C81   C     C_R   0.527003 0.393727 0.061813 -0.063079
C82   C     C_R   0.011007 0.777045 0.543041 0.073794
C83   C     C_3   0.491781 0.938397 0.542957 -0.267932
C84   C     C_3   0.496737 0.941113 0.463072 -0.271754
C85   C     C_3   0.991781 0.438397 0.542958 -0.267933
C86   C     C_3   0.996737 0.441113 0.463072 -0.271754
C87   C     C_R   0.754559 0.919272 0.576875 0.015372
C88   C     C_R   0.246254 0.920912 0.422809 0.017569
C89   C     C_R   0.254559 0.419272 0.576875 0.015374
C90   C     C_R   0.746254 0.420912 0.422809 0.017570
C91   C     C_R   0.811404 0.960882 0.537839 0.035742
C92   C     C_R   0.040599 0.857880 0.916220 -0.075220
C93   C     C_R   0.191156 0.972150 0.460648 0.045291
C94   C     C_R   0.311403 0.460882 0.537839 0.035739
C95   C     C_R   0.691156 0.472150 0.460648 0.045291
C96   C     C_R   0.809620 0.966042 0.464565 0.010056
C97   C     C_R   0.192057 0.977451 0.533895 0.017254
C98   C     C_R   0.309620 0.466042 0.464565 0.010056
C99   C     C_R   0.692057 0.477451 0.533895 0.017253
C100  C     C_R   0.691468 0.891364 0.467243 -0.162178
C101  C     C_R   0.303611 0.877169 0.534514 -0.175432
C102  C     C_R   0.191468 0.391364 0.467243 -0.162179
C103  C     C_R   0.027011 0.893726 0.061809 -0.063097
C104  C     C_R   0.803611 0.377169 0.534514 -0.175432
C105  C     C_R   0.693292 0.887673 0.541532 -0.169870
C106  C     C_R   0.303881 0.876546 0.460101 -0.181421
C107  C     C_R   0.193292 0.387673 0.541532 -0.169868
C108  C     C_R   0.803881 0.376546 0.460101 -0.181420
C109  C     C_3   0.839925 0.085053 0.544767 -0.281389
C110  C     C_3   0.167038 0.099522 0.453041 -0.286081
C111  C     C_3   0.339925 0.585054 0.544767 -0.281387
C112  C     C_3   0.667038 0.599522 0.453041 -0.286081
C113  C     C_R   0.741960 0.967439 0.148275 0.538394
C114  C     C_R   0.056548 0.969771 0.945341 -0.109036
C115  C     C_R   0.259331 0.973590 0.853714 0.549047
C116  C     C_R   0.241959 0.467444 0.148273 0.538397
C117  C     C_R   0.759329 0.473582 0.853711 0.549037
C118  C     C_3   0.839413 0.090664 0.465198 -0.266892
C119  C     C_3   0.167384 0.105621 0.532831 -0.267147
C120  C     C_3   0.339413 0.590664 0.465198 -0.266893
C121  C     C_3   0.667384 0.605621 0.532831 -0.267147
C122  C     C_R   0.749669 0.931285 0.427904 0.009482
C123  C     C_R   0.248680 0.931535 0.572259 0.018487
C124  C     C_R   0.249669 0.431285 0.427904 0.009482
Cr1   Cr    Cr6+3 0.772010 0.169670 0.250090 1.046408
Cr2   Cr    Cr6+3 0.383290 0.010760 0.749160 1.030422
Cr3   Cr    Cr6+3 0.116710 0.510760 0.250840 1.023766
Cr4   Cr    Cr6+3 0.883290 0.510760 0.749160 1.030413
Cr5   Cr    Cr6+3 0.227990 0.169670 0.749910 1.019827
Cr6   Cr    Cr6+3 0.272010 0.669670 0.250090 1.046408
Cr7   Cr    Cr6+3 0.727990 0.669670 0.749910 1.019826
Cr8   Cr    Cr6+3 0.615000 0.323260 0.249260 1.030978
Cr9   Cr    Cr6+3 0.385000 0.323260 0.750740 1.033980
Cr10  Cr    Cr6+3 0.115000 0.823260 0.249260 1.030976
Cr11  Cr    Cr6+3 0.885000 0.823260 0.750740 1.033973
Cr12  Cr    Cr6+3 0.616710 0.010760 0.250840 1.023764
H1    H     H_    0.937516 0.442978 0.561701 0.168585
H2    H     H_    0.346738 0.837463 0.562752 0.121811
H3    H     H_    0.144155 0.366406 0.440486 0.138229
H4    H     H_    0.846738 0.337463 0.562752 0.121810
H5    H     H_    0.648572 0.854626 0.570967 0.127833
H6    H     H_    0.347140 0.835708 0.431771 0.121245
H7    H     H_    0.148572 0.354626 0.570967 0.127835
H8    H     H_    0.847140 0.335708 0.431771 0.121244
H9    H     H_    0.892820 0.089509 0.567998 0.131302
H10   H     H_    0.114169 0.108065 0.429727 0.131995
H11   H     H_    0.392820 0.589509 0.567998 0.131302
H12   H     H_    0.030490 0.368938 0.440838 0.136581
H13   H     H_    0.614169 0.608065 0.429727 0.131994
H14   H     H_    0.801229 0.145723 0.570754 0.148780
H15   H     H_    0.207301 0.157275 0.427225 0.143908
H16   H     H_    0.301229 0.645723 0.570754 0.148785
H17   H     H_    0.707301 0.657275 0.427225 0.143908
H18   H     H_    0.800114 0.154448 0.444498 0.179355
H19   H     H_    0.208801 0.165020 0.553679 0.175307
H20   H     H_    0.300113 0.654448 0.444498 0.179355
H21   H     H_    0.708800 0.665019 0.553679 0.175309
H22   H     H_    0.892123 0.096734 0.440620 0.130261
H23   H     H_    0.437516 0.942978 0.561701 0.168585
H24   H     H_    0.114743 0.118109 0.556822 0.125270
H25   H     H_    0.392123 0.596734 0.440620 0.130261
H26   H     H_    0.614743 0.618108 0.556822 0.125270
H27   H     H_    0.549168 0.346586 0.859753 0.149146
H28   H     H_    0.517221 0.416500 0.116714 0.161769
H29   H     H_    0.049177 0.846571 0.859751 0.149157
H30   H     H_    0.017229 0.916502 0.116711 0.161772
H31   H     H_    0.074158 0.042810 0.911354 0.120663
H32   H     H_    0.059116 0.076578 0.040120 0.128870
H33   H     H_    0.574141 0.542825 0.911358 0.120635
H34   H     H_    0.530490 0.868938 0.440838 0.136580
H35   H     H_    0.559104 0.576584 0.040126 0.128845
H36   H     H_    0.868660 0.902973 0.089412 0.163138
H37   H     H_    0.190196 0.106134 0.950453 0.132921
H38   H     H_    0.368646 0.402903 0.089418 0.163110
H39   H     H_    0.690183 0.606107 0.950449 0.132915
H40   H     H_    0.887250 0.861121 0.962186 0.149362
H41   H     H_    0.188112 0.079271 0.078377 0.136056
H42   H     H_    0.387235 0.361029 0.962196 0.149329
H43   H     H_    0.688109 0.579260 0.078372 0.136052
H44   H     H_    0.107249 0.309080 0.928935 0.120262
H45   H     H_    0.524282 0.866668 0.567847 0.130793
H46   H     H_    0.759227 0.157371 0.043383 0.155050
H47   H     H_    0.607277 0.808860 0.928935 0.120249
H48   H     H_    0.259231 0.657387 0.043376 0.155013
H49   H     H_    0.628597 0.015534 0.035022 0.164111
H50   H     H_    0.360318 0.713135 0.921585 0.176237
H51   H     H_    0.128732 0.515795 0.034944 0.163997
H52   H     H_    0.860299 0.213108 0.921578 0.176234
H53   H     H_    0.588038 0.863293 0.050406 0.133843
H54   H     H_    0.263980 0.690209 0.916821 0.167960
H55   H     H_    0.088030 0.363722 0.050372 0.133961
H56   H     H_    0.445540 0.950646 0.436348 0.139656
H57   H     H_    0.763960 0.190183 0.916826 0.167958
H58   H     H_    0.470597 0.900850 0.089955 0.261389
H59   H     H_    0.389579 0.968789 0.084680 0.254309
H60   H     H_    0.434433 0.878409 0.981770 0.241450
H61   H     H_    0.495168 0.904798 0.921299 0.249237
H62   H     H_    0.970581 0.400864 0.089962 0.261384
H63   H     H_    0.889566 0.468809 0.084682 0.254309
H64   H     H_    0.934413 0.378424 0.981777 0.241457
H65   H     H_    0.995136 0.404801 0.921294 0.249186
H66   H     H_    0.456890 0.420085 0.438045 0.222165
H67   H     H_    0.024282 0.366668 0.567847 0.130794
H68   H     H_    0.543129 0.448886 0.446414 0.230003
H69   H     H_    0.550903 0.438987 0.570863 0.224901
H70   H     H_    0.463039 0.435852 0.562289 0.231154
H71   H     H_    0.956890 0.920085 0.438045 0.222165
H72   H     H_    0.043130 0.948886 0.446414 0.230003
H73   H     H_    0.050903 0.938987 0.570863 0.224902
H74   H     H_    0.963040 0.935852 0.562289 0.231153
H75   H     H_    0.945540 0.450646 0.436348 0.139656
H76   H     H_    0.644155 0.866406 0.440486 0.138229
I1    I     I_    0.646467 0.036310 0.876697 -0.428531
I2    I     I_    0.404107 0.664016 0.070534 -0.506086
I3    I     I_    0.146519 0.536394 0.876607 -0.428459
I4    I     I_    0.904108 0.164023 0.070526 -0.506115
N1    N     N_3   0.442150 0.980946 0.095385 -0.599479
N2    N     N_3   0.450066 0.941443 0.944166 -0.578485
N3    N     N_3   0.942137 0.480962 0.095389 -0.599491
N4    N     N_3   0.950041 0.441456 0.944170 -0.578493
N5    N     N_3   0.506889 0.386375 0.428175 -0.600021
N6    N     N_3   0.506081 0.388599 0.581249 -0.602347
N7    N     N_3   0.006889 0.886375 0.428175 -0.600021
N8    N     N_3   0.006081 0.888599 0.581249 -0.602345
O1    O     O_R   0.787520 0.042810 0.170440 -0.486557
O2    O     O_R   0.454050 0.051210 0.669140 -0.532501
O3    O     O_R   0.045950 0.551210 0.330860 -0.526338
O4    O     O_R   0.954050 0.551210 0.669140 -0.532499
O5    O     O_R   0.681390 0.959480 0.325510 -0.512166
O6    O     O_R   0.318610 0.959480 0.674490 -0.510971
O7    O     O_R   0.181390 0.459480 0.325510 -0.512166
O8    O     O_R   0.818610 0.459480 0.674490 -0.510975
O9    O     O_3   0.667900 0.167900 0.250060 -0.268585
O10   O     O_3   0.332100 0.167900 0.749940 -0.291226
O11   O     O_3   0.167900 0.667900 0.250060 -0.268588
O12   O     O_R   0.212480 0.042810 0.829560 -0.541949
O13   O     O_3   0.832100 0.667900 0.749940 -0.291219
O14   O     O_R   0.765640 0.292100 0.175020 -0.475609
O15   O     O_R   0.234360 0.292100 0.824980 -0.477614
O16   O     O_R   0.265640 0.792100 0.175020 -0.475609
O17   O     O_R   0.734360 0.792100 0.824980 -0.477605
O18   O     O_R   0.670190 0.408840 0.168540 -0.529301
O19   O     O_R   0.329810 0.408840 0.831460 -0.496574
O20   O     O_R   0.170190 0.908840 0.168540 -0.529302
O21   O     O_R   0.829810 0.908840 0.831460 -0.496607
O22   O     O_R   0.556620 0.251410 0.175160 -0.529917
O23   O     O_R   0.287520 0.542810 0.170440 -0.486546
O24   O     O_R   0.443380 0.251410 0.824840 -0.541856
O25   O     O_R   0.056620 0.751410 0.175160 -0.529920
O26   O     O_R   0.943380 0.751410 0.824840 -0.541847
O27   O     O_R   0.545960 0.049620 0.170320 -0.482368
O28   O     O_R   0.454040 0.049620 0.829680 -0.467466
O29   O     O_R   0.045960 0.549620 0.170320 -0.482369
O30   O     O_R   0.954040 0.549620 0.829680 -0.467487
O31   O     O_R   0.681390 0.958010 0.176690 -0.505215
O32   O     O_R   0.318610 0.958010 0.823310 -0.481128
O33   O     O_R   0.181390 0.458010 0.176690 -0.505210
O34   O     O_R   0.712480 0.542810 0.829560 -0.541955
O35   O     O_R   0.818610 0.458010 0.823310 -0.481123
O36   O     O_R   0.787510 0.044390 0.330970 -0.516883
O37   O     O_R   0.212490 0.044390 0.669030 -0.517552
O38   O     O_R   0.287510 0.544390 0.330970 -0.516882
O39   O     O_R   0.712490 0.544390 0.669030 -0.517555
O40   O     O_R   0.765630 0.293570 0.323840 -0.512004
O41   O     O_R   0.234370 0.293570 0.676160 -0.505699
O42   O     O_R   0.265630 0.793570 0.323840 -0.512004
O43   O     O_R   0.734370 0.793570 0.676160 -0.505702
O44   O     O_R   0.670190 0.410420 0.329080 -0.505768
O45   O     O_R   0.556610 0.252880 0.323980 -0.460415
O46   O     O_R   0.329810 0.410420 0.670920 -0.502583
O47   O     O_R   0.170190 0.910420 0.329080 -0.505768
O48   O     O_R   0.829810 0.910420 0.670920 -0.502588
O49   O     O_R   0.443390 0.252880 0.676020 -0.461447
O50   O     O_R   0.056610 0.752880 0.323980 -0.460413
O51   O     O_R   0.943390 0.752880 0.676020 -0.461445
O52   O     O_R   0.545950 0.051210 0.330860 -0.526338

loop_
_geom_bond_atom_site_label_1
_geom_bond_atom_site_label_2
_ccdc_geom_bond_type
C3    C104  A    
C44   C49   A    
C71   C75   A    
C65   O22   A    
H71   N7    S    
C53   I2    S    
C37   O19   A    
C87   C91   A    
H68   N5    S    
C35   C53   S    
C2    C114  A    
Cr11  O21   S    
Cr12  O31   S    
H62   N3    S    
C18   C26   A    
C52   H47   S    
C108  H8    S    
C74   C83   S    
C72   C76   A    
Cr8   O22   S    
C111  H16   S    
C1    C33   S    
C12   O5    A    
Cr2   O2    S    
C85   C86   S    
C18   C65   S    
C98   C124  A    
Cr1   O36   S    
Cr6   O16   S    
C5    O46   A    
C101  C123  A    
C113  O31   A    
C32   C36   A    
C96   C118  S    
C7    O48   A    
Cr2   O6    S    
C9    C69   S    
C41   C58   S    
C38   C42   A    
C84   H34   S    
C95   C112  S    
C105  H5    S    
C117  O35   A    
C10   C73   S    
Cr1   O1    S    
C75   C84   S    
C37   O15   A    
Cr7   O43   S    
C20   C25   A    
C94   C98   A    
C118  H22   S    
C94   C111  S    
C120  H20   S    
C6    C88   S    
C83   H45   S    
C112  C121  S    
Cr2   O28   S    
C78   N5    S    
C45   H38   S    
C89   C94   A    
C24   H35   S    
Cr11  O48   S    
C50   H42   S    
C20   C67   S    
C91   C96   A    
C88   C93   A    
C16   O39   A    
C92   H29   S    
C55   H46   S    
C29   N4    S    
C7    C87   S    
C38   C55   S    
C83   C84   S    
C54   H44   S    
C11   O4    A    
C8    C71   S    
C60   H57   S    
Cr4   O30   S    
Cr10  O11   S    
Cr3   O33   S    
Cr12  O27   S    
C84   H56   S    
C9    O2    A    
C40   C57   S    
C59   O17   A    
C51   H43   S    
C114  H31   S    
Cr8   O9    S    
Cr7   O39   S    
C47   H40   S    
C48   O20   A    
C93   C110  S    
C99   C121  S    
C13   H33   S    
H70   N6    S    
C6    O47   A    
C40   C62   A    
Cr4   O8    S    
C36   C54   S    
Cr6   O11   S    
C55   C60   S    
C70   H27   S    
C26   N1    S    
Cr3   O3    S    
H66   N5    S    
C36   C41   A    
Cr12  O52   S    
C31   C49   A    
C102  C124  A    
H69   N6    S    
C115  O12   A    
C48   O16   A    
C109  C118  S    
C106  H6    S    
H58   N1    S    
C49   H41   S    
Cr11  O51   S    
C67   O29   A    
C54   I3    S    
C39   C61   A    
C82   N8    S    
C66   O28   A    
H74   N8    S    
C74   C75   A    
C30   C34   A    
Cr5   O12   S    
C35   C40   A    
C34   C39   A    
C17   C27   A    
Cr4   O35   S    
C30   C47   A    
C69   C74   A    
H63   N3    S    
C44   H37   S    
C100  C122  A    
C80   C82   A    
C110  H15   S    
Cr7   O17   S    
C53   H48   S    
C42   C60   S    
Cr8   O45   S    
C53   C57   S    
C11   C72   S    
C25   C103  A    
C66   O24   A    
C20   C28   A    
C44   C62   A    
Cr4   O13   S    
C46   C51   A    
C16   O8    A    
C17   C21   A    
C64   C117  S    
Cr11  O13   S    
C13   C24   A    
C46   C64   A    
C111  C120  S    
H72   N7    S    
C46   H39   S    
C97   C119  S    
C19   C23   A    
C24   C81   A    
C22   C81   A    
C6    O42   A    
C8    O45   A    
C14   O37   A    
C3    C99   A    
Cr8   O44   S    
Cr7   O34   S    
C88   C106  A    
C93   C97   A    
C113  O1    A    
C39   C56   S    
C87   C105  A    
C116  O23   A    
C119  H24   S    
C5    O41   A    
Cr4   O4    S    
C11   O51   A    
C30   C59   S    
C89   C107  A    
Cr3   O7    S    
C100  C105  A    
C12   C122  S    
C102  C107  A    
C59   O21   A    
Cr6   O38   S    
C32   C37   S    
C76   C77   A    
C7    O43   A    
Cr10  O20   S    
C57   H50   S    
C8    O52   A    
C120  H25   S    
C55   I4    S    
C63   C116  S    
C67   O25   A    
Cr8   O18   S    
C15   C124  S    
C13   C70   A    
C77   C86   S    
C28   N3    S    
C109  H9    S    
C31   C48   S    
C65   O27   A    
Cr12  O9    S    
C26   C27   A    
C10   O3    A    
H64   N4    S    
C81   H28   S    
C31   C35   A    
C4    O40   A    
C69   C79   A    
C4    O44   A    
C41   C63   A    
Cr11  O26   S    
C107  H7    S    
H61   N2    S    
C19   C29   A    
C2    H32   S    
C104  C108  A    
Cr5   O41   S    
C43   C61   A    
C79   N6    S    
C111  H11   S    
C54   C58   S    
C85   H1    S    
C9    O49   A    
C101  C106  A    
Cr1   O14   S    
C56   H53   S    
C28   C29   A    
C19   C68   S    
C119  H19   S    
C14   C123  S    
Cr6   O23   S    
C15   O7    A    
C58   H51   S    
Cr3   O29   S    
C34   C52   S    
C32   C50   A    
C116  O33   A    
H65   N4    S    
C68   O26   A    
C43   C47   A    
C90   C95   A    
C110  C119  S    
C42   C64   A    
H60   N2    S    
C43   H36   S    
C4    C90   S    
C98   C120  S    
C1    O14   A    
C33   C51   A    
Cr2   O32   S    
Cr12  O5    S    
Cr5   O10   S    
Cr3   O11   S    
C33   C38   A    
C96   C122  A    
C21   C70   A    
C112  H17   S    
C112  H13   S    
Cr5   O37   S    
Cr9   O49   S    
C18   C22   A    
C109  H14   S    
Cr10  O47   S    
C90   C108  A    
C57   H54   S    
C97   C123  A    
C86   H75   S    
C110  H10   S    
C101  H2    S    
Cr9   O19   S    
C80   N7    S    
C61   C113  S    
C117  O34   A    
C78   C79   A    
C91   C109  S    
Cr9   O46   S    
C45   C63   A    
C2    C103  A    
Cr7   O13   S    
Cr10  O50   S    
C121  H26   S    
C115  O32   A    
Cr1   O40   S    
C52   I1    S    
C73   C80   A    
C100  H76   S    
C118  H18   S    
C95   C99   A    
Cr9   O10   S    
C23   C25   A    
C17   C66   S    
C68   O30   A    
Cr2   O10   S    
C86   H12   S    
C5    C89   S    
C102  H3    S    
C14   O6    A    
H59   N1    S    
Cr1   O9    S    
C1    O18   A    
C85   H67   S    
Cr9   O24   S    
Cr6   O42   S    
C104  H4    S    
C62   C115  S    
C83   H23   S    
C56   H49   S    
C103  H30   S    
C60   H52   S    
C10   O50   A    
C58   H55   S    
C15   O38   A    
H73   N8    S    
C73   C77   A    
C23   C92   A    
Cr5   O15   S    
C121  H21   S    
C45   C50   A    
C12   O36   A    
Cr10  O25   S    
C21   C22   A    
C92   C114  A    
C76   C85   S    
C71   C78   A    
C72   C82   A    
C3    C16   S    
C52   C56   S    
C27   N2    S    
