data_mof_unit_34334.cif
_audit_creation_date              2012-12-11T17:04:43-0500
_audit_creation_method            fapswitch 2.2
_symmetry_space_group_name_H-M    P1
_symmetry_Int_Tables_number       1
_space_group_crystal_system       triclinic
_cell_length_a                    17.433585
_cell_length_b                    24.263146
_cell_length_c                    15.072637
_cell_angle_alpha                 89.953
_cell_angle_beta                  125.548104
_cell_angle_gamma                 90.328229
_cell_volume                      5187.27869137

loop_
_atom_site_label
_atom_site_type_symbol
_atom_type_description
_atom_site_fract_x
_atom_site_fract_y
_atom_site_fract_z
_atom_type_partial_charge
C1    C     C_R   0.806870 0.618979 0.909014 -0.132805
C2    C     C_R   0.142615 0.654412 0.091688 -0.141329
C3    C     C_R   0.306870 0.118979 0.909014 -0.132805
C4    C     C_R   0.642615 0.154412 0.091688 -0.141329
C5    C     C_R   0.815794 0.362522 0.005068 0.070999
C6    C     C_R   0.116435 0.317703 0.993960 0.071063
C7    C     C_R   0.315794 0.862522 0.005068 0.070999
C8    C     C_R   0.616435 0.817703 0.993960 0.071062
C9    C     C_R   0.081788 0.503354 0.372517 0.046989
C10   C     C_R   0.978406 0.502208 0.658502 0.024425
C11   C     C_R   0.581788 0.003354 0.372517 0.046989
C12   C     C_R   0.478406 0.002208 0.658502 0.024425
C13   C     C_R   0.692593 0.499838 0.638817 -0.014420
C14   C     C_R   0.326309 0.500378 0.280757 -0.049613
C15   C     C_R   0.192593 0.999838 0.638817 -0.014420
C16   C     C_R   0.826309 0.000378 0.280758 -0.049613
C17   C     C_3   0.526452 0.455765 0.512003 -0.198686
C18   C     C_3   0.496477 0.453657 0.392986 -0.187519
C19   C     C_3   0.026452 0.955765 0.512003 -0.198686
C20   C     C_3   0.996477 0.953657 0.392986 -0.187519
C21   C     C_3   0.457205 0.502555 0.482510 0.103032
C22   C     C_3   0.571392 0.497872 0.420829 0.108904
C23   C     C_3   0.957205 0.002554 0.482510 0.103032
C24   C     C_3   0.071392 0.997872 0.420829 0.108905
C25   C     C_3   0.426789 0.500646 0.364830 0.122462
C26   C     C_3   0.600196 0.499839 0.537369 0.126868
C27   C     C_3   0.926789 0.000646 0.364830 0.122462
C28   C     C_3   0.100196 0.999839 0.537369 0.126868
C29   C     C_3   0.500569 0.544821 0.389814 -0.234086
C30   C     C_3   0.530535 0.546713 0.508860 -0.217763
C31   C     C_3   0.000569 0.044822 0.389814 -0.234087
C32   C     C_3   0.030535 0.046713 0.508860 -0.217762
C33   C     C_R   0.763162 0.312747 0.107641 0.035859
C34   C     C_R   0.129871 0.244230 0.891114 0.033743
C35   C     C_R   0.263162 0.812747 0.107641 0.035859
C36   C     C_R   0.629871 0.744230 0.891114 0.033743
C37   C     C_R   0.743767 0.334407 0.010106 0.037094
C38   C     C_R   0.139512 0.261507 0.985739 0.039555
C39   C     C_R   0.243767 0.834407 0.010106 0.037094
C40   C     C_R   0.639512 0.761507 0.985739 0.039555
C41   C     C_R   0.654810 0.322088 0.913817 -0.239253
C42   C     C_R   0.182089 0.225492 0.075400 -0.233587
C43   C     C_R   0.154810 0.822088 0.913817 -0.239253
C44   C     C_R   0.682089 0.725492 0.075400 -0.233587
C45   C     C_R   0.903424 0.378595 0.093900 -0.125648
C46   C     C_R   0.053781 0.349240 0.906158 -0.127219
C47   C     C_R   0.403424 0.878595 0.093900 -0.125648
C48   C     C_R   0.553781 0.849240 0.906158 -0.127219
C49   C     C_R   0.100660 0.777997 0.911468 0.034051
C50   C     C_R   0.731276 0.678933 0.077946 0.018573
C51   C     C_R   0.600660 0.277997 0.911468 0.034051
C52   C     C_R   0.231276 0.178933 0.077946 0.018573
C53   C     C_R   0.137343 0.745994 0.006934 0.033802
C54   C     C_R   0.738539 0.669590 0.990606 0.043731
C55   C     C_R   0.637343 0.245994 0.006934 0.033802
C56   C     C_R   0.238539 0.169590 0.990606 0.043731
C57   C     C_R   0.208692 0.770689 0.106044 0.041638
C58   C     C_R   0.681217 0.700514 0.895516 0.020830
C59   C     C_R   0.708692 0.270689 0.106044 0.041638
C60   C     C_R   0.181217 0.200514 0.895516 0.020830
C61   C     C_3   0.288516 0.748870 0.214560 -0.273928
C62   C     C_3   0.694417 0.724796 0.813062 -0.271561
C63   C     C_3   0.788516 0.248870 0.214560 -0.273928
C64   C     C_3   0.194417 0.224796 0.813062 -0.271561
C65   C     C_3   0.849403 0.295398 0.216763 0.006496
C66   C     C_3   0.133859 0.272786 0.804624 0.013477
C67   C     C_3   0.349403 0.795398 0.216763 0.006496
C68   C     C_3   0.633859 0.772786 0.804624 0.013477
C69   C     C_R   0.004262 0.551994 0.537112 0.172019
C70   C     C_R   0.038259 0.554217 0.475234 0.168215
C71   C     C_R   0.504262 0.051994 0.537112 0.172019
C72   C     C_R   0.538259 0.054217 0.475234 0.168215
C73   C     C_R   0.016186 0.504500 0.595287 0.050168
C74   C     C_R   0.085644 0.509315 0.470096 0.036581
C75   C     C_R   0.516186 0.004500 0.595287 0.050168
C76   C     C_R   0.585644 0.009315 0.470096 0.036581
C77   C     C_R   0.079484 0.463953 0.607716 -0.183689
C78   C     C_R   0.113878 0.466157 0.544317 -0.195735
C79   C     C_R   0.579484 0.963953 0.607716 -0.183689
C80   C     C_R   0.613878 0.966157 0.544317 -0.195735
C81   C     C_3   0.952519 0.583697 0.384691 -0.499065
C82   C     C_3   0.915397 0.581274 0.452768 -0.532770
C83   C     C_3   0.452519 0.083697 0.384691 -0.499065
C84   C     C_3   0.415397 0.081274 0.452768 -0.532772
C85   C     C_R   0.063464 0.547182 0.306473 0.004335
C86   C     C_R   0.971637 0.547335 0.709142 0.034608
C87   C     C_R   0.563464 0.047182 0.306473 0.004335
C88   C     C_R   0.471637 0.047335 0.709142 0.034608
C89   C     C_R   0.742019 0.454481 0.698666 0.031037
C90   C     C_R   0.269392 0.454523 0.255604 0.065161
C91   C     C_R   0.242019 0.954481 0.698666 0.031036
C92   C     C_R   0.769392 0.954523 0.255604 0.065161
C93   C     C_R   0.058352 0.456493 0.308877 0.010571
C94   C     C_R   0.975965 0.455908 0.710044 0.014828
C95   C     C_R   0.558352 0.956493 0.308877 0.010571
C96   C     C_R   0.475965 0.955908 0.710044 0.014828
C97   C     C_R   0.741806 0.545680 0.697255 0.007791
C98   C     C_R   0.269975 0.546274 0.252808 0.043236
C99   C     C_R   0.241806 0.045680 0.697255 0.007791
C100  C     C_R   0.769975 0.046275 0.252808 0.043236
C101  C     C_R   0.812065 0.374741 0.912051 -0.122237
C102  C     C_R   0.145601 0.347742 0.086568 -0.118766
C103  C     C_R   0.312065 0.874741 0.912051 -0.122237
C104  C     C_R   0.645601 0.847742 0.086568 -0.118766
C105  C     C_R   0.900853 0.624821 0.090722 -0.126514
C106  C     C_R   0.060245 0.653349 0.912261 -0.109823
C107  C     C_R   0.400853 0.124821 0.090722 -0.126514
C108  C     C_R   0.560245 0.153349 0.912261 -0.109823
C109  C     C_R   0.810540 0.635178 0.999003 0.078413
C110  C     C_R   0.115870 0.686689 0.003054 0.065134
C111  C     C_R   0.310540 0.135178 0.999003 0.078413
C112  C     C_R   0.615870 0.186689 0.003054 0.065134
H1    H     H_    0.745078 0.619085 0.826504 0.115339
H2    H     H_    0.168035 0.669342 0.171561 0.117818
H3    H     H_    0.245079 0.119084 0.826504 0.115339
H4    H     H_    0.668035 0.169342 0.171561 0.117818
H5    H     H_    0.537199 0.419745 0.563492 0.131353
H6    H     H_    0.481750 0.416162 0.343136 0.137806
H7    H     H_    0.037199 0.919745 0.563491 0.131353
H8    H     H_    0.981750 0.916162 0.343135 0.137806
H9    H     H_    0.490906 0.580601 0.338464 0.128654
H10   H     H_    0.543700 0.584485 0.557472 0.137133
H11   H     H_    0.990905 0.080602 0.338465 0.128654
H12   H     H_    0.043700 0.084485 0.557472 0.137132
H13   H     H_    0.630835 0.342648 0.838159 0.126506
H14   H     H_    0.184016 0.235454 0.146672 0.129485
H15   H     H_    0.130835 0.842648 0.838159 0.126506
H16   H     H_    0.684016 0.735454 0.146672 0.129485
H17   H     H_    0.310998 0.707029 0.209236 0.134753
H18   H     H_    0.661039 0.699185 0.737898 0.131028
H19   H     H_    0.810998 0.207029 0.209236 0.134753
H20   H     H_    0.161039 0.199185 0.737898 0.131028
H21   H     H_    0.099403 0.429549 0.662377 0.144613
H22   H     H_    0.155344 0.432310 0.547153 0.149051
H23   H     H_    0.599403 0.929549 0.662377 0.144613
H24   H     H_    0.655343 0.932310 0.547153 0.149051
H25   H     H_    0.909167 0.558905 0.308531 0.209859
H26   H     H_    0.910318 0.623210 0.478436 0.200620
H27   H     H_    0.409167 0.058906 0.308531 0.209859
H28   H     H_    0.410318 0.123210 0.478436 0.200621
H29   H     H_    0.927954 0.379240 0.177530 0.109230
H30   H     H_    0.003756 0.333860 0.824837 0.097842
H31   H     H_    0.427954 0.879240 0.177530 0.109230
H32   H     H_    0.503756 0.833860 0.824837 0.097842
H33   H     H_    0.969614 0.626307 0.374081 0.195286
H34   H     H_    0.851353 0.554970 0.416736 0.210873
H35   H     H_    0.469615 0.126307 0.374081 0.195286
H36   H     H_    0.351353 0.054970 0.416736 0.210873
H37   H     H_    0.752906 0.368027 0.829003 0.108308
H38   H     H_    0.179253 0.330673 0.166871 0.107916
H39   H     H_    0.252906 0.868027 0.829003 0.108308
H40   H     H_    0.679253 0.830673 0.166871 0.107916
H41   H     H_    0.928440 0.632661 0.174785 0.114632
H42   H     H_    0.021104 0.666715 0.829479 0.111710
H43   H     H_    0.428440 0.132661 0.174785 0.114632
H44   H     H_    0.521104 0.166715 0.829479 0.111710
N1    N     N_R   0.892620 0.603790 0.941770 -0.043070
N2    N     N_R   0.107380 0.603790 0.058230 -0.039208
N3    N     N_R   0.392620 0.103790 0.941770 -0.043070
N4    N     N_R   0.607380 0.103790 0.058230 -0.039208
N5    N     N_R   0.952270 0.397640 0.058010 -0.046028
N6    N     N_R   0.047730 0.397640 0.941990 -0.042889
N7    N     N_R   0.452270 0.897640 0.058010 -0.046028
N8    N     N_R   0.547730 0.897640 0.941990 -0.042889
N9    N     N_R   0.026310 0.529110 0.206760 -0.061458
N10   N     N_R   0.973690 0.529110 0.793240 -0.063996
N11   N     N_R   0.526310 0.029110 0.206760 -0.061458
N12   N     N_R   0.473690 0.029110 0.793240 -0.063996
N13   N     N_R   0.818570 0.472310 0.793020 -0.064936
N14   N     N_R   0.181430 0.472310 0.206980 -0.070763
N15   N     N_R   0.318570 0.972310 0.793020 -0.064936
N16   N     N_R   0.681430 0.972310 0.206980 -0.070763
N17   N     N_R   0.026930 0.472300 0.207330 -0.064445
N18   N     N_R   0.973070 0.472300 0.792670 -0.063478
N19   N     N_R   0.526930 0.972300 0.207330 -0.064445
N20   N     N_R   0.473070 0.972300 0.792670 -0.063478
N21   N     N_R   0.817960 0.529130 0.792460 -0.061837
N22   N     N_R   0.182040 0.529130 0.207540 -0.059555
N23   N     N_R   0.317960 0.029130 0.792460 -0.061837
N24   N     N_R   0.682040 0.029130 0.207540 -0.059555
N25   N     N_R   0.894850 0.397640 0.943830 -0.041639
N26   N     N_R   0.105150 0.397640 0.056170 -0.045517
N27   N     N_R   0.394850 0.897640 0.943830 -0.041639
N28   N     N_R   0.605150 0.897640 0.056170 -0.045517
N29   N     N_R   0.950040 0.603780 0.055950 -0.044941
N30   N     N_R   0.049960 0.603780 0.944050 -0.045106
N31   N     N_R   0.450040 0.103780 0.055950 -0.044941
N32   N     N_R   0.549960 0.103780 0.944050 -0.045106
Ni1   Ni    Ni4+2 0.934160 0.565860 0.869070 0.197222
Ni2   Ni    Ni4+2 0.065840 0.565860 0.130930 0.201701
Ni3   Ni    Ni4+2 0.434160 0.065860 0.869070 0.197222
Ni4   Ni    Ni4+2 0.565840 0.065860 0.130930 0.201701
Ni5   Ni    Ni4+2 0.067260 0.435560 0.132230 0.206485
Ni6   Ni    Ni4+2 0.932740 0.435560 0.867770 0.212131
Ni7   Ni    Ni4+2 0.567260 0.935560 0.132230 0.206485
Ni8   Ni    Ni4+2 0.432740 0.935560 0.867770 0.212131
N33   N     N_3   0.012103 0.764846 0.811463 -0.221681
H45   H     H_    0.023740 0.757736 0.751750 0.100298
H46   H     H_    0.968673 0.799326 0.787747 0.120374
N34   N     N_3   0.778543 0.644158 0.171775 -0.220654
H47   H     H_    0.727794 0.627403 0.180315 0.123511
H48   H     H_    0.823195 0.669089 0.239901 0.109474
N35   N     N_3   0.512103 0.264846 0.811463 -0.221681
H49   H     H_    0.523740 0.257736 0.751750 0.100298
H50   H     H_    0.468673 0.299326 0.787747 0.120374
N36   N     N_3   0.278543 0.144159 0.171775 -0.220654
H51   H     H_    0.227794 0.127403 0.180315 0.123511
H52   H     H_    0.323195 0.169089 0.239901 0.109474
C113  C     C_1   0.268025 0.752770 0.296696 0.114106
N37   N     N_1   0.251909 0.755704 0.360970 -0.083306
C114  C     C_1   0.793668 0.739347 0.859218 0.127506
N38   N     N_1   0.871219 0.750633 0.895304 -0.087697
C115  C     C_1   0.768025 0.252770 0.296696 0.114106
N39   N     N_1   0.751909 0.255704 0.360970 -0.083306
C116  C     C_1   0.293668 0.239347 0.859218 0.127506
N40   N     N_1   0.371219 0.250633 0.895304 -0.087697
C117  C     C_1   0.927003 0.273450 0.214481 0.021884
N41   N     N_1   0.987884 0.256168 0.212775 -0.094970
C118  C     C_1   0.041160 0.273265 0.698267 0.004500
N42   N     N_1   0.968396 0.273262 0.614563 -0.076848
C119  C     C_1   0.427003 0.773450 0.214481 0.021884
N43   N     N_1   0.487884 0.756168 0.212775 -0.094970
C120  C     C_1   0.541160 0.773264 0.698267 0.004500
N44   N     N_1   0.468396 0.773262 0.614563 -0.076848
C121  C     C_1   0.880943 0.338026 0.301603 0.056277
N45   N     N_1   0.905103 0.371381 0.367960 -0.078190
C122  C     C_1   0.180455 0.327558 0.835761 0.060825
N46   N     N_1   0.217129 0.370316 0.860319 -0.089320
C123  C     C_1   0.380943 0.838026 0.301603 0.056277
N47   N     N_1   0.405103 0.871381 0.367960 -0.078190
C124  C     C_1   0.680455 0.827558 0.835761 0.060825
N48   N     N_1   0.717129 0.870316 0.860319 -0.089320
N49   N     N_3   0.106430 0.600566 0.344714 -0.220892
H53   H     H_    0.179150 0.594830 0.399621 0.116862
H54   H     H_    0.096908 0.622748 0.279598 0.106308
N50   N     N_3   0.930474 0.598777 0.657357 -0.219611
H55   H     H_    0.865086 0.589348 0.585220 0.098778
H56   H     H_    0.911306 0.619116 0.702248 0.086173
N51   N     N_3   0.606429 0.100566 0.344714 -0.220892
H57   H     H_    0.679150 0.094830 0.399621 0.116862
H58   H     H_    0.596908 0.122748 0.279598 0.106308
N52   N     N_3   0.430474 0.098777 0.657357 -0.219611
H59   H     H_    0.365086 0.089348 0.585220 0.098779
H60   H     H_    0.411306 0.119116 0.702248 0.086173
C125  C     C_1   0.731633 0.400094 0.654602 -0.009491
N53   N     N_1   0.722927 0.356422 0.618919 -0.088192
C126  C     C_1   0.301584 0.401485 0.307198 0.010672
N54   N     N_1   0.328742 0.359348 0.350464 -0.104687
C127  C     C_1   0.231633 0.900094 0.654602 -0.009491
N55   N     N_1   0.222927 0.856422 0.618919 -0.088192
C128  C     C_1   0.801584 0.901485 0.307198 0.010672
N56   N     N_1   0.828742 0.859348 0.350464 -0.104687
N57   N     N_3   0.102152 0.404349 0.353352 -0.218502
H61   H     H_    0.057176 0.380896 0.362967 0.107254
H62   H     H_    0.108644 0.383731 0.297169 0.113138
N58   N     N_3   0.945819 0.403168 0.659149 -0.200658
H63   H     H_    0.005808 0.378987 0.695301 0.106485
H64   H     H_    0.900665 0.385887 0.675956 0.121311
N59   N     N_3   0.602152 0.904349 0.353352 -0.218502
H65   H     H_    0.557176 0.880896 0.362966 0.107254
H66   H     H_    0.608644 0.883731 0.297169 0.113138
N60   N     N_3   0.445819 0.903168 0.659149 -0.200657
H67   H     H_    0.505808 0.878987 0.695301 0.106485
H68   H     H_    0.400665 0.885887 0.675956 0.121311
N61   N     N_3   0.728283 0.600016 0.653147 -0.229276
H69   H     H_    0.786146 0.624664 0.708770 0.095225
H70   H     H_    0.727480 0.597164 0.583452 0.103208
N62   N     N_3   0.301005 0.601826 0.285372 -0.224730
H71   H     H_    0.346790 0.603412 0.370367 0.111806
H72   H     H_    0.338439 0.613189 0.253735 0.099358
N63   N     N_3   0.228283 0.100016 0.653147 -0.229276
H73   H     H_    0.286146 0.124664 0.708770 0.095225
H74   H     H_    0.227480 0.097165 0.583452 0.103207
N64   N     N_3   0.801005 0.101826 0.285372 -0.224730
H75   H     H_    0.846790 0.103412 0.370368 0.111806
H76   H     H_    0.838439 0.113189 0.253736 0.099358
C129  C     C_1   0.394432 0.505109 0.517802 0.020196
N65   N     N_1   0.344800 0.507104 0.545247 -0.088319
C130  C     C_1   0.638112 0.495029 0.391564 0.024400
N66   N     N_1   0.690895 0.492719 0.368684 -0.091059
C131  C     C_1   0.894432 0.005109 0.517802 0.020196
N67   N     N_1   0.844800 0.007104 0.545247 -0.088319
C132  C     C_1   0.138112 0.995029 0.391564 0.024400
N68   N     N_1   0.190895 0.992720 0.368685 -0.091060

loop_
_geom_bond_atom_site_label_1
_geom_bond_atom_site_label_2
_ccdc_geom_bond_type
C53   C110  S    
C58   C62   S    
C105  H41   S    
N35   H49   S    
C63   C65   S    
C22   C29   S    
C5    C37   S    
C55   C112  S    
C15   C91   A    
C55   C59   A    
C32   H12   S    
C64   C116  S    
C19   C23   S    
C120  N44   T    
C34   C60   A    
C64   H20   S    
C72   C76   A    
C34   C66   S    
C83   H27   S    
C81   C82   S    
C33   C65   S    
N29   Ni2   S    
C46   H30   S    
C49   N33   S    
C115  N39   T    
C95   N59   S    
N11   Ni4   S    
N35   H50   S    
C127  N55   T    
C123  N47   T    
N12   Ni3   S    
C1    H1    S    
N14   N22   A    
N32   Ni3   S    
C103  N27   A    
C17   C26   S    
C7    C39   S    
C41   H13   S    
N1    N29   A    
C38   C42   A    
C36   C58   A    
C11   C76   S    
N2    Ni2   S    
C105  N29   A    
C106  C110  A    
N57   H61   S    
N22   Ni2   S    
C10   C73   S    
C93   N57   S    
N20   Ni8   S    
C10   C94   A    
C11   C95   A    
N63   H73   S    
C47   H31   S    
N50   H55   S    
C48   H32   S    
N33   H46   S    
N64   H75   S    
N3    N31   A    
C67   C119  S    
C70   C81   S    
C95   N19   A    
C14   C90   A    
C45   N5    A    
C69   C82   S    
C101  H37   S    
C1    C109  A    
C9    C85   A    
C87   N11   A    
N51   H57   S    
C11   C87   A    
N34   H47   S    
C88   N12   A    
C29   H9    S    
C66   C122  S    
C70   C74   A    
N52   H60   S    
C130  N66   T    
C6    C38   S    
C69   C73   A    
C63   H19   S    
N36   H51   S    
C98   N22   A    
C29   C30   S    
C96   N20   A    
N61   H69   S    
C18   H6    S    
C56   C111  S    
C51   C55   A    
C68   C124  S    
C17   H5    S    
C47   N7    A    
N16   N24   A    
C16   C27   S    
C23   C131  S    
C4    C112  A    
C19   H7    S    
C33   C59   A    
C7    C103  A    
C125  N53   T    
C90   C126  S    
C45   H29   S    
N15   N23   A    
C69   C70   A    
C18   C25   S    
C77   H21   S    
C89   C125  S    
N2    N30   A    
C28   C32   S    
N19   Ni7   S    
C34   C38   A    
C82   H34   S    
C51   N35   S    
C14   C98   A    
C40   C44   A    
C84   H36   S    
C25   C29   S    
C113  N37   T    
C5    C101  A    
N10   N18   A    
C46   N6    A    
N21   Ni1   S    
C12   C88   A    
C27   C31   S    
C102  N26   A    
N3    Ni3   S    
C36   C40   A    
C87   N51   S    
N4    Ni4   S    
C128  N56   T    
N24   Ni4   S    
C98   N62   S    
C118  N42   T    
N57   H62   S    
C50   N34   S    
C22   C130  S    
C43   C49   A    
N60   H68   S    
C89   N13   A    
C106  H42   S    
C117  N41   T    
C77   C78   A    
C5    C45   A    
N51   H58   S    
C86   N50   S    
N8    Ni8   S    
C108  C112  A    
C54   C109  S    
N58   H64   S    
C7    C47   A    
N12   N20   A    
C81   H25   S    
C116  N40   T    
C8    C48   A    
C114  N38   T    
C99   N23   A    
C119  N43   T    
N8    N28   A    
C21   C129  S    
N14   Ni5   S    
N49   H54   S    
C107  C111  A    
C61   C67   S    
C97   N21   A    
C122  N46   T    
C108  H44   S    
C24   C132  S    
N7    Ni7   S    
C62   C114  S    
N58   H63   S    
N6    Ni6   S    
C54   C58   A    
C17   C18   S    
C65   C121  S    
C3    N3    A    
N26   Ni5   S    
C61   C113  S    
C63   C115  S    
C57   C61   S    
C19   C28   S    
C8    C104  A    
C106  N30   A    
N31   Ni4   S    
N60   H67   S    
C22   C26   S    
N16   Ni7   S    
C102  H38   S    
C83   H35   S    
C88   N52   S    
C97   N61   S    
N5    Ni5   S    
C104  N28   A    
C41   C51   A    
N62   H72   S    
C16   C92   A    
C23   C27   S    
N13   N21   A    
N17   Ni5   S    
C52   N36   S    
C85   N49   S    
C13   C26   S    
C83   C84   S    
C68   C120  S    
C76   C80   A    
C9    C74   S    
N4    N32   A    
C17   C21   S    
C43   H15   S    
N59   H65   S    
C100  N24   A    
C100  N64   S    
C9    C93   A    
C103  H39   S    
C20   H8    S    
C124  N48   T    
C101  N25   A    
N11   N19   A    
C71   C84   S    
C91   C127  S    
C92   C128  S    
C44   C50   A    
N63   H74   S    
C21   C25   S    
C42   C52   A    
C44   H16   S    
C96   N60   S    
C6    C46   A    
N18   Ni6   S    
C13   C89   A    
C18   C22   S    
C94   N58   S    
C59   C63   S    
C4    H4    S    
C31   C32   S    
C16   C100  A    
C24   C28   S    
C67   C123  S    
C15   C99   A    
N15   Ni8   S    
N59   H66   S    
C53   C57   A    
C108  N32   A    
C39   C43   A    
C126  N54   T    
C36   C68   S    
C26   C30   S    
N13   Ni6   S    
C48   N8    A    
C20   C27   S    
C61   H17   S    
N28   Ni7   S    
C79   H23   S    
C21   C30   S    
C19   C20   S    
C81   H33   S    
C62   H18   S    
C80   H24   S    
N6    N26   A    
C91   N15   A    
C86   N10   A    
C60   C64   S    
N10   Ni1   S    
C85   N9    A    
C23   C32   S    
C104  H40   S    
N30   Ni1   S    
C1    N1    A    
C131  N67   T    
C24   C31   S    
C31   H11   S    
C90   N14   A    
C50   C54   A    
N61   H70   S    
C3    H3    S    
C75   C79   A    
C13   C97   A    
C71   C75   A    
C2    H2    S    
C10   C86   A    
C15   C28   S    
C4    N4    A    
C65   C117  S    
C105  C109  A    
N36   H52   S    
C92   N16   A    
C30   H10   S    
C35   C39   A    
N52   H59   S    
C93   N17   A    
C66   C118  S    
N50   H56   S    
C33   C37   A    
N5    N25   A    
N64   H76   S    
C62   C68   S    
C6    C102  A    
C14   C25   S    
C37   C41   A    
N33   H45   S    
N7    N27   A    
N1    Ni1   S    
C49   C53   A    
N9    Ni2   S    
C35   C67   S    
C42   H14   S    
C72   C83   S    
C3    C111  A    
C79   C80   A    
C78   H22   S    
C56   C60   A    
C71   C72   A    
N23   Ni3   S    
C2    N2    A    
C84   H28   S    
C82   H26   S    
C35   C57   A    
C74   C78   A    
C12   C75   S    
C94   N18   A    
C132  N68   T    
C73   C77   A    
C12   C96   A    
C107  N31   A    
C8    C40   S    
N25   Ni6   S    
N27   Ni8   S    
C129  N65   T    
N9    N17   A    
C99   N63   S    
C20   C24   S    
N34   H48   S    
C107  H43   S    
C52   C56   A    
N49   H53   S    
C64   C66   S    
N62   H71   S    
C121  N45   T    
C2    C110  A    
