data_mof_unit_5731.cif
_audit_creation_date              2012-12-11T14:42:04-0500
_audit_creation_method            fapswitch 2.2
_symmetry_space_group_name_H-M    P1
_symmetry_Int_Tables_number       1
_space_group_crystal_system       triclinic
_cell_length_a                    19.012007
_cell_length_b                    10.92972
_cell_length_c                    18.910204
_cell_angle_alpha                 90.119642
_cell_angle_beta                  90.714267
_cell_angle_gamma                 90.013504
_cell_volume                      3929.14907431

loop_
_atom_site_label
_atom_site_type_symbol
_atom_type_description
_atom_site_fract_x
_atom_site_fract_y
_atom_site_fract_z
_atom_type_partial_charge
C1    C     C_R   0.727419 0.955526 0.853494 0.543235
C2    C     C_R   0.246812 0.414834 0.924311 0.029086
C3    C     C_R   0.250626 0.914231 0.076567 0.028451
C4    C     C_R   0.746812 0.914834 0.924311 0.029086
C5    C     C_R   0.788836 0.321079 0.044538 -0.149700
C6    C     C_R   0.199640 0.338978 0.959395 -0.142223
C7    C     C_R   0.288834 0.821077 0.044539 -0.149701
C8    C     C_R   0.699641 0.838977 0.959395 -0.142223
C9    C     C_R   0.786198 0.308239 0.972085 -0.132372
C10   C     C_R   0.201884 0.331409 0.031805 -0.124398
C11   C     C_R   0.286196 0.808236 0.972086 -0.132373
C12   C     C_R   0.272344 0.955588 0.146611 0.550707
C13   C     C_R   0.701884 0.831408 0.031805 -0.124397
C14   C     C_R   0.742259 0.383607 0.930595 0.034707
C15   C     C_R   0.255158 0.390938 0.070878 0.033551
C16   C     C_R   0.242258 0.883606 0.930595 0.034706
C17   C     C_R   0.755158 0.890937 0.070877 0.033550
C18   C     C_R   0.469219 0.264381 0.544910 -0.168294
C19   C     C_R   0.463830 0.269987 0.472934 -0.169932
C20   C     C_R   0.969218 0.764381 0.544911 -0.168287
C21   C     C_R   0.963828 0.769987 0.472934 -0.169925
C22   C     C_R   0.484379 0.170108 0.431143 0.055576
C23   C     C_R   0.227419 0.455526 0.853494 0.543234
C24   C     C_R   0.496351 0.159648 0.576561 0.050746
C25   C     C_R   0.984378 0.670108 0.431143 0.055575
C26   C     C_R   0.996350 0.659648 0.576561 0.050743
C27   C     C_R   0.506316 0.060115 0.462272 0.083990
C28   C     C_R   0.509309 0.052693 0.536061 0.094727
C29   C     C_R   0.006315 0.560115 0.462272 0.083989
C30   C     C_R   0.009307 0.552693 0.536061 0.094726
C31   C     C_R   0.812967 0.392165 0.543277 -0.172676
C32   C     C_R   0.217355 0.304415 0.472390 -0.172628
C33   C     C_R   0.312967 0.892157 0.543277 -0.172672
C34   C     C_R   0.772344 0.455588 0.146610 0.550705
C35   C     C_R   0.717362 0.804407 0.472392 -0.172626
C36   C     C_R   0.819909 0.402548 0.471265 -0.155892
C37   C     C_R   0.213940 0.320036 0.544662 -0.163088
C38   C     C_R   0.319908 0.902540 0.471264 -0.155892
C39   C     C_R   0.713945 0.820032 0.544663 -0.163090
C40   C     C_R   0.530292 0.177236 0.850941 0.549028
C41   C     C_R   0.468898 0.177088 0.148571 0.569218
C42   C     C_R   0.030292 0.677236 0.850941 0.549027
C43   C     C_R   0.968898 0.677088 0.148571 0.569218
C44   C     C_R   0.761932 0.433778 0.428465 0.008503
C45   C     C_R   0.702666 0.484259 0.036237 -0.131799
C46   C     C_R   0.247780 0.419258 0.576454 0.008953
C47   C     C_R   0.261932 0.933778 0.428465 0.008510
C48   C     C_R   0.747780 0.919261 0.576453 0.008951
C49   C     C_R   0.697236 0.459759 0.459124 -0.124912
C50   C     C_R   0.289365 0.498315 0.535720 -0.128714
C51   C     C_R   0.197238 0.959770 0.459125 -0.124900
C52   C     C_R   0.789358 0.998326 0.535717 -0.128714
C53   C     C_R   0.689134 0.448640 0.532256 0.090943
C54   C     C_R   0.293575 0.482380 0.462623 0.072015
C55   C     C_R   0.189137 0.948652 0.532258 0.090946
C56   C     C_R   0.302084 0.471164 0.962227 -0.138901
C57   C     C_R   0.793568 0.982389 0.462621 0.072008
C58   C     C_R   0.747480 0.409824 0.574396 0.052200
C59   C     C_R   0.255795 0.386426 0.430517 0.069574
C60   C     C_R   0.247481 0.909825 0.574396 0.052197
C61   C     C_R   0.755796 0.886424 0.430517 0.069572
C62   C     C_R   0.736538 0.356763 0.855383 0.546735
C63   C     C_R   0.262764 0.359171 0.145359 0.551152
C64   C     C_R   0.236538 0.856763 0.855383 0.546735
C65   C     C_R   0.762764 0.859171 0.145359 0.551152
C66   C     C_R   0.727810 0.955864 0.647355 0.548155
C67   C     C_R   0.202667 0.984260 0.036237 -0.131799
C68   C     C_R   0.274326 0.959715 0.354375 0.546719
C69   C     C_R   0.227810 0.455863 0.647355 0.548156
C70   C     C_R   0.774326 0.459715 0.354375 0.546717
C71   C     C_R   0.528434 0.174659 0.645577 0.569597
C72   C     C_R   0.467725 0.176761 0.356918 0.574144
C73   C     C_R   0.028433 0.674659 0.645578 0.569596
C74   C     C_R   0.967725 0.676762 0.356918 0.574144
C75   C     C_R   0.738540 0.362012 0.645847 0.560330
C76   C     C_R   0.262156 0.357161 0.355691 0.578374
C77   C     C_R   0.238540 0.862012 0.645847 0.560329
C78   C     C_R   0.802084 0.971166 0.962228 -0.138900
C79   C     C_R   0.762156 0.857161 0.355691 0.578376
C80   C     C_2   0.498540 0.167102 0.920990 -0.102848
C81   C     C_2   0.498266 0.165063 0.077518 -0.078089
C82   C     C_2   0.998540 0.667101 0.920990 -0.102847
C83   C     C_2   0.998266 0.665063 0.077518 -0.078089
C84   C     C_2   0.484992 0.065513 0.036494 0.107692
C85   C     C_2   0.501186 0.063553 0.960465 0.069639
C86   C     C_2   0.984994 0.565512 0.036495 0.107693
C87   C     C_2   0.001187 0.563552 0.960465 0.069641
C88   C     C_R   0.698231 0.468493 0.963256 -0.139979
C89   C     C_R   0.750626 0.414231 0.076566 0.028452
C90   C     C_R   0.306560 0.458518 0.035524 -0.142060
C91   C     C_R   0.198231 0.968493 0.963256 -0.139979
C92   C     C_R   0.806559 0.958520 0.035525 -0.142059
Cr1   Cr    Cr6+3 0.769270 0.163730 0.750710 1.012786
Cr2   Cr    Cr6+3 0.385840 0.322500 0.252290 1.035314
Cr3   Cr    Cr6+3 0.114160 0.822500 0.747710 1.033224
Cr4   Cr    Cr6+3 0.885840 0.822500 0.252290 1.035315
Cr5   Cr    Cr6+3 0.230730 0.163730 0.249290 1.016833
Cr6   Cr    Cr6+3 0.269270 0.663730 0.750710 1.012786
Cr7   Cr    Cr6+3 0.730730 0.663730 0.249290 1.016832
Cr8   Cr    Cr6+3 0.612620 0.009790 0.748780 1.025826
Cr9   Cr    Cr6+3 0.387380 0.009790 0.251220 1.055766
Cr10  Cr    Cr6+3 0.112620 0.509790 0.748780 1.025826
Cr11  Cr    Cr6+3 0.887380 0.509790 0.251220 1.055766
Cr12  Cr    Cr6+3 0.614160 0.322500 0.747710 1.033225
H1    H     H_    0.871427 0.387078 0.449301 0.143928
H2    H     H_    0.480286 0.251923 0.944468 0.080003
H3    H     H_    0.023710 0.745145 0.055569 0.067589
H4    H     H_    0.980287 0.751922 0.944469 0.080003
H5    H     H_    0.661997 0.523987 0.932455 0.120282
H6    H     H_    0.349629 0.501320 0.064296 0.124048
H7    H     H_    0.161998 0.023989 0.932455 0.120282
H8    H     H_    0.849628 0.001322 0.064296 0.124047
H9    H     H_    0.671530 0.555444 0.060405 0.127196
H10   H     H_    0.340156 0.527867 0.935649 0.120619
H11   H     H_    0.171531 0.055447 0.060405 0.127197
H12   H     H_    0.181907 0.258109 0.575210 0.126142
H13   H     H_    0.840155 0.027870 0.935649 0.120620
H14   H     H_    0.825045 0.264441 0.074722 0.131272
H15   H     H_    0.157840 0.291072 0.931439 0.127374
H16   H     H_    0.325043 0.764438 0.074723 0.131273
H17   H     H_    0.657841 0.791070 0.931438 0.127375
H18   H     H_    0.819044 0.238790 0.948660 0.136438
H19   H     H_    0.162223 0.275733 0.056775 0.133537
H20   H     H_    0.319041 0.738786 0.948660 0.136438
H21   H     H_    0.662225 0.775731 0.056775 0.133538
H22   H     H_    0.456727 0.345376 0.575493 0.141661
H23   H     H_    0.371425 0.887063 0.449299 0.143923
H24   H     H_    0.443107 0.353617 0.450199 0.153415
H25   H     H_    0.956726 0.845377 0.575493 0.141665
H26   H     H_    0.943105 0.853617 0.450199 0.153422
H27   H     H_    0.858508 0.364304 0.574248 0.136091
H28   H     H_    0.189790 0.227048 0.449333 0.140651
H29   H     H_    0.358507 0.864290 0.574246 0.136090
H30   H     H_    0.689802 0.727033 0.449335 0.140655
H31   H     H_    0.493214 0.886174 0.062366 0.242690
H32   H     H_    0.412374 0.931503 0.035204 0.244434
H33   H     H_    0.482447 0.929739 0.886881 0.250269
H34   H     H_    0.681917 0.758099 0.575212 0.126144
H35   H     H_    0.568229 0.940944 0.916544 0.275320
H36   H     H_    0.993223 0.386174 0.062367 0.242688
H37   H     H_    0.912381 0.431493 0.035208 0.244435
H38   H     H_    0.982445 0.429740 0.886880 0.250269
H39   H     H_    0.068227 0.440941 0.916542 0.275320
H40   H     H_    0.626434 0.552953 0.592762 0.219199
H41   H     H_    0.583729 0.489780 0.523728 0.210111
H42   H     H_    0.385254 0.566840 0.440818 0.214809
H43   H     H_    0.312648 0.653536 0.428225 0.236469
H44   H     H_    0.126447 0.052961 0.592777 0.219204
H45   H     H_    0.653325 0.489038 0.426224 0.116929
H46   H     H_    0.083737 0.989833 0.523733 0.210104
H47   H     H_    0.885237 0.066886 0.440819 0.214814
H48   H     H_    0.812618 0.153544 0.428212 0.236475
H49   H     H_    0.580331 0.939206 0.429871 0.232050
H50   H     H_    0.497224 0.882340 0.431112 0.218640
H51   H     H_    0.490233 0.872989 0.554762 0.202241
H52   H     H_    0.576665 0.911096 0.552122 0.242005
H53   H     H_    0.080331 0.439207 0.429872 0.232050
H54   H     H_    0.997224 0.382340 0.431113 0.218639
H55   H     H_    0.990231 0.372990 0.554762 0.202240
H56   H     H_    0.315318 0.576683 0.559657 0.136678
H57   H     H_    0.076663 0.411095 0.552122 0.242005
H58   H     H_    0.153328 0.989055 0.426226 0.116929
H59   H     H_    0.815304 0.076702 0.559653 0.136684
H60   H     H_    0.523712 0.245143 0.055570 0.067589
N1    N     N_3   0.455905 0.956049 0.066173 -0.557021
N2    N     N_3   0.527357 0.939016 0.569612 -0.595059
N3    N     N_3   0.027542 0.458935 0.418843 -0.610920
N4    N     N_3   0.027355 0.439016 0.569613 -0.595060
N5    N     N_3   0.515539 0.945308 0.930566 -0.643489
N6    N     N_3   0.955912 0.456045 0.066175 -0.557022
N7    N     N_3   0.015538 0.445307 0.930565 -0.643489
N8    N     N_3   0.621695 0.472667 0.562965 -0.580740
N9    N     N_3   0.333630 0.566106 0.421105 -0.612141
N10   N     N_3   0.121699 0.972690 0.562968 -0.580744
N11   N     N_3   0.833615 0.066124 0.421100 -0.612145
N12   N     N_3   0.527543 0.958934 0.418843 -0.610919
O1    O     O_R   0.784320 0.290430 0.830510 -0.528018
O2    O     O_R   0.456080 0.282180 0.333210 -0.536991
O3    O     O_R   0.043920 0.782180 0.666790 -0.509627
O4    O     O_R   0.956080 0.782180 0.333210 -0.536990
O5    O     O_R   0.679040 0.374160 0.674430 -0.467770
O6    O     O_R   0.320960 0.374160 0.325570 -0.468612
O7    O     O_R   0.179040 0.874160 0.674430 -0.467774
O8    O     O_R   0.820960 0.874160 0.325570 -0.468614
O9    O     O_3   0.665350 0.165340 0.749070 -0.252054
O10   O     O_3   0.334650 0.165340 0.250930 -0.267765
O11   O     O_3   0.165350 0.665340 0.749070 -0.252053
O12   O     O_R   0.215680 0.290430 0.169490 -0.524491
O13   O     O_3   0.834650 0.665340 0.250930 -0.267765
O14   O     O_R   0.762640 0.040960 0.825200 -0.506914
O15   O     O_R   0.237360 0.040960 0.174800 -0.509652
O16   O     O_R   0.262640 0.540960 0.825200 -0.506915
O17   O     O_R   0.737360 0.540960 0.174800 -0.509652
O18   O     O_R   0.667400 0.923970 0.829950 -0.538638
O19   O     O_R   0.332600 0.923970 0.170050 -0.502554
O20   O     O_R   0.167400 0.423970 0.829950 -0.538639
O21   O     O_R   0.832600 0.423970 0.170050 -0.502555
O22   O     O_R   0.553960 0.081340 0.821780 -0.507553
O23   O     O_R   0.284320 0.790430 0.830510 -0.528018
O24   O     O_R   0.446040 0.081340 0.178220 -0.452220
O25   O     O_R   0.053960 0.581340 0.821780 -0.507553
O26   O     O_R   0.946040 0.581340 0.178220 -0.452219
O27   O     O_R   0.543180 0.283240 0.826740 -0.518923
O28   O     O_R   0.456820 0.283240 0.173260 -0.526176
O29   O     O_R   0.043180 0.783240 0.826740 -0.518923
O30   O     O_R   0.956820 0.783240 0.173260 -0.526176
O31   O     O_R   0.678360 0.375140 0.822710 -0.505337
O32   O     O_R   0.321640 0.375140 0.177290 -0.502049
O33   O     O_R   0.178360 0.875140 0.822710 -0.505337
O34   O     O_R   0.715680 0.790430 0.169490 -0.524491
O35   O     O_R   0.821640 0.875140 0.177290 -0.502049
O36   O     O_R   0.785050 0.289380 0.670560 -0.533299
O37   O     O_R   0.214950 0.289380 0.329440 -0.533080
O38   O     O_R   0.285050 0.789380 0.670560 -0.533297
O39   O     O_R   0.714950 0.789380 0.329440 -0.533079
O40   O     O_R   0.763320 0.039990 0.676930 -0.508648
O41   O     O_R   0.236680 0.039990 0.323070 -0.511150
O42   O     O_R   0.263320 0.539990 0.676930 -0.508648
O43   O     O_R   0.736680 0.539990 0.323070 -0.511150
O44   O     O_R   0.668130 0.922920 0.670000 -0.509136
O45   O     O_R   0.554640 0.080370 0.673500 -0.462609
O46   O     O_R   0.331870 0.922920 0.330000 -0.518103
O47   O     O_R   0.168130 0.422920 0.670000 -0.509138
O48   O     O_R   0.831870 0.422920 0.330000 -0.518103
O49   O     O_R   0.445360 0.080370 0.326500 -0.470362
O50   O     O_R   0.054640 0.580370 0.673500 -0.462608
O51   O     O_R   0.945360 0.580370 0.326500 -0.470362
O52   O     O_R   0.543920 0.282180 0.666790 -0.509627

loop_
_geom_bond_atom_site_label_1
_geom_bond_atom_site_label_2
_ccdc_geom_bond_type
C44   C49   A    
Cr3   O29   S    
Cr5   O12   S    
C8    C13   A    
C71   O45   A    
C43   C83   S    
C71   O52   A    
C47   C68   S    
C11   H20   S    
C42   C82   S    
C72   O2    A    
C20   H25   S    
C4    C8    A    
H53   N3    S    
C62   O1    A    
C38   H23   S    
Cr9   O24   S    
Cr3   O11   S    
C37   H12   S    
Cr1   O14   S    
C79   O8    A    
C7    C11   A    
Cr12  O9    S    
H49   N12   S    
Cr11  O26   S    
Cr6   O11   S    
C21   C25   A    
Cr6   O23   S    
C51   H58   S    
C18   C24   A    
C31   C58   A    
Cr10  O25   S    
C18   C19   A    
C43   O26   A    
C3    C7    A    
C10   C15   A    
Cr11  O21   S    
C73   O50   A    
C8    H17   S    
H32   N1    S    
H51   N2    S    
Cr11  O51   S    
C82   C87   D    
C14   C62   S    
H42   N9    S    
C80   H2    S    
C19   H24   S    
Cr10  O50   S    
C26   C73   S    
H55   N4    S    
C42   O29   A    
Cr9   O49   S    
C25   C74   S    
Cr2   O2    S    
Cr12  O31   S    
C91   H7    S    
C67   H11   S    
C46   C69   S    
C31   H27   S    
C3    C12   S    
C53   N8    S    
H40   N8    S    
C57   N11   S    
H48   N11   S    
C76   O37   A    
Cr10  O11   S    
Cr2   O6    S    
C23   O20   A    
C77   O38   A    
C70   O48   A    
C40   C80   S    
C44   C70   S    
Cr11  O13   S    
C82   H4    S    
C29   C30   A    
C45   C89   A    
H33   N5    S    
Cr9   O46   S    
C28   N2    S    
C13   H21   S    
C1    O14   A    
C79   O39   A    
Cr12  O5    S    
Cr6   O38   S    
C39   H34   S    
C41   C81   S    
Cr4   O35   S    
Cr5   O37   S    
C55   C60   A    
C43   O30   A    
C2    C6    A    
C17   C92   A    
Cr4   O8    S    
C41   O24   A    
C76   O6    A    
C35   H30   S    
C22   C72   S    
C23   O16   A    
C58   C75   S    
Cr12  O52   S    
C54   C59   A    
C25   C29   A    
Cr5   O10   S    
C75   O36   A    
C68   O46   A    
C60   C77   S    
H41   N8    S    
H47   N11   S    
C69   O42   A    
Cr3   O33   S    
Cr12  O27   S    
Cr2   O10   S    
C19   C22   A    
Cr2   O32   S    
C84   C85   S    
Cr6   O16   S    
C10   H19   S    
Cr7   O13   S    
Cr1   O1    S    
C86   C87   S    
C92   H8    S    
C47   C51   A    
C50   H56   S    
H44   N10   S    
C69   O47   A    
Cr4   O13   S    
C35   C39   A    
C9    C14   A    
C55   N10   S    
C5    C9    A    
C80   C85   D    
C45   H9    S    
Cr11  O48   S    
C11   C16   A    
Cr4   O30   S    
H39   N7    S    
C40   O27   A    
H52   N2    S    
C87   N7    S    
C78   H13   S    
Cr1   O36   S    
C67   C91   A    
C9    H18   S    
C65   O34   A    
C35   C61   A    
C50   C54   A    
C32   C37   A    
Cr4   O4    S    
C41   O28   A    
C15   C63   S    
C38   C47   A    
C42   O25   A    
C66   O44   A    
C88   H5    S    
C34   O17   A    
Cr3   O3    S    
H46   N10   S    
Cr7   O43   S    
C26   C30   A    
C33   C60   A    
C72   O49   A    
Cr6   O42   S    
C45   C88   A    
C22   C27   A    
C12   O19   A    
Cr5   O41   S    
H54   N3    S    
C36   C44   A    
Cr2   O28   S    
C84   N1    S    
Cr9   O10   S    
C75   O5    A    
C62   O31   A    
C32   H28   S    
C81   C84   D    
C54   N9    S    
C2    C23   S    
H50   N12   S    
C68   O41   A    
C12   O15   A    
Cr7   O17   S    
H36   N6    S    
C74   O51   A    
C36   H1    S    
C86   N6    S    
C7    H16   S    
C3    C67   A    
C24   C28   A    
C20   C26   A    
Cr10  O20   S    
C27   N12   S    
C6    C10   A    
C53   C58   A    
H43   N9    S    
C57   C61   A    
C6    H15   S    
Cr8   O18   S    
C81   H60   S    
C4    C78   A    
Cr8   O9    S    
C46   C50   A    
C17   C65   S    
C70   O43   A    
C49   H45   S    
C5    H14   S    
C63   O32   A    
C1    C4    S    
C78   C92   A    
C29   N3    S    
C1    O18   A    
H31   N1    S    
C34   C89   S    
C30   N4    S    
C2    C56   A    
C18   H22   S    
C15   C90   A    
Cr10  O47   S    
C34   O21   A    
Cr3   O7    S    
Cr7   O39   S    
Cr8   O45   S    
C61   C79   S    
C49   C53   A    
C40   O22   A    
C56   C90   A    
H37   N6    S    
C77   O7    A    
C83   H3    S    
H35   N5    S    
C51   C55   A    
C66   O40   A    
C64   O33   A    
C85   N5    S    
C21   H26   S    
C65   O35   A    
H57   N4    S    
C52   C57   A    
C52   H59   S    
C14   C88   A    
C13   C17   A    
C73   O3    A    
C33   H29   S    
Cr5   O15   S    
C83   C86   D    
C74   O4    A    
C20   C21   A    
Cr8   O44   S    
C16   C91   A    
C63   O12   A    
C64   O23   A    
C27   C28   A    
C56   H10   S    
C31   C36   A    
H38   N7    S    
C33   C38   A    
C16   C64   S    
C32   C59   A    
C48   C66   S    
C37   C46   A    
C48   C52   A    
C59   C76   S    
Cr7   O34   S    
C5    C89   A    
Cr9   O19   S    
C24   C71   S    
Cr1   O9    S    
C39   C48   A    
Cr1   O40   S    
C90   H6    S    
Cr8   O22   S    
