data_mof_unit_10155.cif
_audit_creation_date              2012-12-10T20:42:41-0500
_audit_creation_method            fapswitch 2.2
_symmetry_space_group_name_H-M    P1
_symmetry_Int_Tables_number       1
_space_group_crystal_system       triclinic
_cell_length_a                    8.894632
_cell_length_b                    10.721969
_cell_length_c                    9.909705
_cell_angle_alpha                 89.410755
_cell_angle_beta                  89.663517
_cell_angle_gamma                 90.563701
_cell_volume                      944.955855911

loop_
_atom_site_label
_atom_site_type_symbol
_atom_type_description
_atom_site_fract_x
_atom_site_fract_y
_atom_site_fract_z
_atom_type_partial_charge
C1    C     C_R   0.504320 0.260268 0.500259 0.902781
C2    C     C_R   0.505602 0.938233 0.372932 0.696726
C3    C     C_R   0.520097 0.871771 0.495392 -0.285807
C4    C     C_R   0.562353 0.935255 0.611574 0.001138
C5    C     C_3   0.513485 0.927217 0.756917 0.494405
C6    C     C_3   0.520906 0.070173 0.757196 -0.400861
C7    C     C_R   0.371436 0.474539 0.071965 0.220582
C8    C     C_R   0.621041 0.543981 0.069341 -0.163750
C9    C     C_R   0.621390 0.541414 0.925913 0.692583
C10   C     C_R   0.370802 0.476084 0.930241 0.153064
C11   C     C_3   0.272888 0.362700 0.925817 -0.429540
C12   C     C_R   0.218875 0.499941 0.500227 0.919604
C13   C     C_3   0.276206 0.359741 0.079430 -0.443362
C14   C     C_R   0.502062 0.739919 0.499062 0.934995
C15   C     C_R   0.781130 0.500155 0.499765 0.942188
C16   C     C_1   0.065455 0.500057 0.500320 -0.155586
C17   C     C_1   0.934542 0.500137 0.499618 -0.125012
C18   C     C_R   0.567842 0.062773 0.612004 -0.003054
C19   C     C_R   0.524805 0.129083 0.497401 -0.171181
C20   C     C_R   0.508011 0.066728 0.374508 -0.267726
H1    H     H_    0.485617 0.116204 0.280998 0.203740
H2    H     H_    0.329332 0.282569 0.878927 0.230728
H3    H     H_    0.164707 0.377476 0.126275 0.228177
H4    H     H_    0.337339 0.278446 0.121805 0.229690
H5    H     H_    0.409774 0.114847 0.769478 0.137341
H6    H     H_    0.159837 0.383647 0.884584 0.232908
N1    N     N_R   0.499010 0.499140 0.142800 -0.171604
N2    N     N_R   0.499010 0.499180 0.857150 -0.158558
O1    O     O_R   0.500020 0.316790 0.614690 -0.633446
O2    O     O_R   0.500000 0.316760 0.385350 -0.634662
O3    O     O_R   0.285350 0.500020 0.614650 -0.613949
O4    O     O_R   0.285340 0.499980 0.385310 -0.621198
O5    O     O_R   0.500000 0.683240 0.614650 -0.593045
O6    O     O_R   0.499980 0.683210 0.385310 -0.521686
O7    O     O_R   0.714660 0.500020 0.614690 -0.543169
O8    O     O_R   0.714650 0.499980 0.385350 -0.638592
Zn1   Zn    Zn3+2 0.500010 0.500020 0.653130 1.049384
Zn2   Zn    Zn3+2 0.499990 0.499980 0.346870 1.015719
F1    F     F_    0.475716 0.881232 0.254116 -0.592835
C21   C     C_2   0.357471 0.874034 0.780922 0.897931
O9    O     O_2   0.251476 0.909802 0.713056 -0.636165
O10   O     O_R   0.335128 0.783186 0.881355 -0.723322
H7    H     H_    0.226689 0.753606 0.887712 0.359532
F2    F     F_    0.621200 0.870078 0.836390 -0.564450
C22   C     C_2   0.641734 0.125577 0.845514 1.100220
O11   O     O_2   0.773964 0.099196 0.828127 -0.538109
O12   O     O_R   0.601213 0.207793 0.947590 -0.847395
H8    H     H_    0.691001 0.239831 0.999904 0.340052
C23   C     C_2   0.752312 0.600718 0.134957 1.087423
O13   O     O_2   0.736811 0.692646 0.205302 -0.540733
O14   O     O_R   0.895538 0.552958 0.110748 -0.801444
H9    H     H_    0.977209 0.600376 0.160183 0.342290
F3    F     F_    0.742904 0.585319 0.856471 -0.592958

loop_
_geom_bond_atom_site_label_1
_geom_bond_atom_site_label_2
_ccdc_geom_bond_type
C14   O6    A    
C7    C10   A    
C6    C22   S    
O4    Zn2   S    
C11   H2    S    
C21   O10   S    
C19   C20   A    
C4    C18   A    
C14   O5    A    
C1    O1    A    
C2    C3    A    
C9    N2    A    
C22   O11   D    
C12   O4    A    
C11   C13   S    
C13   H3    S    
C16   C17   T    
C3    C14   S    
N2    Zn1   S    
C4    C5    S    
C2    F1    S    
O8    Zn2   S    
C1    O2    A    
O7    Zn1   S    
C5    F2    S    
C18   C19   A    
C22   O12   S    
C12   O3    A    
C5    C6    S    
C6    C18   S    
O5    Zn1   S    
C1    C19   S    
C6    H5    S    
C9    F3    S    
C10   C11   S    
N1    Zn2   S    
C10   N2    A    
O14   H9    S    
O12   H8    S    
C12   C16   S    
C15   O8    A    
C7    C13   S    
C7    N1    A    
C20   H1    S    
O2    Zn2   S    
C23   O13   D    
O10   H7    S    
C5    C21   S    
C15   O7    A    
C15   C17   S    
C8    N1    A    
C21   O9    D    
C11   H6    S    
O6    Zn2   S    
C2    C20   A    
C8    C23   S    
O1    Zn1   S    
C3    C4    A    
C13   H4    S    
O3    Zn1   S    
C8    C9    A    
C23   O14   S    
