data_mof_unit_11352.cif
_audit_creation_date              2012-12-10T18:36:27-0500
_audit_creation_method            fapswitch 2.2
_symmetry_space_group_name_H-M    P1
_symmetry_Int_Tables_number       1
_space_group_crystal_system       triclinic
_cell_length_a                    13.836898
_cell_length_b                    15.100537
_cell_length_c                    15.796535
_cell_angle_alpha                 90.491122
_cell_angle_beta                  70.08688
_cell_angle_gamma                 90.416799
_cell_volume                      3103.11085872

loop_
_atom_site_label
_atom_site_type_symbol
_atom_type_description
_atom_site_fract_x
_atom_site_fract_y
_atom_site_fract_z
_atom_type_partial_charge
C1    C     C_R   0.500553 0.669636 0.499528 0.781360
C2    C     C_R   0.498497 0.329652 0.502232 0.785774
C3    C     C_R   0.373073 0.488955 0.097908 -0.229944
C4    C     C_R   0.613314 0.440530 0.908441 -0.229173
C5    C     C_R   0.301845 0.494815 0.054204 -0.225863
C6    C     C_R   0.684152 0.432443 0.952323 -0.227750
C7    C     C_R   0.453279 0.903432 0.575767 -0.166947
C8    C     C_R   0.591225 0.095940 0.455966 -0.175871
C9    C     C_R   0.452252 0.811784 0.575322 -0.213941
C10   C     C_R   0.588547 0.187843 0.459210 -0.219837
C11   C     C_R   0.503023 0.765386 0.496051 -0.043570
C12   C     C_R   0.496383 0.232551 0.503925 -0.052774
C13   C     C_R   0.555633 0.810151 0.415043 0.082604
C14   C     C_R   0.405076 0.183285 0.547563 0.088315
C15   C     C_R   0.555463 0.903333 0.416521 -0.164542
C16   C     C_R   0.409364 0.090789 0.542432 -0.191400
C17   C     C_R   0.504182 0.949797 0.496498 0.073935
C18   C     C_R   0.501691 0.046987 0.497531 0.086418
C19   C     C_R   0.918110 0.546275 0.435983 -0.315163
C20   C     C_R   0.081843 0.544387 0.566195 -0.317307
C21   C     C_R   0.816440 0.545427 0.436176 0.066424
C22   C     C_R   0.183568 0.543575 0.565806 0.063589
C23   C     C_R   0.437734 0.500006 0.672524 0.807500
C24   C     C_R   0.562244 0.499078 0.327504 0.813706
C25   C     C_R   0.764071 0.455457 0.565583 0.045105
C26   C     C_R   0.235743 0.457093 0.432815 0.028690
C27   C     C_R   0.864807 0.455049 0.569545 -0.002894
C28   C     C_R   0.134944 0.456781 0.428994 -0.002906
C29   C     C_R   0.944739 0.500094 0.501818 0.104836
C30   C     C_R   0.055112 0.500070 0.498538 0.107436
C31   C     C_R   0.400109 0.497318 0.771359 -0.107198
C32   C     C_R   0.598955 0.489713 0.229075 -0.109724
C33   C     C_R   0.260487 0.503961 0.915676 0.263841
C34   C     C_R   0.730922 0.446507 0.088166 0.266748
C35   C     C_R   0.295568 0.505675 0.821020 -0.233855
C36   C     C_R   0.699984 0.464720 0.181115 -0.227117
C37   C     C_R   0.470476 0.485477 0.815709 -0.262331
C38   C     C_R   0.528603 0.498929 0.184416 -0.270782
C39   C     C_R   0.438886 0.480209 0.909785 0.051459
C40   C     C_R   0.553957 0.476612 0.093167 0.052397
C41   C     C_R   0.332987 0.492401 0.960155 0.089277
C42   C     C_R   0.657199 0.452439 0.044124 0.088730
C43   C     C_R   0.510997 0.466974 0.954849 0.090326
C44   C     C_R   0.479138 0.478475 0.049568 0.091637
Cu1   Cu    Cu3+1 0.403570 0.500010 0.500000 0.926663
Cu2   Cu    Cu3+1 0.596430 0.499990 0.500000 0.928694
H1    H     H_    0.222046 0.503569 0.095423 0.154877
H2    H     H_    0.760601 0.410247 0.912958 0.157012
H3    H     H_    0.975891 0.583514 0.384656 0.138611
H4    H     H_    0.024123 0.580201 0.619087 0.138123
H5    H     H_    0.797628 0.581542 0.385048 0.118484
H6    H     H_    0.202405 0.578228 0.618395 0.121062
H7    H     H_    0.703154 0.420003 0.615710 0.120151
H8    H     H_    0.296494 0.422799 0.381315 0.127586
H9    H     H_    0.453957 0.524496 0.222775 0.157950
H10   H     H_    0.550692 0.483525 0.775226 0.156322
H11   H     H_    0.753822 0.459089 0.216851 0.163410
H12   H     H_    0.241899 0.513373 0.785379 0.164282
H13   H     H_    0.341516 0.490036 0.170376 0.134677
H14   H     H_    0.640285 0.421800 0.838291 0.131165
H15   H     H_    0.414694 0.938225 0.638324 0.133617
H16   H     H_    0.663542 0.063068 0.421869 0.131559
H17   H     H_    0.412471 0.776766 0.637162 0.131483
H18   H     H_    0.658836 0.224227 0.425721 0.154703
H19   H     H_    0.593161 0.940603 0.356004 0.121533
H20   H     H_    0.340297 0.052246 0.574299 0.123577
N1    N     N_R   0.741310 0.499980 0.500000 -0.176482
N2    N     N_R   0.258690 0.500020 0.500000 -0.176656
O1    O     O_R   0.418570 0.628550 0.499990 -0.574989
O2    O     O_R   0.581430 0.371450 0.500010 -0.583545
O3    O     O_R   0.581440 0.628540 0.499990 -0.578343
O4    O     O_R   0.418560 0.371460 0.500010 -0.582356
O5    O     O_R   0.372890 0.500010 0.629830 -0.590504
O6    O     O_R   0.627110 0.499990 0.370170 -0.592870
O7    O     O_R   0.535760 0.500000 0.629840 -0.589925
O8    O     O_R   0.464240 0.500000 0.370160 -0.590123
C45   C     C_3   0.882386 0.408339 0.647681 -0.427117
C46   C     C_3   0.943347 0.322356 0.618603 -0.339524
C47   C     C_3   0.951640 0.273334 0.699892 -0.855118
H21   H     H_    0.987620 0.316723 0.738043 0.255439
H22   H     H_    0.874221 0.252518 0.745085 0.255733
H23   H     H_    0.999890 0.213454 0.676899 0.239262
H24   H     H_    0.904511 0.278567 0.583032 0.213798
H25   H     H_    0.022229 0.337020 0.572455 0.226364
H26   H     H_    0.922077 0.453397 0.681106 0.201175
H27   H     H_    0.807249 0.391886 0.699832 0.184452
C48   C     C_3   0.117015 0.411796 0.349330 -0.428906
C49   C     C_3   0.056996 0.324706 0.375494 -0.337958
C50   C     C_3   0.045274 0.278549 0.293182 -0.848953
H28   H     H_    0.003172 0.321721 0.261035 0.251846
H29   H     H_    0.121915 0.262431 0.243445 0.254710
H30   H     H_    0.001120 0.216035 0.314093 0.238910
H31   H     H_    0.098032 0.279877 0.407179 0.211674
H32   H     H_    0.979069 0.337481 0.424269 0.227060
H33   H     H_    0.076455 0.457249 0.318116 0.202222
H34   H     H_    0.191997 0.397128 0.296128 0.187960
N3    N     N_2   0.153531 0.512867 0.967189 -0.436207
H35   H     H_    0.122900 0.461407 0.010734 0.240898
C51   C     C_3   0.084109 0.550389 0.926380 -0.720129
H36   H     H_    0.010361 0.567087 0.979873 0.235347
H37   H     H_    0.068417 0.501733 0.879452 0.217215
H38   H     H_    0.116816 0.612441 0.890337 0.236491
N4    N     N_2   0.834570 0.421791 0.038033 -0.435529
H39   H     H_    0.870621 0.461052 0.983124 0.241299
C52   C     C_3   0.901178 0.389552 0.084416 -0.717509
H40   H     H_    0.970980 0.360121 0.034598 0.232208
H41   H     H_    0.861708 0.337120 0.133092 0.237945
H42   H     H_    0.925240 0.444967 0.119600 0.217998
C53   C     C_3   0.608410 0.756305 0.329783 -0.406689
C54   C     C_3   0.658409 0.809531 0.243328 -0.368401
C55   C     C_3   0.705822 0.747792 0.162906 -0.830202
H43   H     H_    0.645793 0.704341 0.152190 0.259552
H44   H     H_    0.741715 0.787623 0.101269 0.240949
H45   H     H_    0.765925 0.705900 0.174220 0.250821
H46   H     H_    0.599570 0.851049 0.229411 0.223463
H47   H     H_    0.720039 0.852964 0.251222 0.217538
H48   H     H_    0.668674 0.714910 0.341598 0.201217
H49   H     H_    0.550246 0.710982 0.318335 0.192827
C56   C     C_3   0.303404 0.225116 0.603209 -0.409335
C57   C     C_3   0.308735 0.265004 0.691213 -0.312048
C58   C     C_3   0.206300 0.306073 0.747366 -0.849535
H50   H     H_    0.186617 0.361196 0.710081 0.259804
H51   H     H_    0.144336 0.255286 0.763818 0.249234
H52   H     H_    0.211692 0.332453 0.811405 0.246696
H53   H     H_    0.328216 0.212134 0.731178 0.211288
H54   H     H_    0.369403 0.316684 0.677024 0.214507
H55   H     H_    0.278810 0.274863 0.563614 0.224056
H56   H     H_    0.241119 0.174369 0.621216 0.182232

loop_
_geom_bond_atom_site_label_1
_geom_bond_atom_site_label_2
_ccdc_geom_bond_type
C48   C49   S    
C27   C29   A    
C3    H13   S    
C55   H43   S    
C34   C42   A    
C21   H5    S    
C2    C12   S    
N3    H35   S    
C53   H48   S    
C39   C41   A    
C20   C30   A    
Cu1   Cu2   S    
C5    H1    S    
C1    O3    A    
C6    H2    S    
C35   H12   S    
C32   C36   A    
C19   C21   A    
C25   H7    S    
C57   H54   S    
C15   H19   S    
Cu1   O5    S    
C54   C55   S    
C7    H15   S    
C58   H52   S    
C20   H4    S    
C37   H10   S    
C46   H24   S    
N4    C52   S    
C38   H9    S    
C7    C17   A    
C48   H33   S    
C13   C53   S    
C32   C38   A    
C50   H29   S    
C33   N3    S    
C56   H56   S    
C40   C42   A    
C45   H26   S    
C9    H17   S    
C21   N1    A    
Cu1   O4    S    
C23   O5    A    
C2    O4    A    
C26   H8    S    
Cu2   O7    S    
N3    C51   S    
C53   H49   S    
C52   H42   S    
C49   H32   S    
C3    C44   A    
Cu2   O2    S    
Cu1   O1    S    
C4    C6    A    
C36   H11   S    
C28   C48   S    
C23   O7    A    
C47   H22   S    
C57   H53   S    
C24   O8    A    
C39   C43   A    
C27   C45   S    
C45   C46   S    
C1    O1    A    
C31   C37   A    
C25   N1    A    
C23   C31   S    
C43   C44   A    
C24   C32   S    
C29   C30   S    
C52   H41   S    
C19   H3    S    
C51   H36   S    
C48   H34   S    
C4    H14   S    
Cu1   N2    S    
C17   C18   S    
C58   H50   S    
C55   H44   S    
C50   H30   S    
C9    C11   A    
C22   N2    A    
Cu2   O3    S    
C10   C12   A    
C16   C18   A    
C51   H37   S    
C12   C14   A    
C45   H27   S    
C13   C15   A    
C14   C16   A    
C16   H20   S    
C19   C29   A    
C54   H47   S    
Cu2   O6    S    
C57   C58   S    
C22   H6    S    
C7    C9    A    
C5    C41   A    
C49   H31   S    
C46   C47   S    
C10   H18   S    
C20   C22   A    
C3    C5    A    
C47   H23   S    
C56   C57   S    
C15   C17   A    
C4    C43   A    
C25   C27   A    
C52   H40   S    
C26   C28   A    
C34   N4    S    
C26   N2    A    
C28   C30   A    
C33   C41   A    
Cu2   N1    S    
C37   C39   A    
C53   C54   S    
C38   C40   A    
C11   C13   A    
C24   O6    A    
C31   C35   A    
Cu1   O8    S    
C33   C35   A    
C55   H45   S    
C34   C36   A    
C8    C18   A    
C58   H51   S    
C47   H21   S    
C46   H25   S    
C40   C44   A    
C51   H38   S    
C49   C50   S    
C8    C10   A    
C14   C56   S    
C6    C42   A    
N4    H39   S    
C1    C11   S    
C50   H28   S    
C2    O2    A    
C54   H46   S    
C8    H16   S    
C56   H55   S    
