data_mof_unit_12157.cif
_audit_creation_date              2012-12-11T15:08:33-0500
_audit_creation_method            fapswitch 2.2
_symmetry_space_group_name_H-M    P1
_symmetry_Int_Tables_number       1
_space_group_crystal_system       triclinic
_cell_length_a                    26.797525
_cell_length_b                    7.085928
_cell_length_c                    11.95176
_cell_angle_alpha                 90.000282
_cell_angle_beta                  103.34254
_cell_angle_gamma                 89.999545
_cell_volume                      2208.20610263

loop_
_atom_site_label
_atom_site_type_symbol
_atom_type_description
_atom_site_fract_x
_atom_site_fract_y
_atom_site_fract_z
_atom_type_partial_charge
O1    O     O_R   0.437360 0.505910 0.042120 -0.536984
O2    O     O_R   0.562640 0.005910 0.957880 -0.536983
O3    O     O_R   0.542480 0.176660 0.157100 -0.534010
O4    O     O_R   0.457520 0.676660 0.842900 -0.534015
C1    C     C_R   0.556859 0.344321 0.198184 0.696147
C2    C     C_R   0.443141 0.844321 0.801815 0.696124
O5    O     O_R   0.436520 0.176250 0.054800 -0.542944
O6    O     O_R   0.563480 0.676250 0.945200 -0.542946
O7    O     O_R   0.455920 0.005040 0.854840 -0.539092
O8    O     O_R   0.544080 0.505040 0.145160 -0.539096
C3    C     C_R   0.416718 0.344733 0.060442 0.723573
C4    C     C_R   0.583283 0.844731 0.939560 0.723563
O9    O     O_3   0.506490 0.338900 0.934520 -0.374383
O10   O     O_3   0.493510 0.838900 0.065480 -0.374376
V1    V     V_3+5 0.498800 0.064400 0.012150 1.461523
V2    V     V_3+5 0.501200 0.564400 0.987850 1.461510
C5    C     C_R   0.680519 0.892641 0.755633 0.151853
C6    C     C_R   0.319478 0.392622 0.244345 0.151804
H1    H     H_    0.777994 0.917186 0.725113 0.147144
H2    H     H_    0.222005 0.417473 0.274849 0.147145
C7    C     C_R   0.632192 0.855528 0.903287 -0.084446
C8    C     C_R   0.367808 0.355538 0.096704 -0.084412
C9    C     C_R   0.868091 0.856891 0.212227 -0.202393
C10   C     C_R   0.131903 0.356770 0.787765 -0.202398
C11   C     C_R   0.822588 0.869832 0.248191 -0.148677
C12   C     C_R   0.177404 0.369664 0.751791 -0.148670
C13   C     C_R   0.775338 0.880366 0.168577 -0.035069
C14   C     C_R   0.224656 0.380246 0.831396 -0.035057
C15   C     C_R   0.772851 0.863960 0.047637 0.042088
C16   C     C_R   0.227147 0.363939 0.952344 0.042083
C17   C     C_R   0.820388 0.865231 0.012474 0.063426
C18   C     C_R   0.179611 0.365277 0.987510 0.063430
C19   C     C_R   0.725872 0.857104 0.959829 0.031945
C20   C     C_R   0.274126 0.357101 0.040154 0.031929
C21   C     C_R   0.727103 0.880474 0.841827 0.094686
C22   C     C_R   0.272895 0.380501 0.158154 0.094754
C23   C     C_R   0.774780 0.893425 0.812492 -0.192739
C24   C     C_R   0.225220 0.393582 0.187484 -0.192739
C25   C     C_R   0.820177 0.878949 0.895207 -0.205592
C26   C     C_R   0.179822 0.379115 0.104773 -0.205618
C27   C     C_R   0.677771 0.819894 0.984280 -0.266804
C28   C     C_R   0.322230 0.319894 0.015709 -0.266828
C29   C     C_R   0.633559 0.906476 0.790341 0.128706
C30   C     C_R   0.366438 0.406478 0.209648 0.128647
C31   C     C_R   0.867673 0.860440 0.095512 -0.075331
C32   C     C_R   0.132325 0.360430 0.904479 -0.075324
H3    H     H_    0.674524 0.763588 0.066002 0.134712
H4    H     H_    0.325482 0.263585 0.933991 0.134730
H5    H     H_    0.904106 0.853204 0.276108 0.109798
H6    H     H_    0.095887 0.353028 0.723888 0.109796
H7    H     H_    0.824493 0.879477 0.339669 0.139838
H8    H     H_    0.175497 0.379223 0.660308 0.139841
H9    H     H_    0.855514 0.885612 0.866065 0.125937
H10   H     H_    0.144486 0.385877 0.133912 0.125944
C33   C     C_R   0.091550 0.864598 0.311823 -0.034334
C34   C     C_R   0.908449 0.364605 0.688179 -0.034339
C35   C     C_R   0.408195 0.853237 0.686726 -0.084475
C36   C     C_R   0.591804 0.353238 0.313274 -0.084475
C37   C     C_R   0.105486 0.884211 0.518469 -0.163746
C38   C     C_R   0.894514 0.384329 0.481537 -0.163749
C39   C     C_R   0.072153 0.868298 0.410575 -0.178548
C40   C     C_R   0.927847 0.368381 0.589428 -0.178541
C41   C     C_R   0.144424 0.878065 0.320958 -0.216876
C42   C     C_R   0.855574 0.378031 0.679045 -0.216876
C43   C     C_R   0.179235 0.896455 0.429504 0.083381
C44   C     C_R   0.820763 0.396463 0.570503 0.083405
C45   C     C_R   0.158649 0.898384 0.528800 0.130538
C46   C     C_R   0.841349 0.398465 0.471207 0.130532
C47   C     C_R   0.233595 0.909102 0.442780 0.043124
C48   C     C_R   0.766403 0.409090 0.557228 0.043114
C49   C     C_R   0.266595 0.915888 0.555737 0.068872
C50   C     C_R   0.733403 0.415919 0.444272 0.068844
C51   C     C_R   0.243957 0.922034 0.651355 -0.161561
C52   C     C_R   0.756041 0.422136 0.348656 -0.161539
C53   C     C_R   0.191127 0.913843 0.637775 -0.209170
C54   C     C_R   0.808873 0.413970 0.362234 -0.209173
C55   C     C_R   0.256102 0.911737 0.346896 -0.206611
C56   C     C_R   0.743895 0.411679 0.653112 -0.206776
C57   C     C_R   0.308764 0.902696 0.360391 -0.195149
C58   C     C_R   0.691232 0.402650 0.639616 -0.195196
C59   C     C_R   0.341060 0.890450 0.469575 0.096374
C60   C     C_R   0.658937 0.390433 0.530430 0.096520
C61   C     C_R   0.321065 0.906195 0.569063 0.091749
C62   C     C_R   0.678932 0.406205 0.430944 0.091684
C63   C     C_R   0.392854 0.848666 0.479298 -0.171533
C64   C     C_R   0.607142 0.348652 0.520702 -0.171370
C65   C     C_R   0.425052 0.812031 0.586332 -0.038878
C66   C     C_R   0.574947 0.312014 0.413664 -0.038926
C67   C     C_R   0.356568 0.902228 0.677533 -0.169212
C68   C     C_R   0.643430 0.402245 0.322473 -0.169200
H11   H     H_    0.175556 0.916730 0.713841 0.139142
H12   H     H_    0.824444 0.416917 0.286170 0.139144
H13   H     H_    0.345054 0.928242 0.756799 0.103059
H14   H     H_    0.654945 0.428268 0.243210 0.103076
H15   H     H_    0.324206 0.896485 0.284190 0.145575
H16   H     H_    0.675790 0.396410 0.715817 0.145592
H17   H     H_    0.089647 0.886688 0.594118 0.116555
H18   H     H_    0.910355 0.386867 0.405890 0.116553
H19   H     H_    0.031179 0.861474 0.403931 0.101133
H20   H     H_    0.968822 0.361594 0.596074 0.101131
H21   H     H_    0.156764 0.874833 0.241377 0.102242
H22   H     H_    0.843234 0.374743 0.758626 0.102248
H23   H     H_    0.266076 0.929967 0.738716 0.128111
H24   H     H_    0.733923 0.430120 0.261297 0.128113
H25   H     H_    0.234160 0.917815 0.259392 0.140400
H26   H     H_    0.765836 0.417721 0.740619 0.140439
H27   H     H_    0.407301 0.831197 0.402488 0.140110
H28   H     H_    0.592693 0.331188 0.597510 0.140081
O11   O     O_R   0.955980 0.206520 0.854760 -0.539133
O12   O     O_R   0.044020 0.706520 0.145240 -0.539135
O13   O     O_R   0.063490 0.536770 0.945200 -0.540005
O14   O     O_R   0.936510 0.036770 0.054800 -0.539999
C69   C     C_R   0.082702 0.368312 0.937237 0.683356
C70   C     C_R   0.917297 0.868313 0.062759 0.683355
O15   O     O_R   0.957530 0.536190 0.842880 -0.540188
O16   O     O_R   0.042470 0.036190 0.157120 -0.540184
O17   O     O_R   0.937350 0.707210 0.042130 -0.538032
O18   O     O_R   0.062650 0.207210 0.957870 -0.538026
C71   C     C_R   0.943347 0.368176 0.802213 0.691339
C72   C     C_R   0.056652 0.868176 0.197788 0.691339
O19   O     O_3   0.993540 0.373870 0.065440 -0.373544
O20   O     O_3   0.006460 0.873870 0.934560 -0.373544
V3    V     V_3+5 0.001200 0.648440 0.987860 1.418540
V4    V     V_3+5 0.998800 0.148440 0.012140 1.418557
C73   C     C_3   0.585417 0.984361 0.712310 -0.729883
H29   H     H_    0.587486 0.001340 0.621738 0.220233
H30   H     H_    0.552621 0.892347 0.714804 0.205040
H31   H     H_    0.577188 0.124847 0.744973 0.198660
C74   C     C_3   0.414576 0.484339 0.287708 -0.729962
H32   H     H_    0.412491 0.501262 0.378277 0.220293
H33   H     H_    0.447375 0.392337 0.285217 0.205066
H34   H     H_    0.422807 0.624844 0.255072 0.198675
C75   C     C_1   0.472541 0.714445 0.589031 0.291251
N1    N     N_1   0.509836 0.631971 0.589139 -0.370024
C76   C     C_1   0.527461 0.214398 0.410951 0.291231
N2    N     N_1   0.490169 0.131897 0.410826 -0.370037
C77   C     C_3   0.680574 0.884409 0.628683 -0.758794
H35   H     H_    0.710987 0.789717 0.612564 0.212073
H36   H     H_    0.644748 0.821367 0.577021 0.228207
H37   H     H_    0.686381 0.026408 0.595895 0.225064
C78   C     C_3   0.319440 0.384293 0.371301 -0.758824
H38   H     H_    0.288951 0.289971 0.387423 0.212064
H39   H     H_    0.355221 0.320741 0.422834 0.228232
H40   H     H_    0.313800 0.526344 0.404217 0.225107
C79   C     C_1   0.732529 0.934480 0.216240 0.267786
N3    N     N_1   0.698557 0.978350 0.255371 -0.365138
C80   C     C_1   0.267463 0.434277 0.783704 0.267771
N4    N     N_1   0.301432 0.478077 0.744547 -0.365120

loop_
_geom_bond_atom_site_label_1
_geom_bond_atom_site_label_2
_ccdc_geom_bond_type
C44   C46   A    
C41   C43   A    
C9    C31   A    
C48   C56   A    
C65   C75   S    
C47   C55   A    
C80   N4    T    
O1    C3    A    
C41   H21   S    
O2    C4    A    
C29   C73   S    
C2    O7    A    
O14   C70   A    
C79   N3    T    
C76   N2    T    
C44   C48   A    
C12   C14   A    
O5    C3    A    
C77   H36   S    
C52   C54   A    
C1    C36   S    
C21   C23   A    
C10   C12   A    
O14   V4    S    
C12   H8    S    
C78   H39   S    
C64   C66   A    
C9    H5    S    
C13   C15   A    
C15   C19   A    
C38   C40   A    
C47   C49   A    
O19   V4    S    
H1    C23   S    
C37   C45   A    
C7    C29   A    
C31   C70   S    
C8    C30   A    
C20   C28   A    
C43   C45   A    
C33   C41   A    
C8    C28   A    
C73   H31   S    
C34   C42   A    
C58   H16   S    
C20   C22   A    
C53   H11   S    
C74   H34   S    
O5    V1    S    
C73   H29   S    
O6    V2    S    
C24   C26   A    
C67   H13   S    
C51   C53   A    
C2    C35   S    
C39   H19   S    
C62   C68   A    
C13   C79   S    
C59   C61   A    
C68   H14   S    
C49   C61   A    
C33   C72   S    
C63   C65   A    
C10   H6    S    
C61   C67   A    
C77   H37   S    
C37   C39   A    
O15   V3    S    
C16   C20   A    
O13   V3    S    
C58   C60   A    
C78   H40   S    
O12   C72   A    
C49   C51   A    
C28   H4    S    
C30   C74   S    
C60   C64   A    
C4    C7    S    
O16   C72   A    
O15   C71   A    
C42   C44   A    
O4    V2    S    
C42   H22   S    
C11   H7    S    
C57   H15   S    
C6    C30   A    
O12   V3    S    
H2    C24   S    
O6    C4    A    
C38   H18   S    
C27   H3    S    
C55   C57   A    
O13   C69   A    
O1    V2    S    
O18   V4    S    
O2    V1    S    
C36   C68   A    
C50   C62   A    
C35   C67   A    
C54   H12   S    
C40   H20   S    
C50   C52   A    
C26   H10   S    
C75   N1    T    
C37   H17   S    
C34   C71   S    
C7    C27   A    
O4    C2    A    
C11   C13   A    
O20   V4    S    
C22   C24   A    
O3    V1    S    
O11   C71   A    
C52   H24   S    
C74   H32   S    
C14   C80   S    
O16   V4    S    
C32   C69   S    
C18   C32   A    
C6    C78   S    
C64   H28   S    
C66   C76   S    
O3    C1    A    
C36   C66   A    
C48   C50   A    
C57   C59   A    
O11   V4    S    
C46   C54   A    
C77   H35   S    
C3    C8    S    
C60   C62   A    
C56   H26   S    
C19   C27   A    
C14   C16   A    
O7    V1    S    
C10   C32   A    
C1    O8    A    
C23   C25   A    
C34   C40   A    
C78   H38   S    
C16   C18   A    
C25   H9    S    
O8    V2    S    
C43   C47   A    
C33   C39   A    
C55   H25   S    
C19   C21   A    
C17   C25   A    
C56   C58   A    
C18   C26   A    
O17   V3    S    
O19   V3    S    
C70   O17   A    
C69   O18   A    
C35   C65   A    
C51   H23   S    
C9    C11   A    
C45   C53   A    
C38   C46   A    
C15   C17   A    
C17   C31   A    
O9    V2    S    
C5    C29   A    
C73   H30   S    
O10   V1    S    
C5    C77   S    
C5    C21   A    
O20   V3    S    
C63   H27   S    
C6    C22   A    
C59   C63   A    
C74   H33   S    
