data_mof_unit_31267.cif
_audit_creation_date              2013-03-05T15:45:43-0500
_audit_creation_method            fapswitch 2.2
_symmetry_space_group_name_H-M    P1
_symmetry_Int_Tables_number       1
_space_group_crystal_system       triclinic
_cell_length_a                    7.019758
_cell_length_b                    16.888842
_cell_length_c                    16.812481
_cell_angle_alpha                 101.04702
_cell_angle_beta                  90.727354
_cell_angle_gamma                 90.97609
_cell_volume                      1955.73724906

loop_
_atom_site_label
_atom_site_type_symbol
_atom_site_description
_atom_site_fract_x
_atom_site_fract_y
_atom_site_fract_z
_atom_type_partial_charge
O1    O     O_R   0.506340 0.439070 0.579550 -0.587125
O2    O     O_R   0.170010 0.404890 0.412100 -0.548437
O3    O     O_R   0.005010 0.560930 0.420450 -0.586692
C1    C     C_R   0.337832 0.380719 0.384989 1.193938
O4    O     O_R   0.176280 0.429360 0.578400 -0.560813
O5    O     O_R   0.011320 0.585570 0.587940 -0.574474
C2    C     C_R   0.345346 0.413705 0.604680 1.068265
O6    O     O_R   0.500030 0.414430 0.412060 -0.582207
O7    O     O_3   0.340950 0.551220 0.502940 -0.262364
V1    V     V_3+5 0.064020 0.490500 0.499460 1.387647
O8    O     O_R   0.681910 0.595110 0.587900 -0.556008
C3    C     C_R   0.852923 0.618773 0.615488 1.090392
O9    O     O_R   0.675640 0.570640 0.421600 -0.566991
C4    C     C_R   0.844777 0.585918 0.394926 1.071775
V2    V     V_3+5 0.564670 0.509500 0.500540 1.374989
O10   O     O_3   0.837610 0.448780 0.497060 -0.248855
C5    C     C_R   0.907018 0.865320 0.170245 -0.269530
C6    C     C_R   0.858830 0.636471 0.331478 -0.425611
C7    C     C_R   0.918863 0.648719 0.191531 -0.156517
C8    C     C_R   0.899017 0.600718 0.250436 0.313689
C9    C     C_R   0.844787 0.721434 0.352390 0.272940
C10   C     C_R   0.866954 0.769593 0.291974 0.040123
C11   C     C_R   0.903155 0.732826 0.210761 -0.039963
C12   C     C_R   0.924646 0.780656 0.150205 0.303001
C13   C     C_R   0.862870 0.901175 0.251051 -0.172372
C14   C     C_R   0.848187 0.853706 0.310715 -0.116045
H1    H     H_    0.951663 0.619357 0.130343 0.219056
H2    H     H_    0.813815 0.883092 0.371763 0.182964
C15   C     C_3   0.856599 0.820409 0.725496 -0.212356
C16   C     C_3   0.017201 0.759738 0.695225 -0.174339
H3    H     H_    0.121944 0.768994 0.649054 0.250157
H4    H     H_    0.831775 0.878233 0.705198 0.204832
C17   C     C_3   0.869825 0.688568 0.686162 -0.434546
C18   C     C_3   0.713606 0.748754 0.716760 0.465117
C19   C     C_3   0.749430 0.739904 0.805668 -0.243202
C20   C     C_3   0.910208 0.680916 0.774629 0.244768
C21   C     C_3   0.054699 0.751056 0.784074 0.388980
C22   C     C_3   0.897291 0.810874 0.814136 -0.357064
H5    H     H_    0.645970 0.730255 0.852140 0.249942
C23   C     C_3   0.499684 0.242068 0.311461 0.175303
C24   C     C_3   0.350574 0.179478 0.269285 0.185688
C25   C     C_3   0.414795 0.190513 0.183854 -0.566085
C26   C     C_3   0.563099 0.253785 0.226339 0.220537
C27   C     C_3   0.415424 0.320579 0.230225 0.167109
C28   C     C_3   0.266585 0.257977 0.188051 0.163594
C29   C     C_3   0.203185 0.246394 0.273139 0.237916
C30   C     C_3   0.351512 0.309652 0.315714 -0.557850
C31   C     C_R   0.405650 0.138993 0.834035 -0.168313
C32   C     C_R   0.357174 0.365952 0.670455 -0.273901
C33   C     C_R   0.481763 0.351528 0.802640 -0.193265
C34   C     C_R   0.442377 0.400490 0.746252 -0.091165
C35   C     C_R   0.301165 0.283257 0.655144 0.275172
C36   C     C_R   0.324813 0.235732 0.716412 -0.081778
C37   C     C_R   0.425679 0.269461 0.789412 0.106189
C38   C     C_R   0.468193 0.220756 0.847985 -0.128638
C39   C     C_R   0.298080 0.108081 0.764189 -0.238407
C40   C     C_R   0.252578 0.155127 0.706877 0.377230
H6    H     H_    0.239684 0.047130 0.756120 0.166820
H7    H     H_    0.555621 0.379202 0.858138 0.123589
O11   O     O_R   0.266070 0.085680 0.087850 -0.573935
O12   O     O_R   0.590090 0.070660 0.921580 -0.569107
O13   O     O_R   0.754780 0.914400 0.912080 -0.591303
C41   C     C_R   0.420753 0.087672 0.896462 0.971274
O14   O     O_R   0.596110 0.095130 0.087880 -0.540276
O15   O     O_R   0.760850 0.939050 0.079570 -0.571536
C42   C     C_R   0.428314 0.119437 0.114759 1.199213
O16   O     O_R   0.260010 0.061030 0.920360 -0.596074
O17   O     O_3   0.425070 0.948840 0.997010 -0.258931
V3    V     V_3+5 0.702100 0.009490 0.000550 1.353538
O18   O     O_R   0.090200 0.929250 0.078500 -0.565875
C43   C     C_R   0.921080 0.914701 0.105702 1.045281
O19   O     O_R   0.084180 0.904770 0.912200 -0.564439
C44   C     C_R   0.913322 0.881260 0.884346 1.030711
V4    V     V_3+5 0.201420 0.990350 0.999580 1.345234
O20   O     O_3   0.928580 0.051150 0.002990 -0.239623
N1    N     N_R   0.951013 0.742922 0.067241 0.213021
O21   O     O_R   0.811023 0.702180 0.026281 -0.346478
O22   O     O_R   0.108278 0.754836 0.030787 -0.340873
N2    N     N_R   0.941032 0.605451 0.802647 0.261049
O23   O     O_R   0.954484 0.605406 0.879806 -0.272674
O24   O     O_R   0.953276 0.537752 0.751124 -0.412057
N3    N     N_R   0.241622 0.753180 0.822984 0.263107
O25   O     O_R   0.352172 0.816502 0.827635 -0.391293
O26   O     O_R   0.295705 0.693603 0.856127 -0.302984
N4    N     N_R   0.309123 0.102806 0.294459 0.279849
O27   O     O_R   0.250568 0.102591 0.367479 -0.255733
O28   O     O_R   0.323311 0.034670 0.243813 -0.390430
N5    N     N_R   0.609259 0.224791 0.380448 0.316721
O29   O     O_R   0.662004 0.151446 0.380702 -0.251299
O30   O     O_R   0.617226 0.276759 0.448334 -0.310306
N6    N     N_R   0.746912 0.270739 0.195850 0.279695
O31   O     O_R   0.837268 0.336139 0.230766 -0.302160
O32   O     O_R   0.787757 0.237573 0.122038 -0.281999
N7    N     N_R   0.455585 0.396873 0.204236 0.304648
O33   O     O_R   0.500011 0.396576 0.129322 -0.283028
O34   O     O_R   0.452306 0.465041 0.255490 -0.353600
N8    N     N_R   0.157996 0.275097 0.118719 0.299319
O35   O     O_R   0.157825 0.224615 0.049850 -0.365939
O36   O     O_R   0.101497 0.348041 0.119271 -0.208419
N9    N     N_R   0.018927 0.230273 0.303527 0.275755
O37   O     O_R   0.976734 0.264755 0.376733 -0.269964
O38   O     O_R   0.927851 0.164952 0.269179 -0.351281
C45   C     C_2   0.567455 0.256440 0.925420 0.560788
H8    H     H_    0.516478 0.311661 0.962241 0.086172
O39   O     O_2   0.710175 0.225808 0.947317 -0.480219
C46   C     C_2   0.824261 0.987881 0.276368 0.721844
H9    H     H_    0.858859 0.018197 0.337886 0.108885
O40   O     O_2   0.743446 0.025052 0.230917 -0.523148
N10   N     N_R   0.115331 0.122339 0.644805 0.260962
O41   O     O_R   0.131195 0.048591 0.605355 -0.292594
O42   O     O_R   0.954937 0.158926 0.640490 -0.314528
C47   C     C_2   0.494129 0.487759 0.770237 0.658412
H10   H     H_    0.584244 0.508512 0.823397 0.068639
O43   O     O_2   0.432526 0.537841 0.733549 -0.529010
N11   N     N_R   0.243689 0.245717 0.574288 0.235274
O44   O     O_R   0.090331 0.268243 0.541293 -0.283075
O45   O     O_R   0.344776 0.188295 0.533684 -0.263962
N12   N     N_R   0.922408 0.515438 0.226311 0.265398
O46   O     O_R   0.862478 0.479005 0.154909 -0.244865
O47   O     O_R   0.036960 0.477976 0.267179 -0.331243
N13   N     N_R   0.814774 0.758701 0.435355 0.216663
O48   O     O_R   0.659837 0.743154 0.471607 -0.353058
O49   O     O_R   0.947267 0.804675 0.476104 -0.359148
N14   N     N_R   0.528099 0.748579 0.677221 0.259945
O50   O     O_R   0.414872 0.685887 0.670410 -0.349717
O51   O     O_R   0.478873 0.809529 0.645094 -0.342024

loop_
_geom_bond_atom_site_label_1
_geom_bond_atom_site_label_2
_geom_bond_distance
_ccdc_geom_bond_type
C23   C30   1.549479 S    
C34   C47   1.489005 S    
C31   C38   1.416756 A    
C6    C9    1.415877 A    
C24   C25   1.554699 S    
C4    C6    1.491776 S    
O2    C1    1.311849 A    
C7    C8    1.401675 A    
C1    O6    1.301202 A    
C47   O43   1.220046 D    
N8    O35   1.299665 A    
C36   C37   1.424213 A    
C35   C36   1.431733 A    
C21   C22   1.534129 S    
C33   H7    1.081757 S    
N14   O51   1.300469 A    
C20   C21   1.529751 S    
N1    O22   1.300654 A    
C15   H4    1.110200 S    
N10   O42   1.301379 A    
N4    O27   1.300218 A    
C16   H3    1.106654 S    
C46   H9    1.085027 S    
O17   V4    1.727936 S    
V2    O10   2.184674 S    
C38   C45   1.485121 S    
C17   C20   1.540620 S    
C39   C40   1.398590 A    
C18   C19   1.548312 S    
O12   C41   1.311218 A    
N12   O46   1.300752 A    
C29   C30   1.545310 S    
O8    V2    2.009963 S    
C23   C26   1.551486 S    
C40   N10   1.434833 S    
C19   C20   1.546814 S    
O17   V3    2.177240 S    
N11   O45   1.300813 A    
C15   C22   1.552769 S    
O18   V4    1.989586 S    
C24   C29   1.537975 S    
O13   C44   1.305245 A    
O18   C43   1.313714 A    
O1    V2    1.987407 S    
C7    H1    1.082408 S    
O7    V1    2.177226 S    
C27   C30   1.554447 S    
O11   C42   1.301068 A    
O9    C4    1.313317 A    
C8    N12   1.432393 S    
C47   H10   1.086205 S    
N8    O36   1.299020 A    
C13   C46   1.475323 S    
C33   C34   1.400192 A    
N4    O28   1.299889 A    
C41   O16   1.304076 A    
C5    C12   1.412747 A    
V4    O20   2.184762 S    
C19   C22   1.556514 S    
N1    O21   1.300602 A    
C2    C32   1.490607 S    
O19   V4    2.009874 S    
N6    O31   1.298110 A    
N2    O24   1.300269 A    
C36   C40   1.423661 A    
C7    C11   1.401668 A    
C12   N1    1.433832 S    
C31   C41   1.487617 S    
C32   C34   1.416263 A    
C13   C14   1.402698 A    
O15   C43   1.303722 A    
C15   C18   1.542855 S    
C26   N6    1.438789 S    
C16   C21   1.548368 S    
C25   C28   1.548241 S    
O14   C42   1.311122 A    
C19   H5    1.106166 S    
C26   C27   1.537776 S    
C15   C16   1.560133 S    
N6    O32   1.297726 A    
C11   C12   1.423629 A    
C32   C35   1.418576 A    
N9    O38   1.296809 A    
C17   C18   1.533735 S    
C45   O39   1.219901 D    
O16   V4    1.993607 S    
C33   C37   1.409455 A    
O14   V3    2.012913 S    
N7    O34   1.299894 A    
N13   O48   1.300674 A    
O3    C4    1.304117 A    
C23   C24   1.540147 S    
N5    O30   1.299585 A    
C5    C43   1.493153 S    
O6    V2    2.009848 S    
N3    O26   1.299827 A    
O9    V2    1.989592 S    
C21   N3    1.455537 S    
C25   C26   1.544862 S    
O2    V1    2.012918 S    
C27   C28   1.538981 S    
O4    C2    1.309877 A    
C35   N11   1.435188 S    
O12   V3    1.993758 S    
C31   C39   1.396707 A    
C29   N9    1.437437 S    
C37   C38   1.430662 A    
C18   N14   1.454239 S    
C16   C17   1.556191 S    
O1    C2    1.305460 A    
O19   C44   1.309095 A    
C20   N2    1.459435 S    
O5    V1    2.011618 S    
O8    C3    1.309372 A    
C24   N4    1.463170 S    
C14   H2    1.083104 S    
C5    C13   1.417825 A    
C23   N5    1.461748 S    
O7    V2    1.729986 S    
O4    V1    1.993736 S    
O3    V1    1.989806 S    
V1    O10   1.724364 S    
N10   O41   1.301410 A    
O5    C3    1.303880 A    
C46   O40   1.218531 D    
O15   V3    1.989676 S    
O11   V4    2.010676 S    
N9    O37   1.296963 A    
C39   H6    1.084793 S    
V3    O20   1.724373 S    
C6    C8    1.414542 A    
C9    N13   1.435847 S    
N7    O33   1.300462 A    
N12   O47   1.299590 A    
N13   O49   1.301010 A    
C27   N7    1.461917 S    
N2    O23   1.299607 A    
C28   C29   1.550234 S    
N5    O29   1.299665 A    
O13   V3    2.011715 S    
N3    O25   1.300062 A    
C10   C14   1.403751 A    
C45   H8    1.084814 S    
C25   C42   1.507217 S    
C10   C11   1.415532 A    
C28   N8    1.462018 S    
C3    C17   1.506736 S    
C9    C10   1.426102 A    
C22   C44   1.507793 S    
N11   O44   1.300408 A    
N14   O50   1.299411 A    
C1    C30   1.509089 S    
