data_mof_unit_10940.cif
_audit_creation_date              2012-10-26T19:27:22-0400
_audit_creation_method            fapswitch 2.2
_symmetry_space_group_name_H-M    P1
_symmetry_Int_Tables_number       1
_space_group_crystal_system       triclinic
_cell_length_a                    13.722931
_cell_length_b                    15.084357
_cell_length_c                    17.395682
_cell_angle_alpha                 88.058678
_cell_angle_beta                  86.686798
_cell_angle_gamma                 88.814774
_cell_volume                      3592.21876351

loop_
_atom_site_label
_atom_site_type_symbol
_atom_type_description
_atom_site_fract_x
_atom_site_fract_y
_atom_site_fract_z
_atom_type_partial_charge
C1    C     C_R   0.499272 0.671192 0.498530 0.580168
C2    C     C_R   0.430715 0.906171 0.542184 -0.032794
C3    C     C_R   0.493003 0.047058 0.490618 -0.075945
C4    C     C_R   0.492058 0.953638 0.488563 -0.078073
C5    C     C_R   0.430819 0.092267 0.545206 0.030126
C6    C     C_R   0.553879 0.907649 0.434420 0.029733
C7    C     C_R   0.613659 0.049375 0.382566 -0.114687
C8    C     C_R   0.361657 0.951370 0.588879 -0.121622
C9    C     C_R   0.615882 0.956874 0.381909 0.259858
C10   C     C_R   0.362725 0.043854 0.593655 0.275913
C11   C     C_R   0.207993 0.560304 0.453517 0.369605
C12   C     C_R   0.500969 0.328767 0.498819 0.602978
C13   C     C_R   0.791589 0.440824 0.547817 0.351405
C14   C     C_R   0.204798 0.441315 0.547027 -0.001034
C15   C     C_R   0.795127 0.560332 0.454883 0.003369
C16   C     C_R   0.487593 0.504467 0.649997 0.559963
C17   C     C_R   0.512093 0.497598 0.349840 0.564916
C18   C     C_R   0.101965 0.440746 0.548846 -0.032734
C19   C     C_R   0.897683 0.562240 0.454782 -0.033823
C20   C     C_R   0.051601 0.501565 0.501526 0.015631
C21   C     C_R   0.947960 0.501411 0.502092 0.022318
C22   C     C_R   0.104663 0.562496 0.453592 -0.005276
C23   C     C_R   0.438973 0.184878 0.550181 0.220996
C24   C     C_R   0.894771 0.440566 0.549964 -0.003676
C25   C     C_R   0.048571 0.380926 0.597086 -0.147075
C26   C     C_R   0.950775 0.623670 0.408309 -0.163522
C27   C     C_R   0.946437 0.380816 0.597837 -0.143565
C28   C     C_R   0.052785 0.623739 0.407238 -0.129302
C29   C     C_R   0.481040 0.517694 0.734102 0.010283
C30   C     C_R   0.516808 0.492741 0.264975 0.021285
C31   C     C_R   0.567451 0.530579 0.773527 0.221990
C32   C     C_R   0.429296 0.493530 0.225323 0.216082
C33   C     C_R   0.559053 0.541467 0.853398 -0.134350
C34   C     C_R   0.551127 0.813986 0.434169 0.214258
C35   C     C_R   0.433671 0.492567 0.145332 -0.115340
C36   C     C_R   0.469034 0.534132 0.894257 -0.056224
C37   C     C_R   0.523316 0.487032 0.103482 -0.052539
C38   C     C_R   0.384321 0.525257 0.855489 -0.117249
C39   C     C_R   0.609321 0.479212 0.142132 -0.126045
C40   C     C_R   0.388506 0.519970 0.775705 0.201076
C41   C     C_R   0.607823 0.486140 0.222354 0.215160
C42   C     C_2   0.462524 0.533933 0.978282 -0.135385
C43   C     C_2   0.529142 0.490020 0.019117 -0.129462
C44   C     C_3   0.738248 0.505844 0.766945 0.038825
C45   C     C_R   0.502108 0.231957 0.497764 -0.000674
C46   C     C_3   0.804478 0.579530 0.790491 -0.283516
C47   C     C_3   0.898651 0.541515 0.821997 -0.489569
C48   C     C_3   0.287936 0.423271 0.266783 0.035595
C49   C     C_3   0.179643 0.443631 0.257501 -0.256437
C50   C     C_3   0.118904 0.360074 0.267368 -0.496804
C51   C     C_3   0.756518 0.550010 0.238221 0.004338
C52   C     C_3   0.862659 0.517240 0.238350 -0.262030
C53   C     C_3   0.932833 0.588629 0.206730 -0.485854
C54   C     C_3   0.263045 0.588033 0.712852 0.039092
C55   C     C_3   0.200994 0.635752 0.775475 -0.294413
C56   C     C_R   0.496908 0.767898 0.493735 0.006467
C57   C     C_3   0.148373 0.717055 0.741889 -0.482963
C58   C     C_3   0.445249 0.234097 0.671482 0.013597
C59   C     C_3   0.389583 0.285354 0.734622 -0.246573
C60   C     C_3   0.449230 0.291783 0.805537 -0.483497
C61   C     C_3   0.549072 0.728910 0.326471 0.025456
C62   C     C_3   0.549499 0.784699 0.251413 -0.252852
C63   C     C_3   0.495184 0.738704 0.190296 -0.489273
C64   C     C_3   0.720228 0.233130 0.418735 0.014537
C65   C     C_3   0.781010 0.303786 0.374312 -0.227542
C66   C     C_3   0.888142 0.296431 0.393298 -0.497695
C67   C     C_R   0.563493 0.187449 0.443688 0.196911
C68   C     C_3   0.447174 0.785326 0.680600 -0.035803
C69   C     C_3   0.553617 0.751262 0.678051 -0.255761
C70   C     C_3   0.599002 0.763463 0.754909 -0.462168
C71   C     C_3   0.773140 0.914388 0.352034 0.034104
C72   C     C_3   0.837374 0.856522 0.298498 -0.254284
C73   C     C_3   0.943812 0.856563 0.319586 -0.493018
C74   C     C_3   0.279905 0.050049 0.715059 0.008268
C75   C     C_3   0.177664 0.011324 0.727455 -0.261163
C76   C     C_3   0.164377 0.963508 0.805954 -0.492896
C77   C     C_R   0.440477 0.813709 0.549563 0.235355
C78   C     C_R   0.557117 0.094875 0.438736 -0.033075
Cl1   Cl    Cl    0.274303 0.635752 0.392116 -0.599447
Cl2   Cl    Cl    0.724826 0.363818 0.607424 -0.687324
Cu1   Cu    Cu3+1 0.402580 0.500010 0.500000 1.042689
Cu2   Cu    Cu3+1 0.597420 0.499990 0.500000 1.039043
H1    H     H_    0.244067 0.395135 0.583519 0.172270
H2    H     H_    0.678496 0.470582 0.109649 0.114892
H3    H     H_    0.365741 0.495080 0.116620 0.122023
H4    H     H_    0.622409 0.556434 0.884368 0.110424
H5    H     H_    0.658127 0.085047 0.338896 0.154232
H6    H     H_    0.307859 0.913722 0.623256 0.143227
H7    H     H_    0.780519 0.466465 0.723502 0.202115
H8    H     H_    0.720277 0.458455 0.816024 0.109162
H9    H     H_    0.823336 0.623415 0.739382 0.175362
H10   H     H_    0.765862 0.620402 0.834996 0.146387
H11   H     H_    0.881932 0.498137 0.873757 0.143025
H12   H     H_    0.755944 0.607186 0.419036 0.146374
H13   H     H_    0.944917 0.596561 0.838442 0.144194
H14   H     H_    0.940135 0.502567 0.777479 0.157247
H15   H     H_    0.297176 0.390190 0.324062 0.168404
H16   H     H_    0.313588 0.375818 0.221632 0.103053
H17   H     H_    0.152550 0.491938 0.300882 0.197425
H18   H     H_    0.170313 0.473967 0.199207 0.154421
H19   H     H_    0.145536 0.309973 0.225372 0.147829
H20   H     H_    0.041593 0.377049 0.256952 0.142130
H21   H     H_    0.122838 0.331475 0.326833 0.157086
H22   H     H_    0.744622 0.602459 0.281223 0.135751
H23   H     H_    0.085832 0.333891 0.634225 0.127860
H24   H     H_    0.743980 0.581390 0.180564 0.112119
H25   H     H_    0.880420 0.497442 0.298059 0.168153
H26   H     H_    0.872514 0.457963 0.202222 0.166488
H27   H     H_    0.922916 0.601952 0.144430 0.142057
H28   H     H_    0.009239 0.565680 0.213903 0.150568
H29   H     H_    0.919817 0.651227 0.237763 0.139932
H30   H     H_    0.215301 0.572882 0.665764 0.169838
H31   H     H_    0.320336 0.632361 0.686575 0.181358
H32   H     H_    0.146107 0.589479 0.802604 0.171076
H33   H     H_    0.248335 0.657824 0.820537 0.144411
H34   H     H_    0.913127 0.671470 0.372412 0.107229
H35   H     H_    0.202060 0.764602 0.715007 0.168988
H36   H     H_    0.104801 0.750700 0.788536 0.139286
H37   H     H_    0.098243 0.697052 0.697919 0.157302
H38   H     H_    0.514732 0.268983 0.655513 0.155787
H39   H     H_    0.462562 0.166058 0.694476 0.128442
H40   H     H_    0.372185 0.352711 0.711651 0.220519
H41   H     H_    0.319524 0.252657 0.751404 0.171126
H42   H     H_    0.466574 0.224451 0.829419 0.137339
H43   H     H_    0.406522 0.328981 0.850451 0.162236
H44   H     H_    0.518265 0.327178 0.790440 0.165163
H45   H     H_    0.908921 0.333012 0.635967 0.162881
H46   H     H_    0.472184 0.717595 0.348338 0.163686
H47   H     H_    0.581684 0.663106 0.313289 0.142286
H48   H     H_    0.626050 0.795372 0.229135 0.195385
H49   H     H_    0.513861 0.850179 0.262588 0.190874
H50   H     H_    0.493949 0.781899 0.137393 0.143861
H51   H     H_    0.418777 0.725426 0.211482 0.190417
H52   H     H_    0.532658 0.675112 0.175410 0.148683
H53   H     H_    0.755364 0.167141 0.408961 0.107901
H54   H     H_    0.720583 0.246203 0.481355 0.184708
H55   H     H_    0.775670 0.296311 0.311347 0.191967
H56   H     H_    0.089980 0.672276 0.369652 0.170173
H57   H     H_    0.751687 0.370527 0.389293 0.227673
H58   H     H_    0.895101 0.292267 0.456520 0.171247
H59   H     H_    0.927380 0.355748 0.369602 0.145864
H60   H     H_    0.922673 0.236272 0.367586 0.144128
H61   H     H_    0.406721 0.751817 0.730120 0.136766
H62   H     H_    0.444651 0.857010 0.693216 0.120989
H63   H     H_    0.556412 0.680176 0.664085 0.206553
H64   H     H_    0.597789 0.788383 0.632623 0.148536
H65   H     H_    0.599164 0.834915 0.768369 0.131829
H66   H     H_    0.675505 0.738036 0.751557 0.164990
H67   H     H_    0.591423 0.457357 0.989829 0.120002
H68   H     H_    0.557467 0.726604 0.801960 0.153772
H69   H     H_    0.776103 0.885981 0.411987 0.143975
H70   H     H_    0.802381 0.982854 0.349511 0.108543
H71   H     H_    0.810428 0.787389 0.302445 0.171769
H72   H     H_    0.832705 0.881817 0.238012 0.164133
H73   H     H_    0.973369 0.924518 0.312155 0.152540
H74   H     H_    0.987923 0.811701 0.281377 0.144926
H75   H     H_    0.950299 0.832952 0.380296 0.153184
H76   H     H_    0.285897 0.103399 0.756701 0.141717
H77   H     H_    0.337251 0.999826 0.729877 0.090254
H78   H     H_    0.399852 0.567122 0.006248 0.118149
H79   H     H_    0.122252 0.065865 0.723638 0.171049
H80   H     H_    0.164705 0.963876 0.681897 0.162452
H81   H     H_    0.217558 0.907246 0.810179 0.141948
H82   H     H_    0.089425 0.936990 0.813476 0.145107
H83   H     H_    0.175019 0.010079 0.852740 0.145469
H84   H     H_    0.314402 0.520263 0.887519 0.125376
N1    N     N_R   0.256180 0.500070 0.500030 -0.246215
N2    N     N_R   0.743820 0.499930 0.499970 -0.232632
O1    O     O_R   0.417720 0.629750 0.499980 -0.438078
O2    O     O_3   0.338748 0.504195 0.263399 -0.513465
O3    O     O_3   0.694469 0.478148 0.259456 -0.560672
O4    O     O_3   0.301878 0.506323 0.741011 -0.584291
O5    O     O_3   0.386832 0.230361 0.607375 -0.521721
O6    O     O_3   0.608166 0.767445 0.380133 -0.549900
O7    O     O_3   0.624448 0.235933 0.392432 -0.565168
O8    O     O_3   0.398877 0.766731 0.612856 -0.588658
O9    O     O_3   0.676773 0.915453 0.327542 -0.550767
O10   O     O_3   0.292349 0.088484 0.639554 -0.520442
O11   O     O_R   0.582280 0.370250 0.500020 -0.452447
O12   O     O_R   0.582260 0.629730 0.499990 -0.516446
O13   O     O_R   0.417740 0.370270 0.500010 -0.500519
O14   O     O_R   0.408190 0.500030 0.613590 -0.503034
O15   O     O_R   0.591810 0.499970 0.386410 -0.490449
O16   O     O_R   0.572730 0.500000 0.613600 -0.411939
O17   O     O_R   0.427270 0.500000 0.386400 -0.436823
O18   O     O_3   0.655952 0.543430 0.731278 -0.543444

loop_
_geom_bond_atom_site_label_1
_geom_bond_atom_site_label_2
_ccdc_geom_bond_type
C53   H28   S    
C38   C40   A    
C64   H54   S    
C34   C56   A    
C23   C45   A    
Cu2   O16   S    
C69   H63   S    
C62   H48   S    
C36   C42   S    
C70   H68   S    
C24   C27   A    
Cu1   O13   S    
C75   C76   S    
C15   H12   S    
Cu1   Cu2   S    
C68   O8    S    
C25   H23   S    
C39   C41   A    
C66   H59   S    
Cu2   N2    S    
C44   H8    S    
C15   C19   A    
C48   H15   S    
C41   O3    S    
C74   H77   S    
C75   H80   S    
C63   H51   S    
C60   H43   S    
C35   C37   A    
C1    C56   S    
C39   H2    S    
C1    O12   A    
C16   O14   A    
C46   H10   S    
C42   H78   S    
C54   H31   S    
C73   H75   S    
C33   C36   A    
C31   O18   S    
C68   H61   S    
C38   H84   S    
C1    O1    A    
C60   H42   S    
C19   C26   A    
C14   C18   A    
C46   C47   S    
C27   H45   S    
C71   H69   S    
C12   O13   A    
C52   H25   S    
C67   O7    S    
C68   C69   S    
C5    C23   A    
Cu2   O11   S    
C45   C67   A    
C47   H14   S    
C31   C33   A    
C30   C41   A    
Cu1   O1    S    
C43   H67   S    
C61   H47   S    
C57   H37   S    
C65   H55   S    
C53   H29   S    
C59   H40   S    
C64   H53   S    
C50   H21   S    
C22   C28   A    
C11   N1    A    
C17   C30   S    
C61   C62   S    
C18   C25   A    
C14   H1    S    
C6    C9    A    
Cu1   O17   S    
C44   C46   S    
C26   H34   S    
C59   H41   S    
C7    H5    S    
C72   H72   S    
C74   C75   S    
C74   H76   S    
C51   C52   S    
C10   O10   S    
C32   C35   A    
C54   O4    S    
C28   H56   S    
C4    C6    A    
C17   O17   A    
C72   C73   S    
C13   N2    A    
C46   H9    S    
C16   C29   S    
Cu2   O15   S    
C56   C77   A    
C6    C34   A    
C13   C24   A    
C8    H6    S    
C37   C43   S    
C2    C4    A    
C33   H4    S    
C63   H52   S    
C62   C63   S    
C34   O6    S    
C49   H17   S    
C17   O15   A    
C71   H70   S    
C74   O10   S    
C73   H73   S    
C58   H38   S    
C47   H11   S    
C54   H30   S    
C76   H83   S    
C63   H50   S    
C64   O7    S    
Cu1   N1    S    
C11   Cl1   S    
C7    C78   A    
C48   O2    S    
C8    C10   A    
C48   C49   S    
C66   H58   S    
C20   C22   A    
C23   O5    S    
C50   H20   S    
C77   O8    S    
C55   C57   S    
C49   C50   S    
C15   N2    A    
C76   H82   S    
C58   O5    S    
C70   H66   S    
C42   C43   D    
C3    C4    A    
C40   O4    S    
C9    O9    S    
C52   C53   S    
C57   H35   S    
C53   H27   S    
C7    C9    A    
C32   O2    S    
C54   C55   S    
C58   H39   S    
C72   H71   S    
C19   C21   A    
C26   C28   A    
C62   H49   S    
C2    C8    A    
C61   O6    S    
C12   C45   S    
C3    C5    A    
C16   O16   A    
C66   H60   S    
C55   H32   S    
C25   C27   A    
C48   H16   S    
C11   C22   A    
C69   H64   S    
C67   C78   A    
C75   H79   S    
C64   C65   S    
C71   O9    S    
C51   O3    S    
C51   H22   S    
C5    C10   A    
C29   C31   A    
C2    C77   A    
C49   H18   S    
C30   C32   A    
C35   H3    S    
C55   H33   S    
C51   H24   S    
C73   H74   S    
C60   H44   S    
C68   H62   S    
C61   H46   S    
C18   C20   A    
C69   C70   S    
C58   C59   S    
C13   Cl2   S    
C36   C38   A    
C65   H57   S    
C59   C60   S    
C12   O11   A    
C71   C72   S    
C20   C21   A    
C52   H26   S    
C50   H19   S    
C37   C39   A    
C65   C66   S    
C21   C24   A    
Cu2   O12   S    
C47   H13   S    
C76   H81   S    
C70   H65   S    
C29   C40   A    
C14   N1    A    
C3    C78   A    
Cu1   O14   S    
C44   H7    S    
C44   O18   S    
C57   H36   S    
