data_mof_unit_38734.cif
_audit_creation_date              2012-10-26T19:04:16-0400
_audit_creation_method            fapswitch 2.2
_symmetry_space_group_name_H-M    P1
_symmetry_Int_Tables_number       1
_space_group_crystal_system       triclinic
_cell_length_a                    14.726418
_cell_length_b                    15.817224
_cell_length_c                    9.604206
_cell_angle_alpha                 89.521617
_cell_angle_beta                  89.713421
_cell_angle_gamma                 89.916725
_cell_volume                      2237.00962142

loop_
_atom_site_label
_atom_site_type_symbol
_atom_type_description
_atom_site_fract_x
_atom_site_fract_y
_atom_site_fract_z
_atom_type_partial_charge
C1    C     C_R   0.381897 0.879786 0.501799 0.524507
C2    C     C_R   0.688589 0.245241 0.385421 -0.183798
C3    C     C_R   0.251539 0.310365 0.411017 -0.167301
C4    C     C_R   0.188598 0.745235 0.385421 -0.183812
C5    C     C_R   0.676736 0.806404 0.500163 -0.006978
C6    C     C_R   0.662234 0.204661 0.508389 -0.021586
C7    C     C_R   0.176723 0.306392 0.500167 -0.007005
C8    C     C_R   0.162243 0.704655 0.508390 -0.021590
C9    C     C_R   0.670573 0.971115 0.133365 0.299665
C10   C     C_R   0.170581 0.471131 0.133361 0.299632
C11   C     C_R   0.736986 0.928936 0.053920 -0.148472
C12   C     C_R   0.378033 0.115511 0.500019 0.529658
C13   C     C_R   0.236999 0.428962 0.053909 -0.148497
C14   C     C_R   0.736083 0.937672 0.911626 -0.214477
C15   C     C_R   0.236091 0.437696 0.911617 -0.214468
C16   C     C_R   0.662884 0.976904 0.849684 -0.092229
C17   C     C_R   0.162884 0.476917 0.849679 -0.092226
C18   C     C_R   0.580766 0.988503 0.923074 0.111112
C19   C     C_R   0.080768 0.488509 0.923073 0.111109
C20   C     C_R   0.582259 0.987237 0.072739 0.153314
C21   C     C_R   0.082262 0.487244 0.072738 0.153318
C22   C     C_R   0.422764 0.010756 0.074422 -0.020049
C23   C     C_R   0.881895 0.379787 0.501799 0.524512
C24   C     C_R   0.922763 0.510751 0.074422 -0.020046
C25   C     C_R   0.608985 0.126121 0.501008 0.553079
C26   C     C_R   0.615416 0.878467 0.500216 0.543027
C27   C     C_R   0.108989 0.626120 0.501008 0.553073
C28   C     C_R   0.115408 0.378460 0.500217 0.543023
C29   C     C_R   0.422785 0.010400 0.926699 -0.011224
C30   C     C_R   0.922785 0.510395 0.926699 -0.011230
C31   C     C_R   0.209523 0.093350 0.661595 -0.111449
C32   C     C_R   0.327877 0.783448 0.764326 -0.107769
C33   C     C_R   0.709479 0.593314 0.661442 -0.111455
C34   C     C_R   0.878038 0.615515 0.500019 0.529655
C35   C     C_R   0.827855 0.283463 0.764335 -0.107758
C36   C     C_R   0.130176 0.084980 0.740299 -0.128423
C37   C     C_R   0.287364 0.759613 0.890078 -0.141189
C38   C     C_R   0.630097 0.584916 0.740048 -0.128417
C39   C     C_R   0.787336 0.259632 0.890085 -0.141197
C40   C     C_R   0.565921 0.649514 0.740406 -0.127214
C41   C     C_R   0.698623 0.230552 0.891879 -0.135709
C42   C     C_R   0.066009 0.149584 0.740684 -0.127207
C43   C     C_R   0.198649 0.730536 0.891879 -0.135707
C44   C     C_R   0.580858 0.722874 0.662263 -0.103481
C45   C     C_R   0.315851 0.247124 0.411504 -0.164479
C46   C     C_R   0.653499 0.217969 0.766894 -0.092838
C47   C     C_R   0.080916 0.222920 0.662461 -0.103479
C48   C     C_R   0.153519 0.717957 0.766898 -0.092840
C49   C     C_R   0.661408 0.733636 0.583861 0.028008
C50   C     C_R   0.697349 0.233292 0.637246 0.025467
C51   C     C_R   0.161430 0.233654 0.583954 0.027999
C52   C     C_R   0.197364 0.733282 0.637246 0.025470
C53   C     C_R   0.226810 0.167899 0.583466 0.027337
C54   C     C_R   0.279985 0.778210 0.636368 0.020043
C55   C     C_R   0.726791 0.667884 0.583385 0.027331
C56   C     C_R   0.261210 0.800677 0.385399 -0.169175
C57   C     C_R   0.779970 0.278220 0.636372 0.020044
C58   C     C_R   0.305650 0.177411 0.499745 0.004078
C59   C     C_R   0.310033 0.815550 0.508018 -0.011557
C60   C     C_R   0.805663 0.677423 0.499747 0.004095
C61   C     C_R   0.810025 0.315555 0.508021 -0.011560
C62   C     C_3   0.777256 0.055930 0.243942 0.002685
C63   C     C_3   0.855185 0.024485 0.336155 -0.265146
C64   C     C_3   0.831495 0.028114 0.491014 -0.398182
C65   C     C_3   0.277275 0.555902 0.244023 0.002686
C66   C     C_3   0.355179 0.524414 0.336254 -0.265139
C67   C     C_R   0.815904 0.747168 0.411589 -0.164463
C68   C     C_3   0.331464 0.528029 0.491107 -0.398175
C69   C     C_R   0.761203 0.300682 0.385401 -0.169176
C70   C     C_R   0.751593 0.810411 0.411103 -0.167311
Cu1   Cu    Cu3+1 0.499990 1.000000 0.640660 0.897232
Cu2   Cu    Cu3+1 0.999990 0.500000 0.640660 0.897216
Cu3   Cu    Cu3+1 0.500010 1.000000 0.359340 0.974536
Cu4   Cu    Cu3+1 0.000010 0.500000 0.359340 0.974543
H1    H     H_    0.375008 0.253551 0.344594 0.122894
H2    H     H_    0.397326 0.803429 0.771456 0.142774
H3    H     H_    0.755374 0.539960 0.659764 0.132069
H4    H     H_    0.897304 0.303444 0.771472 0.142758
H5    H     H_    0.117732 0.027500 0.799294 0.109649
H6    H     H_    0.324284 0.765687 0.986710 0.105610
H7    H     H_    0.617632 0.527420 0.798988 0.109664
H8    H     H_    0.824252 0.265709 0.986720 0.105595
H9    H     H_    0.503572 0.642181 0.799482 0.107797
H10   H     H_    0.665314 0.216077 0.989972 0.105517
H11   H     H_    0.003688 0.142273 0.799840 0.107784
H12   H     H_    0.280305 0.830539 0.287663 0.134431
H13   H     H_    0.165345 0.716058 0.989976 0.105523
H14   H     H_    0.527751 0.769649 0.660585 0.130095
H15   H     H_    0.583361 0.198265 0.773597 0.150583
H16   H     H_    0.027809 0.269695 0.660806 0.130149
H17   H     H_    0.083381 0.698256 0.773609 0.150586
H18   H     H_    0.761420 0.863766 0.342733 0.162218
H19   H     H_    0.656313 0.230487 0.287436 0.122097
H20   H     H_    0.261337 0.363693 0.342580 0.162234
H21   H     H_    0.156324 0.730476 0.287434 0.122112
H22   H     H_    0.359345 0.019359 0.129846 0.116752
H23   H     H_    0.875090 0.753617 0.344747 0.122867
H24   H     H_    0.859343 0.519350 0.129846 0.116755
H25   H     H_    0.798688 0.906015 0.102042 0.110087
H26   H     H_    0.298704 0.406044 0.102024 0.110063
H27   H     H_    0.673267 0.996064 0.744376 0.193313
H28   H     H_    0.173264 0.496071 0.744368 0.193321
H29   H     H_    0.760358 0.120352 0.275482 0.155514
H30   H     H_    0.802866 0.064093 0.135210 0.088754
H31   H     H_    0.874584 0.959143 0.307464 0.137003
H32   H     H_    0.915537 0.065156 0.316942 0.122540
H33   H     H_    0.820336 0.094591 0.522978 0.148542
H34   H     H_    0.780300 0.330543 0.287664 0.134426
H35   H     H_    0.888524 0.001715 0.552889 0.125102
H36   H     H_    0.769579 0.990703 0.514291 0.181999
H37   H     H_    0.260397 0.620324 0.275596 0.155518
H38   H     H_    0.302905 0.564083 0.135304 0.088751
H39   H     H_    0.374554 0.459068 0.307547 0.137019
H40   H     H_    0.415551 0.565066 0.317080 0.122546
H41   H     H_    0.320317 0.594507 0.523086 0.148520
H42   H     H_    0.388479 0.501608 0.552995 0.125089
H43   H     H_    0.269533 0.490628 0.514343 0.182020
H44   H     H_    0.795256 0.920564 0.850582 0.124727
H45   H     H_    0.295264 0.420592 0.850568 0.124718
H46   H     H_    0.359307 0.018610 0.872115 0.116517
H47   H     H_    0.859305 0.518602 0.872113 0.116534
H48   H     H_    0.255406 0.039987 0.659895 0.132078
N1    N     N_R   0.501200 1.000000 0.147910 -0.240176
N2    N     N_R   0.001200 0.500000 0.147910 -0.240171
N3    N     N_R   0.501270 0.000000 0.852040 -0.247792
N4    N     N_R   0.001270 0.500000 0.852040 -0.247799
O1    O     O_R   0.409820 0.909830 0.618810 -0.524344
O2    O     O_R   0.590170 0.909830 0.618760 -0.531450
O3    O     O_R   0.090170 0.590170 0.618760 -0.537823
O4    O     O_R   0.090170 0.409830 0.618760 -0.531479
O5    O     O_R   0.590190 0.090180 0.381190 -0.440673
O6    O     O_R   0.590190 0.909820 0.381190 -0.445191
O7    O     O_R   0.090190 0.590180 0.381190 -0.440669
O8    O     O_R   0.090190 0.409820 0.381190 -0.445181
O9    O     O_3   0.698168 0.004199 0.259124 -0.517123
O10   O     O_3   0.198165 0.504193 0.259144 -0.517105
O11   O     O_R   0.409820 0.090170 0.618810 -0.513686
O12   O     O_R   0.909820 0.409830 0.618810 -0.524352
O13   O     O_R   0.909820 0.590170 0.618810 -0.513676
O14   O     O_R   0.409840 0.909830 0.381240 -0.507888
O15   O     O_R   0.409840 0.090170 0.381240 -0.511458
O16   O     O_R   0.909840 0.409830 0.381240 -0.507888
O17   O     O_R   0.909840 0.590170 0.381240 -0.511446
O18   O     O_R   0.590170 0.090170 0.618760 -0.537818

loop_
_geom_bond_atom_site_label_1
_geom_bond_atom_site_label_2
_ccdc_geom_bond_type
C44   C49   A    
C33   C55   A    
C66   C68   S    
Cu4   O17   S    
Cu3   O5    S    
C22   C29   A    
C29   N3    A    
C23   O12   A    
C36   C42   A    
C4    C8    A    
Cu1   O1    S    
C30   N4    A    
Cu2   O3    S    
Cu1   O11   S    
C46   H15   S    
Cu3   O15   S    
C62   C63   S    
C28   O8    A    
C66   H39   S    
C10   O10   S    
C48   C52   A    
C3    C7    A    
C1    C59   S    
C18   N3    A    
C11   C14   A    
C6    C25   S    
Cu4   O7    S    
C34   O13   A    
C24   N2    A    
C12   O15   A    
C11   H25   S    
C65   H37   S    
C20   N1    A    
C56   H12   S    
Cu2   O13   S    
C60   C67   A    
C14   H44   S    
C48   H17   S    
C41   C46   A    
C10   C13   A    
C23   O16   A    
C14   C16   A    
C63   H31   S    
C2    C69   A    
C43   C48   A    
C8    C52   A    
C28   O4    A    
C12   C58   S    
Cu2   O12   S    
Cu4   O16   S    
Cu3   O6    S    
C55   C60   A    
C4    C56   A    
C34   C60   S    
C40   H9    S    
C5    C49   A    
C2    C6    A    
C32   C54   A    
C29   H46   S    
C69   H34   S    
C52   C54   A    
C62   H30   S    
C54   C59   A    
C10   C21   A    
C34   O17   A    
C37   H6    S    
C45   C58   A    
C27   O7    A    
C22   N1    A    
C31   H48   S    
C39   C41   A    
Cu1   Cu3   S    
C47   C51   A    
C35   H4    S    
Cu3   N1    S    
C49   C55   A    
C41   H10   S    
C3    C45   A    
C6    C50   A    
C7    C28   S    
C63   C64   S    
Cu2   N4    S    
C51   C53   A    
C62   O9    S    
C37   C43   A    
C35   C39   A    
C17   H28   S    
C65   H38   S    
C5    C70   A    
C68   H43   S    
C4    H21   S    
C9    C20   A    
C64   H36   S    
C30   H47   S    
C23   C61   S    
C42   H11   S    
C26   O2    A    
C32   C37   A    
C31   C53   A    
C63   H32   S    
Cu2   O4    S    
C9    C11   A    
C1    O14   A    
C68   H42   S    
C9    O9    S    
Cu2   Cu4   S    
C13   C15   A    
C38   H7    S    
C27   O3    A    
C47   H16   S    
C24   H24   S    
Cu1   O2    S    
C25   O18   A    
C25   O5    A    
C26   O6    A    
C64   H33   S    
C62   H29   S    
C61   C69   A    
C15   C17   A    
C66   H40   S    
C19   C21   A    
C31   C36   A    
C50   C57   A    
C22   H22   S    
C2    H19   S    
C70   H18   S    
C1    O1    A    
C39   H8    S    
C36   H5    S    
C32   H2    S    
C53   C58   A    
C57   C61   A    
Cu3   O14   S    
C46   C50   A    
C19   N4    A    
C33   C38   A    
C56   C59   A    
C45   H1    S    
C35   C57   A    
C67   C70   A    
C43   H13   S    
C21   N2    A    
C7    C51   A    
C38   C40   A    
C33   H3    S    
C64   H35   S    
C13   H26   S    
Cu4   O8    S    
C17   C19   A    
C15   H45   S    
C3    H20   S    
C18   C20   A    
C42   C47   A    
C24   C30   A    
C65   O10   S    
C67   H23   S    
C68   H41   S    
C5    C26   S    
C16   H27   S    
C40   C44   A    
C16   C18   A    
C65   C66   S    
C8    C27   S    
C12   O11   A    
Cu1   N3    S    
C44   H14   S    
Cu1   O18   S    
Cu4   N2    S    
