data_mof_unit_45855.cif
_audit_creation_date              2012-12-10T17:17:29-0500
_audit_creation_method            fapswitch 2.2
_symmetry_space_group_name_H-M    P1
_symmetry_Int_Tables_number       1
_space_group_crystal_system       triclinic
_cell_length_a                    10.221522
_cell_length_b                    10.961334
_cell_length_c                    12.230377
_cell_angle_alpha                 90.768637
_cell_angle_beta                  109.498021
_cell_angle_gamma                 95.560081
_cell_volume                      1284.1197749

loop_
_atom_site_label
_atom_site_type_symbol
_atom_type_description
_atom_site_fract_x
_atom_site_fract_y
_atom_site_fract_z
_atom_type_partial_charge
C1    C     C_R   0.052284 0.730962 0.494269 0.969728
C2    C     C_R   0.417804 0.491381 0.995377 0.027708
C3    C     C_R   0.321253 0.448476 0.886858 -0.048314
C4    C     C_R   0.553396 0.454162 0.027701 -0.044740
C5    C     C_R   0.580469 0.355077 0.965039 0.008459
C6    C     C_R   0.474750 0.299103 0.868340 -0.295278
C7    C     C_R   0.346162 0.345245 0.829144 0.599055
C8    C     C_R   0.663897 0.513707 0.119285 0.573159
C9    C     C_R   0.813722 0.360949 0.104193 -0.256326
C10   C     C_R   0.202236 0.510389 0.839652 -0.090522
C11   C     C_2   0.078759 0.859539 0.484621 -0.497139
C12   C     C_R   0.132795 0.507733 0.714462 0.928030
C13   C     C_2   0.018928 0.937165 0.533491 0.619072
C14   C     C_2   0.931855 0.136734 0.522535 0.408351
C15   C     C_2   0.024829 0.065123 0.505094 0.281521
C16   C     C_2   0.433891 0.507854 0.512479 -0.066840
C17   C     C_2   0.573806 0.475794 0.508212 0.526292
C18   C     C_R   0.949169 0.267687 0.506990 0.858449
C19   C     C_R   0.865675 0.487299 0.285800 0.917544
C20   C     C_R   0.711957 0.311210 0.002275 -0.148283
C21   C     C_R   0.786844 0.459754 0.164259 -0.165466
C22   C     C_R   0.161587 0.589217 0.910867 -0.185727
C23   C     C_R   0.244051 0.612436 0.026468 -0.146024
C24   C     C_R   0.372835 0.566289 0.068311 -0.022411
H1    H     H_    0.909530 0.318418 0.139152 0.207732
H2    H     H_    0.138414 0.889064 0.429218 0.170569
H3    H     H_    0.434785 0.584248 0.570154 0.058799
H4    H     H_    0.674229 0.638610 0.574817 0.143722
H5    H     H_    0.491712 0.219995 0.822633 0.162582
H6    H     H_    0.733086 0.234381 0.956371 0.169113
H7    H     H_    0.068109 0.635119 0.876468 0.178599
H8    H     H_    0.432728 0.586118 0.158898 0.206021
H9    H     H_    0.211049 0.670560 0.082425 0.161856
N1    N     N_2   0.313640 0.446500 0.454900 0.169638
N2    N     N_2   0.686360 0.553430 0.545150 -0.243763
O1    O     O_R   0.936910 0.692950 0.509080 -0.532606
O2    O     O_R   0.138320 0.658600 0.480130 -0.645716
O3    O     O_R   0.002900 0.525670 0.675280 -0.625782
O4    O     O_R   0.204310 0.491320 0.646330 -0.607493
O5    O     O_R   0.861680 0.341400 0.519870 -0.577695
O6    O     O_R   0.063090 0.307050 0.490920 -0.548287
O7    O     O_R   0.795690 0.508680 0.353670 -0.549242
O8    O     O_R   0.997100 0.474330 0.324720 -0.601825
Zn1   Zn    Zn3+2 0.865520 0.522940 0.519330 1.047399
Zn2   Zn    Zn3+2 0.134480 0.477060 0.480670 1.057133
F1    F     F_    0.952430 0.898294 0.608767 -0.601609
F2    F     F_    0.831263 0.091617 0.565700 -0.647427
O9    O     O_3   0.583519 0.359996 0.467846 -0.519550
C25   C     C_3   0.593379 0.279574 0.558840 -0.124175
H10   H     H_    0.505949 0.282440 0.593171 0.089362
H11   H     H_    0.693555 0.301263 0.631722 0.167529
H12   H     H_    0.589606 0.184463 0.525084 0.220820
F3    F     F_    0.313363 0.356344 0.380017 -0.532236
F4    F     F_    0.655381 0.624491 0.166413 -0.681507
F5    F     F_    0.242242 0.282257 0.741127 -0.703394
O10   O     O_3   0.112615 0.105782 0.443811 -0.620485
C26   C     C_3   0.253615 0.116787 0.517894 -0.149821
H13   H     H_    0.320823 0.112539 0.463380 0.205449
H14   H     H_    0.279634 0.043453 0.581298 0.107657
H15   H     H_    0.281054 0.206828 0.566140 0.238337

loop_
_geom_bond_atom_site_label_1
_geom_bond_atom_site_label_2
_ccdc_geom_bond_type
C2    C4    A    
C23   C24   A    
C19   O7    A    
O3    Zn1   S    
C14   F2    S    
C1    O2    A    
C11   C13   D    
C14   C18   S    
C9    C20   A    
C1    C11   S    
C17   O9    S    
C7    F5    S    
O4    Zn2   S    
C25   H12   S    
C15   O10   S    
C16   H3    S    
C24   H8    S    
C2    C3    A    
C9    H1    S    
N1    Zn2   S    
C20   H6    S    
C10   C22   A    
C2    C24   A    
N2    Zn1   S    
O8    Zn2   S    
C9    C21   A    
C26   H13   S    
C6    C7    A    
O7    Zn1   S    
C12   O4    A    
C3    C10   A    
C5    C6    A    
C10   C12   S    
O9    C25   S    
C19   C21   S    
C19   O8    A    
C8    C21   A    
C3    C7    A    
C13   C15   S    
C12   O3    A    
C13   F1    S    
O1    Zn1   S    
C26   H14   S    
C22   H7    S    
O2    Zn2   S    
O5    Zn1   S    
C6    H5    S    
O10   C26   S    
H4    N2    S    
N1    F3    S    
C25   H10   S    
C18   O6    A    
C8    F4    S    
C4    C8    A    
C5    C20   A    
C18   O5    A    
C14   C15   D    
C16   C17   S    
C26   H15   S    
O6    Zn2   S    
C17   N2    D    
C11   H2    S    
C16   N1    D    
C22   C23   A    
C25   H11   S    
C1    O1    A    
C4    C5    A    
C23   H9    S    
