data_mof_unit_51508.cif
_audit_creation_date              2013-03-05T15:54:39-0500
_audit_creation_method            fapswitch 2.2
_symmetry_space_group_name_H-M    P1
_symmetry_Int_Tables_number       1
_space_group_crystal_system       triclinic
_cell_length_a                    14.032685
_cell_length_b                    14.036474
_cell_length_c                    30.092052
_cell_angle_alpha                 97.051927
_cell_angle_beta                  97.022534
_cell_angle_gamma                 61.270172
_cell_volume                      5144.59213687

loop_
_atom_site_label
_atom_site_type_symbol
_atom_site_description
_atom_site_fract_x
_atom_site_fract_y
_atom_site_fract_z
_atom_type_partial_charge
O1    O     O_R   0.688580 0.499770 0.460490 -0.490255
O2    O     O_R   0.480400 0.672610 0.462660 -0.517262
C1    C     C_R   0.385363 0.711721 0.442208 0.889868
O3    O     O_R   0.315310 0.685650 0.451800 -0.503501
O4    O     O_R   0.346220 0.474990 0.446280 -0.541944
C2    C     C_R   0.398818 0.381222 0.426476 0.806538
O5    O     O_R   0.492270 0.312460 0.441630 -0.491484
O6    O     O_R   0.669740 0.350480 0.455640 -0.514995
C3    C     C_R   0.711557 0.404583 0.442518 0.891065
O7    O     O_R   0.691150 0.501150 0.557860 -0.527064
O8    O     O_R   0.482790 0.673890 0.552920 -0.528853
C4    C     C_R   0.389512 0.711750 0.568155 0.817230
O9    O     O_R   0.317880 0.687030 0.549170 -0.509743
O10   O     O_R   0.348600 0.476260 0.536540 -0.513035
C5    C     C_R   0.401645 0.382404 0.552340 0.916762
O11   O     O_R   0.494840 0.313840 0.539010 -0.495848
O12   O     O_R   0.672120 0.351750 0.545910 -0.516462
C6    C     C_R   0.713305 0.407507 0.568411 0.804392
Cr1   Cr    Cr6+3 0.581000 0.584320 0.508140 1.096240
Cr2   Cr    Cr6+3 0.339110 0.576430 0.496080 1.088250
Cr3   Cr    Cr6+3 0.579910 0.339270 0.495810 1.135313
O13   O     O_3   0.500010 0.500010 0.500010 -0.393320
C7    C     C_1   0.365117 0.364479 0.380888 -0.049995
C8    C     C_R   0.265181 0.442599 0.269583 0.349336
C9    C     C_R   0.262586 0.435565 0.222668 0.396592
C10   C     C_R   0.379673 0.237353 0.222514 0.300082
C11   C     C_R   0.382508 0.244995 0.269570 0.350365
C12   C     C_R   0.325814 0.347206 0.293108 -0.280733
C13   C     C_R   0.318784 0.332781 0.198893 -0.235907
C14   C     C_1   0.304624 0.322198 0.150650 0.004216
C15   C     C_1   0.343717 0.355406 0.341239 0.112385
C16   C     C_1   0.292034 0.304426 0.110889 -0.107588
C17   C     C_R   0.772554 0.364061 0.401095 -0.331232
C18   C     C_R   0.774690 0.272963 0.373941 0.191598
C19   C     C_R   0.801135 0.256017 0.329189 0.288895
C20   C     C_R   0.829094 0.326699 0.311812 -0.212707
C21   C     C_R   0.842867 0.407809 0.340225 0.286010
C22   C     C_R   0.815429 0.425643 0.385258 0.385312
C23   C     C_R   0.818111 0.409348 0.156270 0.302705
C24   C     C_R   0.841493 0.399756 0.111345 0.331368
C25   C     C_R   0.876538 0.210678 0.104387 0.333657
C26   C     C_R   0.856392 0.218742 0.149385 0.394900
C27   C     C_R   0.833789 0.316198 0.176159 -0.258434
C28   C     C_1   0.833376 0.318765 0.224036 0.029018
C29   C     C_1   0.833216 0.321456 0.264046 0.111859
C30   C     C_R   0.881695 0.297023 0.086525 -0.431865
C31   C     C_R   0.364830 0.767913 0.400541 -0.276767
C32   C     C_R   0.449345 0.779216 0.384299 0.211041
C33   C     C_R   0.445847 0.792420 0.338484 0.247044
C34   C     C_R   0.356232 0.800002 0.309814 -0.162340
C35   C     C_R   0.266129 0.802686 0.326535 0.298280
C36   C     C_R   0.268107 0.791882 0.372837 0.247361
C37   C     C_R   0.268198 0.807442 0.147987 0.287025
C38   C     C_R   0.247902 0.839123 0.103512 0.237822
C39   C     C_R   0.395794 0.887202 0.116177 0.315529
C40   C     C_R   0.421688 0.846944 0.159142 0.276506
C41   C     C_R   0.352768 0.814415 0.175628 -0.146297
C42   C     C_1   0.357283 0.804595 0.222773 0.137980
C43   C     C_1   0.357672 0.801649 0.262408 0.214459
C44   C     C_R   0.304256 0.889486 0.089384 -0.233407
C45   C     C_R   0.365146 0.361872 0.592965 -0.388915
C46   C     C_R   0.438723 0.273450 0.618666 0.252082
C47   C     C_R   0.422574 0.274694 0.663798 0.301307
C48   C     C_R   0.330988 0.361292 0.682978 -0.234564
C49   C     C_R   0.249403 0.441981 0.656188 0.318494
C50   C     C_R   0.266196 0.441480 0.611041 0.339678
C51   C     C_R   0.229478 0.429325 0.839432 0.314325
C52   C     C_R   0.218139 0.406693 0.882391 0.254115
C53   C     C_R   0.400674 0.249410 0.881505 0.262582
C54   C     C_R   0.410798 0.272052 0.838661 0.237074
C55   C     C_R   0.322440 0.357811 0.817074 -0.135565
C56   C     C_1   0.322814 0.366077 0.770138 0.281861
C57   C     C_1   0.324411 0.366795 0.730475 0.146872
C58   C     C_R   0.300774 0.311297 0.902201 -0.356226
C59   C     C_1   0.760755 0.376567 0.612501 -0.055616
C60   C     C_R   0.727050 0.399570 0.727764 0.268066
C61   C     C_R   0.749488 0.386242 0.774185 0.289579
C62   C     C_R   0.934723 0.242576 0.760470 0.287341
C63   C     C_R   0.912804 0.258097 0.713966 0.296045
C64   C     C_R   0.809273 0.336162 0.698071 -0.138131
C65   C     C_R   0.853220 0.307780 0.790337 -0.213921
C66   C     C_1   0.877434 0.293947 0.837789 0.244873
C67   C     C_1   0.787860 0.355538 0.651060 0.225882
C68   C     C_1   0.905377 0.282905 0.877037 -0.016737
C69   C     C_1   0.374811 0.759318 0.613246 -0.066515
C70   C     C_R   0.316619 0.751485 0.721623 0.368038
C71   C     C_R   0.306149 0.769725 0.768497 0.267511
C72   C     C_R   0.360373 0.912255 0.771317 0.409009
C73   C     C_R   0.373076 0.892970 0.724636 0.254480
C74   C     C_R   0.350960 0.812113 0.700079 -0.092969
C75   C     C_R   0.327997 0.850165 0.792859 -0.127637
C76   C     C_1   0.312231 0.874296 0.840204 0.257550
C77   C     C_1   0.363691 0.787869 0.652484 0.135802
C78   C     C_1   0.293271 0.902921 0.878919 -0.031596
O14   O     O_R   0.167510 0.972920 0.030390 -0.497351
O15   O     O_R   0.990840 0.178580 0.027590 -0.536449
C79   C     C_R   0.947267 0.274373 0.047372 0.865986
O16   O     O_R   0.972840 0.345510 0.038590 -0.498955
O17   O     O_R   0.181550 0.320660 0.045200 -0.528176
C80   C     C_R   0.275528 0.270415 0.065303 0.803840
O18   O     O_R   0.346150 0.177650 0.050510 -0.521773
O19   O     O_R   0.314200 0.996600 0.036060 -0.511777
C81   C     C_R   0.261604 0.952782 0.048784 0.907644
O20   O     O_R   0.168690 0.969990 0.933130 -0.520559
O21   O     O_R   0.991920 0.175870 0.937430 -0.536792
C82   C     C_R   0.952004 0.269297 0.922205 0.815685
O22   O     O_R   0.974010 0.342590 0.941330 -0.493829
O23   O     O_R   0.182630 0.317940 0.955040 -0.504486
C83   C     C_R   0.277463 0.267920 0.940092 0.907794
O24   O     O_R   0.347320 0.174720 0.953250 -0.501011
O25   O     O_R   0.315290 0.993890 0.945900 -0.522531
C84   C     C_R   0.261647 0.950668 0.922966 0.804382
Cr4   Cr    Cr6+3 0.082090 0.079210 0.982490 1.055074
Cr5   Cr    Cr6+3 0.082460 0.324610 0.994920 1.118878
Cr6   Cr    Cr6+3 0.323630 0.087860 0.996130 1.088289
O26   O     O_3   0.162730 0.163890 0.991180 -0.384795
O27   O     O_3   0.208753 0.545261 0.290954 -0.582227
H1    H     H_    0.206371 0.539851 0.323212 0.310033
O28   O     O_3   0.861546 0.128349 0.165798 -0.561015
H2    H     H_    0.831153 0.148004 0.195528 0.355339
O29   O     O_3   0.894139 0.115428 0.079244 -0.558023
H3    H     H_    0.860406 0.134863 0.048549 0.329130
N1    N     N_R   0.798259 0.167184 0.301022 0.165256
O30   O     O_R   0.888183 0.087533 0.286495 -0.320759
O31   O     O_R   0.705277 0.175100 0.283849 -0.302591
O32   O     O_3   0.172477 0.823826 0.073722 -0.584185
H4    H     H_    0.168442 0.759348 0.081493 0.328051
O33   O     O_3   0.203140 0.775468 0.166243 -0.589891
H5    H     H_    0.129745 0.808283 0.150297 0.349144
O34   O     O_3   0.180229 0.810518 0.296491 -0.573006
H6    H     H_    0.142614 0.775846 0.308402 0.356786
O35   O     O_3   0.178007 0.802637 0.391565 -0.589362
H7    H     H_    0.111408 0.854361 0.374664 0.344832
N2    N     N_R   0.535443 0.782634 0.414561 0.181738
O36   O     O_R   0.636853 0.723521 0.405577 -0.275423
O37   O     O_R   0.511995 0.847665 0.450936 -0.312216
O38   O     O_3   0.510264 0.847143 0.185024 -0.572959
H8    H     H_    0.530300 0.800306 0.210244 0.355196
O39   O     O_3   0.457148 0.926762 0.099903 -0.593474
H9    H     H_    0.517693 0.921057 0.121956 0.376887
O40   O     O_3   0.202546 0.531638 0.201599 -0.557431
H10   H     H_    0.215647 0.519266 0.169343 0.323960
N3    N     N_R   0.534338 0.795814 0.320759 0.171479
O41   O     O_R   0.518286 0.884300 0.304390 -0.269787
O42   O     O_R   0.622923 0.705573 0.312752 -0.318050
N4    N     N_R   0.121094 0.478141 0.904716 0.124328
O43   O     O_R   0.126884 0.532216 0.942380 -0.329529
O44   O     O_R   0.026755 0.490440 0.887140 -0.326724
O45   O     O_3   0.150424 0.518639 0.817708 -0.583287
H11   H     H_    0.099955 0.572367 0.839461 0.379198
O46   O     O_3   0.152622 0.522654 0.672568 -0.567679
H12   H     H_    0.146469 0.509467 0.703367 0.329167
N5    N     N_R   0.181489 0.521780 0.583593 0.170363
O47   O     O_R   0.148075 0.491878 0.544801 -0.340728
O48   O     O_R   0.133492 0.623997 0.598182 -0.277759
N6    N     N_R   0.529072 0.180887 0.599001 0.179832
O49   O     O_R   0.628030 0.164930 0.609785 -0.286154
O50   O     O_R   0.511470 0.118825 0.566949 -0.306951
N7    N     N_R   0.510868 0.208137 0.817014 0.178882
O51   O     O_R   0.555304 0.255951 0.799360 -0.288334
O52   O     O_R   0.554811 0.102439 0.812654 -0.261241
N8    N     N_R   0.493074 0.165148 0.904211 0.180669
O53   O     O_R   0.518759 0.063409 0.893556 -0.279667
O54   O     O_R   0.542149 0.190664 0.939445 -0.331954
N9    N     N_R   0.499930 0.187541 0.690319 0.183145
O55   O     O_R   0.468073 0.131436 0.710070 -0.316272
O56   O     O_R   0.599337 0.171956 0.698726 -0.256936
N10   N     N_R   0.622318 0.481280 0.711055 0.146213
O57   O     O_R   0.582667 0.581394 0.728289 -0.333518
O58   O     O_R   0.566146 0.455867 0.678701 -0.361500
O59   O     O_3   0.434353 0.134430 0.201029 -0.563950
H13   H     H_    0.441029 0.139455 0.169188 0.330423
N11   N     N_R   0.666098 0.450732 0.804659 0.175835
O60   O     O_R   0.568796 0.460512 0.796101 -0.260336
O61   O     O_R   0.686340 0.501787 0.840583 -0.326893
N12   N     N_R   0.038528 0.159538 0.777221 0.086580
O62   O     O_R   0.098260 0.184559 0.807925 -0.383485
O63   O     O_R   0.072805 0.058288 0.762207 -0.356190
O64   O     O_3   0.990804 0.200828 0.683285 -0.597735
H14   H     H_    0.063809 0.164238 0.699242 0.349497
O65   O     O_3   0.292718 0.676189 0.695562 -0.577377
H15   H     H_    0.248469 0.656822 0.712081 0.364206
N13   N     N_R   0.274958 0.705967 0.791355 0.118893
O66   O     O_R   0.330361 0.600179 0.788037 -0.312608
O67   O     O_R   0.192360 0.753388 0.816190 -0.327902
O68   O     O_3   0.378478 0.991632 0.797092 -0.581773
H16   H     H_    0.396833 0.032001 0.777884 0.389294
O69   O     O_3   0.406701 0.954431 0.704628 -0.584115
H17   H     H_    0.411053 0.934597 0.671996 0.331923
N14   N     N_R   0.445183 0.148117 0.293446 0.208752
O70   O     O_R   0.404948 0.130077 0.326269 -0.318071
O71   O     O_R   0.541964 0.076425 0.281902 -0.213186
N15   N     N_R   0.822899 0.495268 0.090971 0.176264
O72   O     O_R   0.854648 0.562874 0.112146 -0.283178
O73   O     O_R   0.768679 0.517941 0.052034 -0.331338
O74   O     O_3   0.781981 0.510540 0.179612 -0.565497
H18   H     H_    0.753188 0.510895 0.208077 0.325871
O75   O     O_3   0.877753 0.474123 0.324874 -0.594793
H19   H     H_    0.907694 0.444419 0.295218 0.325880
O76   O     O_3   0.828145 0.503673 0.414461 -0.561226
H20   H     H_    0.862714 0.537441 0.399819 0.386894
N16   N     N_R   0.751796 0.196309 0.391642 0.174838
O77   O     O_R   0.813666 0.140751 0.424918 -0.317047
O78   O     O_R   0.671364 0.179513 0.373895 -0.278669

loop_
_geom_bond_atom_site_label_1
_geom_bond_atom_site_label_2
_geom_bond_distance
_ccdc_geom_bond_type
C62   N12   1.437699 S    
C39   C40   1.410684 A    
C6    C59   1.428206 S    
C40   O38   1.384786 S    
C71   C75   1.407428 A    
C51   O45   1.384376 S    
C25   C26   1.396926 A    
C48   C57   1.433758 S    
O25   C84   1.272875 A    
C72   O68   1.385386 S    
O59   H13   0.988289 S    
O33   H5    0.990229 S    
O17   Cr5   1.912556 S    
C65   C66   1.441591 S    
N1    O30   1.300759 A    
O22   Cr5   2.027534 S    
O4    Cr2   1.912891 S    
C38   C44   1.413944 A    
O65   H15   0.988662 S    
O23   C83   1.279374 A    
C24   C30   1.418442 A    
C4    O9    1.266253 A    
C38   O32   1.381732 S    
O8    Cr1   1.915249 S    
C8    O27   1.384606 S    
N9    O55   1.300610 A    
N16   O78   1.300840 A    
C4    C69   1.429361 S    
C34   C43   1.432351 S    
O21   Cr4   1.913695 S    
N6    O49   1.300953 A    
O7    C6    1.269107 A    
C18   C19   1.402320 A    
O2    C1    1.279504 A    
N13   O67   1.301132 A    
N7    O51   1.300883 A    
C71   N13   1.437698 S    
O4    C2    1.270152 A    
C26   O28   1.384183 S    
O16   Cr5   2.035933 S    
C51   C55   1.397118 A    
C82   O22   1.265508 A    
O23   Cr5   1.919159 S    
Cr6   O26   1.974676 S    
C39   O39   1.385230 S    
C40   C41   1.409753 A    
O12   C6    1.270437 A    
C54   N7    1.438814 S    
C25   O29   1.378699 S    
C80   O18   1.265204 A    
O19   Cr6   1.918838 S    
C69   C77   1.203264 T    
C45   C50   1.419986 A    
C31   C32   1.418532 A    
O6    C3    1.278929 A    
N15   O73   1.301469 A    
C70   O65   1.384734 S    
C68   C82   1.427649 S    
C25   C30   1.420152 A    
N7    O52   1.300425 A    
O75   H19   0.989282 S    
C11   N14   1.440310 S    
C1    C31   1.487699 S    
C44   C81   1.488862 S    
O35   H7    0.990620 S    
C23   O74   1.384799 S    
N4    O44   1.301374 A    
C45   C46   1.418841 A    
C56   C57   1.197852 T    
Cr4   O26   1.976374 S    
N10   O58   1.301481 A    
N9    O56   1.300645 A    
C39   C44   1.419368 A    
C3    C17   1.492902 S    
C53   C54   1.404323 A    
C58   C83   1.493644 S    
C64   C67   1.441330 S    
C35   O34   1.383122 S    
O14   C81   1.276951 A    
C79   O16   1.275971 A    
N8    O54   1.300773 A    
C24   N15   1.437969 S    
N11   O61   1.301244 A    
C9    C13   1.416306 A    
O1    Cr1   2.032872 S    
N16   O77   1.301115 A    
C47   C48   1.403436 A    
C51   C52   1.413192 A    
C36   O35   1.381611 S    
O10   Cr2   1.917733 S    
C53   C58   1.420432 A    
Cr1   O13   1.976331 S    
O1    C3    1.277747 A    
C53   N8    1.433332 S    
C70   C74   1.408140 A    
C23   C24   1.405234 A    
O20   C84   1.267174 A    
C37   C41   1.400036 A    
C62   C63   1.416182 A    
O76   H20   0.989286 S    
C23   C27   1.414058 A    
C60   C64   1.411190 A    
C34   C35   1.399436 A    
C42   C43   1.197727 T    
N11   O60   1.300775 A    
C5    O11   1.273146 A    
O12   Cr3   1.911532 S    
C35   C36   1.415421 A    
O69   H17   0.988268 S    
C19   C20   1.401226 A    
C7    C15   1.200745 T    
C49   O46   1.384862 S    
N6    O50   1.300924 A    
N13   O66   1.300791 A    
N14   O70   1.301438 A    
C21   C22   1.413841 A    
C37   O33   1.383385 S    
Cr5   O26   1.973948 S    
O17   C80   1.272028 A    
C72   C75   1.406256 A    
C61   C65   1.409008 A    
O7    Cr1   2.029587 S    
O46   H12   0.988817 S    
O15   C79   1.279936 A    
C46   C47   1.400632 A    
C76   C78   1.203141 T    
C17   C18   1.419934 A    
C5    C45   1.490422 S    
C20   C29   1.437048 S    
C21   O75   1.385058 S    
C8    C9    1.400297 A    
O28   H2    0.988915 S    
O29   H3    0.991212 S    
C2    O5    1.266597 A    
O68   H16   0.989263 S    
C61   N11   1.438729 S    
N12   O62   1.301369 A    
C30   C79   1.492590 S    
Cr2   O13   1.974851 S    
C10   O59   1.385686 S    
N15   O72   1.301365 A    
C66   C68   1.202473 T    
O40   H10   0.988786 S    
C27   C28   1.437401 S    
C10   C11   1.403995 A    
O18   Cr6   2.028840 S    
C73   O69   1.384799 S    
C63   O64   1.384057 S    
O15   Cr4   1.915750 S    
N5    O48   1.301369 A    
C26   C27   1.412716 A    
C1    O3    1.274655 A    
C75   C76   1.442210 S    
C54   C55   1.403057 A    
C52   N4    1.434189 S    
C28   C29   1.200159 T    
C74   C77   1.443422 S    
N4    O43   1.301083 A    
O38   H8    0.989871 S    
C32   N2    1.437787 S    
N3    O42   1.300890 A    
N10   O57   1.301231 A    
N14   O71   1.301308 A    
O9    Cr2   2.028269 S    
O2    Cr1   1.914120 S    
C70   C71   1.415117 A    
C12   C15   1.439435 S    
C9    O40   1.384691 S    
C8    C12   1.417110 A    
O74   H18   0.989266 S    
O6    Cr3   1.919618 S    
C50   N5    1.437389 S    
N2    O37   1.301400 A    
O39   H9    0.989145 S    
O11   Cr3   2.036038 S    
C37   C38   1.414631 A    
C31   C36   1.415495 A    
O64   H14   0.989089 S    
N8    O53   1.301182 A    
O21   C82   1.273572 A    
N2    O36   1.300191 A    
O27   H1    0.988737 S    
C17   C22   1.416847 A    
C48   C49   1.412549 A    
C19   N1    1.433644 S    
O34   H6    0.989945 S    
C73   C74   1.416724 A    
C55   C56   1.432122 S    
O5    Cr3   2.028850 S    
O45   H11   0.988678 S    
C14   C16   1.200995 T    
C60   C61   1.409048 A    
C62   C65   1.412987 A    
C59   C67   1.202655 T    
C41   C42   1.432954 S    
O14   Cr4   2.031419 S    
O32   H4    0.990682 S    
C32   C33   1.405336 A    
C2    C7    1.424730 S    
C33   N3    1.433115 S    
C78   C84   1.429255 S    
O20   Cr4   2.030893 S    
C46   N6    1.434134 S    
C60   N10   1.438267 S    
C22   O76   1.384533 S    
C49   C50   1.405570 A    
O19   C81   1.277884 A    
N1    O31   1.300666 A    
C47   N9    1.436316 S    
C13   C14   1.440135 S    
C63   C64   1.403030 A    
O3    Cr2   2.034173 S    
C16   C80   1.425178 S    
C18   N16   1.435085 S    
C72   C73   1.414156 A    
C10   C13   1.419318 A    
C20   C21   1.413043 A    
C33   C34   1.402003 A    
C83   O24   1.276139 A    
C11   C12   1.408528 A    
O10   C5    1.280707 A    
O25   Cr6   1.911488 S    
N5    O47   1.301436 A    
Cr3   O13   1.973907 S    
C52   C58   1.423817 A    
O24   Cr6   2.035382 S    
N3    O41   1.300050 A    
O8    C4    1.274403 A    
N12   O63   1.301377 A    
