data_mof_unit_23728.cif
_audit_creation_date              2012-12-10T16:47:59-0500
_audit_creation_method            fapswitch 2.2
_symmetry_space_group_name_H-M    P1
_symmetry_Int_Tables_number       1
_space_group_crystal_system       triclinic
_cell_length_a                    7.885322
_cell_length_b                    8.578675
_cell_length_c                    10.649589
_cell_angle_alpha                 92.175119
_cell_angle_beta                  87.350364
_cell_angle_gamma                 92.537595
_cell_volume                      718.456620557

loop_
_atom_site_label
_atom_site_type_symbol
_atom_type_description
_atom_site_fract_x
_atom_site_fract_y
_atom_site_fract_z
_atom_type_partial_charge
C1    C     C_R   0.544387 0.793858 0.498010 0.978621
C2    C     C_2   0.567747 0.956955 0.499918 -0.357674
C3    C     C_2   0.302623 0.427235 0.082713 0.905364
C4    C     C_3   0.016459 0.379942 0.352898 -0.145343
C5    C     C_3   0.919407 0.226273 0.324101 -0.844117
C6    C     C_2   0.980509 0.600062 0.649641 1.122931
C7    C     C_2   0.431571 0.042990 0.503802 -0.353345
C8    C     C_R   0.505088 0.504013 0.736736 0.919091
C9    C     C_R   0.455518 0.206109 0.503122 0.943749
C10   C     C_R   0.494151 0.488752 0.262487 0.844895
C11   C     C_2   0.617568 0.416954 0.059204 -0.242247
C12   C     C_2   0.476966 0.447048 0.131023 -0.174395
C13   C     C_2   0.615766 0.414365 0.923354 -0.093196
C14   C     C_2   0.519606 0.513707 0.868546 -0.270039
H1    H     H_    0.741043 0.409334 0.099194 0.186593
H2    H     H_    0.009506 0.457990 0.273284 0.207234
H3    H     H_    0.144226 0.342973 0.362639 0.232490
H4    H     H_    0.878421 0.780663 0.748269 0.327641
H5    H     H_    0.695456 0.333957 0.868846 0.196035
H6    H     H_    0.447064 0.601095 0.920940 0.164812
H7    H     H_    0.697083 0.005681 0.498894 0.192865
H8    H     H_    0.301823 0.994056 0.506277 0.199723
H9    H     H_    0.081240 0.526300 0.053937 0.349243
H10   H     H_    0.916800 0.151799 0.407062 0.258906
H11   H     H_    0.789196 0.244019 0.295307 0.281828
H12   H     H_    0.985767 0.163216 0.244466 0.241957
N1    N     N_2   0.950320 0.457950 0.466680 -0.078733
N2    N     N_2   0.049680 0.542050 0.533320 -0.148004
O1    O     O_R   0.389250 0.738570 0.508180 -0.621169
O2    O     O_R   0.193240 0.551252 0.094961 -0.808030
O3    O     O_2   0.982402 0.520975 0.742625 -0.636366
O4    O     O_R   0.922459 0.751636 0.659896 -0.818360
O5    O     O_R   0.678390 0.711630 0.486820 -0.590572
O6    O     O_R   0.355470 0.513470 0.691600 -0.590570
O7    O     O_R   0.644610 0.486520 0.670240 -0.617694
O8    O     O_R   0.321610 0.288370 0.513180 -0.643404
O9    O     O_R   0.610750 0.261430 0.491820 -0.618058
O10   O     O_R   0.355390 0.513480 0.329760 -0.638798
O11   O     O_R   0.644530 0.486530 0.308400 -0.624852
O12   O     O_2   0.258000 0.304939 0.028679 -0.601258
Zn1   Zn    Zn3+2 0.306940 0.517990 0.514260 0.985621
Zn2   Zn    Zn3+2 0.693060 0.482010 0.485740 0.976629

loop_
_geom_bond_atom_site_label_1
_geom_bond_atom_site_label_2
_ccdc_geom_bond_type
C4    H2    S    
C9    O8    A    
C6    O4    S    
C11   C12   D    
C3    O2    S    
C7    H8    S    
C2    C7    D    
C10   O10   A    
C2    H7    S    
C5    H10   S    
C6    O3    D    
C1    O5    A    
C8    O6    A    
C13   C14   D    
C11   C13   S    
N1    Zn2   S    
O8    Zn1   S    
O6    Zn1   S    
C10   C12   S    
C5    H11   S    
O5    Zn2   S    
C9    O9    A    
C3    O12   D    
O11   Zn2   S    
H4    O4    S    
C13   H5    S    
C5    H12   S    
H9    O2    S    
C14   H6    S    
N2    Zn1   S    
N1    N2    D    
C4    N1    S    
O10   Zn1   S    
C1    C2    S    
O9    Zn2   S    
C7    C9    S    
O7    Zn2   S    
C10   O11   A    
C8    C14   S    
C3    C12   S    
C1    O1    A    
O1    Zn1   S    
C11   H1    S    
C6    N2    S    
C4    C5    S    
C8    O7    A    
C4    H3    S    
