data_mof_unit_13615.cif
_audit_creation_date              2012-12-10T18:20:43-0500
_audit_creation_method            fapswitch 2.2
_symmetry_space_group_name_H-M    P1
_symmetry_Int_Tables_number       1
_space_group_crystal_system       triclinic
_cell_length_a                    15.864118
_cell_length_b                    10.620025
_cell_length_c                    9.42168
_cell_angle_alpha                 89.65226
_cell_angle_beta                  90.162459
_cell_angle_gamma                 89.991514
_cell_volume                      1587.30385085

loop_
_atom_site_label
_atom_site_type_symbol
_atom_type_description
_atom_site_fract_x
_atom_site_fract_y
_atom_site_fract_z
_atom_type_partial_charge
C1    C     C_R   0.500022 0.259398 0.500426 0.791935
C2    C     C_R   0.499983 0.740601 0.499574 0.790029
C3    C     C_3   0.569238 0.957434 0.567295 -0.152355
C4    C     C_3   0.430774 0.042566 0.432705 -0.147244
C5    C     C_3   0.499999 0.877581 0.498705 0.005014
C6    C     C_3   0.500013 0.122419 0.501295 0.005172
C7    C     C_3   0.430720 0.957479 0.566493 -0.149190
C8    C     C_3   0.569292 0.042521 0.433506 -0.154005
C9    C     C_3   0.519906 0.609784 0.049797 -0.043915
C10   C     C_3   0.480094 0.390216 0.950203 -0.042141
C11   C     C_3   0.446350 0.580677 0.948509 -0.025281
C12   C     C_3   0.553650 0.419323 0.051491 -0.026496
C13   C     C_3   0.573626 0.529072 0.949789 -0.031562
C14   C     C_3   0.426374 0.470927 0.050211 -0.029050
C15   C     C_R   0.339953 0.500009 0.499828 0.821552
C16   C     C_R   0.660047 0.499988 0.500172 0.819764
C17   C     C_3   0.972505 0.385166 0.528786 0.517717
C18   C     C_3   0.027484 0.614675 0.471295 0.451739
C19   C     C_3   0.028021 0.419445 0.400191 -0.231693
C20   C     C_3   0.971974 0.580389 0.599883 -0.262940
C21   C     C_1   0.250266 0.499874 0.499571 -0.140245
C22   C     C_1   0.749732 0.500082 0.500436 -0.145828
C23   C     C_3   0.028573 0.463322 0.629035 -0.257249
C24   C     C_3   0.971424 0.536512 0.371035 -0.305857
C25   C     C_3   0.083067 0.499570 0.499939 0.010762
C26   C     C_3   0.916928 0.500278 0.500128 0.000026
C27   C     C_1   0.174729 0.499702 0.499663 0.069242
C28   C     C_1   0.825268 0.500205 0.500366 0.058510
C29   C     C_3   0.499959 0.039610 0.635208 -0.141361
C30   C     C_3   0.500053 0.960389 0.364791 -0.142948
Cu1   Cu    Cu3+1 0.500020 0.499990 0.643150 0.950773
Cu2   Cu    Cu3+1 0.499980 0.500010 0.356850 0.950133
H1    H     H_    0.051639 0.352362 0.319615 0.193090
H2    H     H_    0.948354 0.647490 0.680437 0.187921
H3    H     H_    0.947353 0.567946 0.265896 0.176314
H4    H     H_    0.052644 0.431847 0.734160 0.188020
H5    H     H_    0.625871 0.919413 0.622206 0.146917
H6    H     H_    0.374142 0.080586 0.377792 0.151836
H7    H     H_    0.499925 0.074619 0.746009 0.138789
H8    H     H_    0.500087 0.925381 0.253990 0.138813
H9    H     H_    0.374044 0.919473 0.620731 0.157362
H10   H     H_    0.625968 0.080526 0.379269 0.154882
H11   H     H_    0.401250 0.648599 0.900281 0.128893
H12   H     H_    0.598750 0.351401 0.099719 0.128346
H13   H     H_    0.536863 0.702311 0.096012 0.118996
H14   H     H_    0.463138 0.297689 0.903988 0.120362
H15   H     H_    0.635679 0.553903 0.903253 0.131523
H16   H     H_    0.364322 0.446097 0.096747 0.133539
N1    N     N_3   0.500060 0.499970 0.858290 -0.160324
N2    N     N_3   0.499940 0.500030 0.141710 -0.160379
O1    O     O_R   0.500040 0.316850 0.620870 -0.585262
O2    O     O_R   0.499960 0.683150 0.379130 -0.585640
O3    O     O_R   0.500000 0.316860 0.379090 -0.585141
O4    O     O_R   0.500000 0.683140 0.620910 -0.585519
O5    O     O_R   0.379090 0.499980 0.620870 -0.574507
O6    O     O_R   0.620910 0.500020 0.379130 -0.575852
O7    O     O_R   0.379060 0.499990 0.379090 -0.574932
O8    O     O_R   0.620940 0.500010 0.620910 -0.574944
S1    S     S_3+6 0.935298 0.230613 0.567626 0.027599
O9    O     O_2   0.881295 0.234289 0.698326 -0.298418
O10   O     O_2   0.884266 0.183130 0.444471 -0.269817
O11   O     O_3   0.018237 0.135049 0.595766 -0.480849
H17   H     H_    0.993425 0.054002 0.627194 0.411824
S2    S     S_3+6 0.064697 0.769367 0.432699 0.028194
O12   O     O_2   0.116807 0.815541 0.555174 -0.253269
O13   O     O_2   0.117973 0.767282 0.301119 -0.278561
O14   O     O_3   0.982344 0.866704 0.407785 -0.475838
H18   H     H_    0.949591 0.828851 0.329215 0.343024

loop_
_geom_bond_atom_site_label_1
_geom_bond_atom_site_label_2
_ccdc_geom_bond_type
C9    H13   S    
C7    C29   S    
C17   C23   S    
C18   C24   S    
C17   C26   S    
Cu1   O8    S    
C24   C26   S    
C11   C14   S    
C3    C29   S    
C9    C13   S    
Cu2   O2    S    
C1    O3    A    
C10   H14   S    
C11   H11   S    
C20   H2    S    
C23   C25   S    
C21   C27   T    
S1    O9    D    
C22   C28   T    
C15   O7    A    
C18   C25   S    
Cu2   O7    S    
Cu1   N1    S    
C4    C7    S    
C10   C12   S    
S1    O10   D    
C24   H3    S    
C1    C6    S    
S2    O14   S    
C4    C6    S    
C3    C8    S    
C19   H1    S    
Cu1   O1    S    
C5    C7    S    
C6    C8    S    
O14   H18   S    
S2    O13   D    
C16   O6    A    
O11   H17   S    
C11   N1    S    
C1    O1    A    
Cu1   Cu2   S    
C20   C23   S    
C29   H7    S    
C30   H8    S    
C16   O8    A    
C9    C11   S    
Cu2   N2    S    
C2    O2    A    
C17   S1    S    
C13   N1    S    
C4    H6    S    
C2    O4    A    
C2    C5    S    
Cu2   O3    S    
C13   H15   S    
C5    C30   S    
S1    O11   S    
C16   C22   S    
C9    N2    S    
C8    H10   S    
C3    C5    S    
C12   N2    S    
C25   C27   S    
C26   C28   S    
C8    C30   S    
S2    O12   D    
C19   C24   S    
C12   H12   S    
C18   S2    S    
C14   N2    S    
C20   C26   S    
C17   C19   S    
C18   C20   S    
C7    H9    S    
Cu1   O4    S    
C19   C25   S    
C10   C14   S    
C15   C21   S    
C6    C29   S    
C12   C13   S    
C3    H5    S    
C23   H4    S    
C14   H16   S    
Cu1   O5    S    
C10   N1    S    
Cu2   O6    S    
C4    C30   S    
C15   O5    A    
