data_mof_unit_19936.cif
_audit_creation_date              2012-12-11T14:17:49-0500
_audit_creation_method            fapswitch 2.2
_symmetry_space_group_name_H-M    P1
_symmetry_Int_Tables_number       1
_space_group_crystal_system       triclinic
_cell_length_a                    6.943917
_cell_length_b                    13.634739
_cell_length_c                    20.447286
_cell_angle_alpha                 102.323709
_cell_angle_beta                  89.644882
_cell_angle_gamma                 90.890783
_cell_volume                      1891.07278575

loop_
_atom_site_label
_atom_site_type_symbol
_atom_type_description
_atom_site_fract_x
_atom_site_fract_y
_atom_site_fract_z
_atom_type_partial_charge
O1    O     O_R   0.506860 0.599390 0.449240 -0.542616
O2    O     O_R   0.180220 0.594600 0.586780 -0.542640
O3    O     O_R   0.004500 0.400610 0.550760 -0.538361
C1    C     C_R   0.348884 0.616047 0.613467 0.745916
O4    O     O_R   0.177490 0.611290 0.451970 -0.542086
O5    O     O_R   0.001750 0.417420 0.414990 -0.539504
C2    C     C_R   0.347150 0.635761 0.433675 0.689663
O6    O     O_R   0.509610 0.582580 0.585010 -0.541828
O7    O     O_3   0.337420 0.436370 0.488020 -0.372546
V1    V     V_3+5 0.064680 0.511800 0.502220 1.413003
O8    O     O_R   0.671710 0.405400 0.413220 -0.549448
C3    C     C_R   0.840077 0.383507 0.386738 0.745164
O9    O     O_R   0.674440 0.388710 0.548030 -0.541317
C4    C     C_R   0.841959 0.362532 0.565192 0.697627
V2    V     V_3+5 0.564010 0.488200 0.497780 1.406805
O10   O     O_3   0.841140 0.563630 0.511980 -0.372112
C5    C     C_R   0.830371 0.111336 0.612649 -0.158650
H1    H     H_    0.822112 0.161579 0.520197 0.104708
H2    H     H_    0.827973 0.985785 0.695274 0.121951
H3    H     H_    0.819840 0.032954 0.587522 0.113288
C6    C     C_R   0.846436 0.285599 0.605239 -0.031375
C7    C     C_R   0.878484 0.315337 0.928624 -0.167188
C8    C     C_R   0.880624 0.391594 0.893154 -0.119098
C9    C     C_R   0.872080 0.368968 0.823462 -0.156522
C10   C     C_R   0.860838 0.268175 0.787081 0.076977
C11   C     C_R   0.857048 0.190248 0.823933 0.067317
C12   C     C_R   0.853423 0.242116 0.715525 0.072204
C13   C     C_R   0.840567 0.139112 0.682758 0.141803
C14   C     C_R   0.837273 0.064395 0.720013 -0.202194
C15   C     C_R   0.845752 0.089325 0.789387 -0.195103
C16   C     C_R   0.857655 0.314498 0.675064 -0.214250
C17   C     C_R   0.832097 0.184207 0.574197 -0.174036
C18   C     C_R   0.866230 0.214963 0.894842 -0.073757
H4    H     H_    0.867464 0.393934 0.695978 0.093789
H5    H     H_    0.886783 0.334646 0.982783 0.100715
H6    H     H_    0.874702 0.432299 0.799769 0.106792
H7    H     H_    0.889767 0.469140 0.919911 0.116859
H8    H     H_    0.843027 0.028394 0.815772 0.116833
C19   C     C_2   0.005452 0.291179 0.284116 -0.134005
C20   C     C_2   0.843505 0.313087 0.320754 -0.321492
H9    H     H_    0.141412 0.324679 0.304194 0.133371
H10   H     H_    0.706498 0.279592 0.302366 0.124947
C21   C     C_2   0.013746 0.222161 0.216819 -0.132906
C22   C     C_2   0.858370 0.184242 0.180167 -0.310736
H11   H     H_    0.156613 0.203497 0.196466 0.133374
H12   H     H_    0.714309 0.203324 0.198658 0.125885
C23   C     C_2   0.204695 0.790683 0.782574 -0.134943
C24   C     C_2   0.363908 0.815707 0.819899 -0.306307
H13   H     H_    0.067061 0.820800 0.802189 0.131400
H14   H     H_    0.502406 0.785950 0.801635 0.127510
C25   C     C_2   0.202680 0.722193 0.715046 -0.132274
C26   C     C_2   0.360743 0.684314 0.680214 -0.312314
H15   H     H_    0.061377 0.703094 0.693104 0.133811
H16   H     H_    0.503888 0.702997 0.700129 0.125285
C27   C     C_R   0.369113 0.884349 0.385015 -0.166008
H17   H     H_    0.339248 0.833497 0.476501 0.113022
H18   H     H_    0.425490 0.009440 0.303412 0.122128
H19   H     H_    0.376199 0.962563 0.410695 0.118736
C28   C     C_R   0.358832 0.709510 0.391296 -0.055545
C29   C     C_R   0.277225 0.689745 0.071274 -0.165933
C30   C     C_R   0.215480 0.620815 0.108355 -0.125255
C31   C     C_R   0.231959 0.643716 0.177777 -0.146645
C32   C     C_R   0.323485 0.733228 0.211388 0.069409
C33   C     C_R   0.364766 0.808156 0.174270 0.060823
C34   C     C_R   0.355300 0.754855 0.281895 0.043838
C35   C     C_R   0.374901 0.857258 0.315131 0.120984
C36   C     C_R   0.403166 0.931676 0.278295 -0.194528
C37   C     C_R   0.408661 0.906661 0.208811 -0.195259
C38   C     C_R   0.377936 0.679787 0.320658 0.011755
C39   C     C_R   0.350528 0.811017 0.422493 -0.197142
C40   C     C_R   0.347010 0.784361 0.103688 -0.076601
H20   H     H_    0.257482 0.672107 0.017472 0.102836
H21   H     H_    0.157159 0.595048 0.204823 0.107066
H22   H     H_    0.146835 0.551100 0.083449 0.116130
H23   H     H_    0.436975 0.966385 0.182495 0.120425
O11   O     O_R   0.203230 0.917310 0.915020 -0.539173
O12   O     O_R   0.535500 0.888690 0.048040 -0.542831
O13   O     O_R   0.711080 0.082610 0.085000 -0.544859
C41   C     C_R   0.365068 0.861765 0.064315 0.689864
O14   O     O_R   0.532630 0.905370 0.913230 -0.548612
O15   O     O_R   0.708190 0.099410 0.949230 -0.538506
C42   C     C_R   0.364541 0.884207 0.886515 0.743259
O16   O     O_R   0.206120 0.900510 0.050790 -0.537785
O17   O     O_3   0.375360 0.063570 0.011990 -0.372292
V3    V     V_3+5 0.648170 0.988200 0.997780 1.411961
O18   O     O_R   0.038240 0.111390 0.951940 -0.541053
C43   C     C_R   0.870727 0.137379 0.934701 0.687335
O19   O     O_R   0.041120 0.094710 0.086750 -0.541719
C44   C     C_R   0.872338 0.116014 0.113473 0.745994
V4    V     V_3+5 0.148810 0.011930 0.002180 1.422054
O20   O     O_3   0.871750 0.936430 0.988010 -0.372876
C45   C     C_3   0.454822 0.574881 0.289662 -0.368364
C46   C     C_3   0.650099 0.580382 0.254317 -0.275454
C47   C     C_3   0.697377 0.480485 0.207646 -0.778054
H24   H     H_    0.688077 0.418562 0.234896 0.235104
H25   H     H_    0.594545 0.464628 0.165155 0.230551
H26   H     H_    0.845508 0.483816 0.187404 0.214790
H27   H     H_    0.651533 0.638879 0.224034 0.207251
H28   H     H_    0.765124 0.600250 0.292672 0.188967
H29   H     H_    0.478585 0.529718 0.327786 0.168199
H30   H     H_    0.350174 0.527987 0.256206 0.164625

loop_
_geom_bond_atom_site_label_1
_geom_bond_atom_site_label_2
_ccdc_geom_bond_type
C32   C34   A    
C46   C47   S    
C1    O6    A    
C40   C41   S    
V3    O20   S    
C23   H13   S    
C37   H23   S    
C7    H5    S    
C6    C16   A    
C9    H6    S    
C1    C26   S    
C33   C37   A    
C4    C6    S    
C13   C14   A    
O5    C3    A    
C29   H20   S    
V2    O10   S    
C5    H3    S    
C15   H8    S    
C33   C40   A    
O16   V4    S    
O8    V2    S    
C22   H12   S    
C8    C9    A    
C31   H21   S    
O1    V2    S    
C38   C45   S    
O7    V1    S    
C46   H28   S    
C20   H10   S    
C35   C36   A    
O12   V3    S    
O9    C4    A    
C47   H24   S    
O17   V4    S    
H18   C36   S    
C2    C28   S    
C26   H16   S    
O12   C41   A    
O13   C44   A    
C6    C17   A    
C12   C16   A    
C25   C26   D    
C9    C10   A    
O14   C42   A    
O18   V4    S    
O11   C42   A    
C19   C20   D    
O4    C2    A    
O18   C43   A    
C23   C25   S    
C47   H26   S    
C10   C11   A    
C8    H7    S    
C36   C37   A    
C29   C30   A    
C25   H15   S    
C3    C20   S    
O2    C1    A    
C21   C22   D    
O14   V3    S    
C11   C18   A    
C23   C24   D    
C31   C32   A    
C16   H4    S    
O17   V3    S    
C47   H25   S    
C21   H11   S    
O15   C43   A    
O3    C4    A    
C45   H30   S    
C28   C38   A    
O13   V3    S    
O19   V4    S    
C11   C15   A    
O6    V2    S    
H17   C39   S    
O9    V2    S    
H1    C17   S    
O2    V1    S    
C27   C35   A    
C45   H29   S    
C7    C18   A    
O1    C2    A    
C5    C13   A    
O5    V1    S    
C19   C21   S    
O8    C3    A    
C30   H22   S    
C10   C12   A    
C29   C40   A    
C18   C43   S    
O4    V1    S    
O3    V1    S    
V1    O10   S    
C41   O16   A    
V4    O20   S    
C34   C38   A    
C24   H14   S    
C45   C46   S    
C24   C42   S    
O7    V2    S    
C30   C31   A    
C27   C39   A    
C28   C39   A    
C14   C15   A    
C32   C33   A    
O19   C44   A    
C19   H9    S    
C34   C35   A    
C27   H19   S    
C12   C13   A    
C5    C17   A    
C7    C8    A    
C46   H27   S    
O15   V3    S    
C22   C44   S    
O11   V4    S    
H2    C14   S    
