data_mof_unit_65047.cif
_audit_creation_date              2012-12-10T18:05:53-0500
_audit_creation_method            fapswitch 2.2
_symmetry_space_group_name_H-M    P1
_symmetry_Int_Tables_number       1
_space_group_crystal_system       triclinic
_cell_length_a                    25.979906
_cell_length_b                    25.955028
_cell_length_c                    22.215946
_cell_angle_alpha                 90.000022
_cell_angle_beta                  54.060792
_cell_angle_gamma                 89.999791
_cell_volume                      12128.7472783

loop_
_atom_site_label
_atom_site_type_symbol
_atom_type_description
_atom_site_fract_x
_atom_site_fract_y
_atom_site_fract_z
_atom_type_partial_charge
C1    C     C_R   0.400253 0.250065 0.699495 0.830285
C2    C     C_3   0.229264 0.714014 0.975467 -0.145243
C3    C     C_3   0.247735 0.203455 0.975216 -0.156434
C4    C     C_3   0.747845 0.296580 0.975216 -0.156416
C5    C     C_3   0.252237 0.703446 0.024783 -0.156427
C6    C     C_3   0.252265 0.296545 0.024784 -0.156434
C7    C     C_3   0.747696 0.703467 0.975217 -0.156439
C8    C     C_3   0.689933 0.260724 0.024975 -0.153519
C9    C     C_3   0.310086 0.739359 0.975024 -0.153529
C10   C     C_3   0.310092 0.260611 0.975024 -0.153532
C11   C     C_3   0.689898 0.739428 0.024977 -0.153535
C12   C     C_3   0.189914 0.760640 0.024976 -0.153530
C13   C     C_3   0.229286 0.286006 0.975467 -0.145230
C14   C     C_3   0.810067 0.239276 0.975025 -0.153520
C15   C     C_3   0.810101 0.760572 0.975023 -0.153535
C16   C     C_3   0.189908 0.239389 0.024975 -0.153533
C17   C     C_1   0.639541 0.250129 0.221019 -0.104515
C18   C     C_1   0.360459 0.749871 0.778981 -0.104528
C19   C     C_1   0.360459 0.250129 0.778981 -0.104521
C20   C     C_1   0.639542 0.749871 0.221019 -0.104519
C21   C     C_1   0.139541 0.750129 0.221019 -0.104528
C22   C     C_1   0.860459 0.249871 0.778981 -0.104515
C23   C     C_1   0.860458 0.750129 0.778981 -0.104519
C24   C     C_3   0.770685 0.713967 0.024533 -0.145224
C25   C     C_1   0.139541 0.249871 0.221019 -0.104520
C26   C     C_3   0.270736 0.785986 0.024533 -0.145243
C27   C     C_3   0.729201 0.214072 0.975467 -0.145250
C28   C     C_3   0.729315 0.786033 0.975467 -0.145222
C29   C     C_3   0.270714 0.213994 0.024533 -0.145229
C30   C     C_3   0.713539 0.250072 0.072989 0.178422
C31   C     C_3   0.286460 0.749928 0.927011 0.178428
C32   C     C_3   0.286461 0.250072 0.927011 0.178425
C33   C     C_R   0.599747 0.749935 0.300505 0.830301
C34   C     C_3   0.713540 0.749928 0.072989 0.178425
C35   C     C_3   0.213540 0.750071 0.072989 0.178428
C36   C     C_3   0.786461 0.249928 0.927011 0.178422
C37   C     C_3   0.786460 0.750071 0.927011 0.178424
C38   C     C_3   0.213539 0.249928 0.072989 0.178425
C39   C     C_1   0.672970 0.250128 0.154174 -0.052432
C40   C     C_1   0.327029 0.749872 0.845826 -0.052443
C41   C     C_1   0.327029 0.250128 0.845826 -0.052438
C42   C     C_1   0.672971 0.749872 0.154174 -0.052432
C43   C     C_1   0.172971 0.750128 0.154174 -0.052443
C44   C     C_R   0.599746 0.250065 0.300505 0.830288
C45   C     C_1   0.827030 0.249872 0.845826 -0.052431
C46   C     C_1   0.827029 0.750128 0.845826 -0.052432
C47   C     C_1   0.172971 0.249872 0.154174 -0.052438
C48   C     C_R   0.285684 0.205242 0.484114 -0.275704
C49   C     C_R   0.714303 0.794754 0.515910 -0.275708
C50   C     C_R   0.714283 0.205254 0.515952 -0.275706
C51   C     C_R   0.285612 0.794783 0.484256 -0.275706
C52   C     C_R   0.785697 0.705246 0.484090 -0.275707
C53   C     C_R   0.214315 0.294758 0.515886 -0.275705
C54   C     C_R   0.214388 0.705217 0.515744 -0.275707
C55   C     C_R   0.400253 0.749935 0.699495 0.830283
C56   C     C_R   0.785717 0.294746 0.484048 -0.275707
C57   C     C_R   0.231739 0.203465 0.485163 0.408688
C58   C     C_R   0.768248 0.796532 0.514861 0.408689
C59   C     C_R   0.768226 0.203474 0.514903 0.408686
C60   C     C_R   0.231664 0.796556 0.485308 0.408699
C61   C     C_R   0.731752 0.703468 0.485139 0.408689
C62   C     C_R   0.268260 0.296535 0.514837 0.408689
C63   C     C_R   0.268336 0.703444 0.514692 0.408699
C64   C     C_R   0.731774 0.296526 0.485097 0.408686
C65   C     C_R   0.195855 0.248707 0.500813 -0.161670
C66   C     C_R   0.900253 0.750065 0.699495 0.830300
C67   C     C_R   0.804144 0.751294 0.499187 -0.161678
C68   C     C_R   0.804145 0.248705 0.499187 -0.161694
C69   C     C_R   0.195855 0.751289 0.500815 -0.161615
C70   C     C_R   0.695856 0.748706 0.500813 -0.161678
C71   C     C_R   0.304145 0.251293 0.499187 -0.161671
C72   C     C_R   0.304145 0.748711 0.499185 -0.161615
C73   C     C_R   0.695855 0.251295 0.500813 -0.161695
C74   C     C_R   0.489892 0.026712 0.453127 -0.173762
C75   C     C_R   0.510108 0.973288 0.546873 -0.173762
C76   C     C_R   0.510108 0.026712 0.546873 -0.173764
C77   C     C_R   0.099746 0.249935 0.300505 0.830284
C78   C     C_R   0.489892 0.973287 0.453127 -0.173765
C79   C     C_R   0.989884 0.526713 0.453134 -0.173758
C80   C     C_R   0.010116 0.473287 0.546866 -0.173758
C81   C     C_R   0.010117 0.526713 0.546866 -0.173761
C82   C     C_R   0.989883 0.473287 0.453134 -0.173760
C83   C     C_R   0.500000 0.946301 0.500000 -0.000296
C84   C     C_R   0.500000 0.053699 0.500000 -0.000298
C85   C     C_R   1.000000 0.446301 0.500000 -0.000303
C86   C     C_R   1.000000 0.553699 0.500000 -0.000300
C87   C     C_R   0.639825 0.250761 0.500727 0.865378
C88   C     C_R   0.099747 0.750065 0.300505 0.830283
C89   C     C_R   0.360175 0.749241 0.499274 0.865453
C90   C     C_R   0.360175 0.250760 0.499273 0.865406
C91   C     C_R   0.639825 0.749239 0.500727 0.865393
C92   C     C_R   0.139825 0.750759 0.500726 0.865452
C93   C     C_R   0.860175 0.249239 0.499273 0.865377
C94   C     C_R   0.860175 0.750761 0.499273 0.865392
C95   C     C_R   0.139825 0.249240 0.500726 0.865405
C96   C     C_R   0.500000 0.109802 0.500000 0.789571
C97   C     C_R   0.500000 0.890198 0.500000 0.789559
C98   C     C_R   0.000000 0.609802 0.500000 0.789558
C99   C     C_R   0.900254 0.249935 0.699495 0.830287
C100  C     C_R   1.000000 0.390198 0.500000 0.789570
C101  C     C_R   0.500000 0.390162 0.500000 0.981030
C102  C     C_R   0.500000 0.609838 0.500000 0.981081
C103  C     C_R   1.000000 0.890162 0.500000 0.981075
C104  C     C_R   0.000000 0.109838 0.500000 0.981024
C105  C     C_R   0.528128 0.473080 0.432508 0.321043
C106  C     C_R   0.471872 0.526920 0.567492 0.321026
C107  C     C_R   0.471871 0.473080 0.567492 0.321036
C108  C     C_R   0.528128 0.526920 0.432508 0.321063
C109  C     C_R   0.028133 0.973080 0.432507 0.321026
C110  C     C_3   0.770799 0.285928 0.024533 -0.145251
C111  C     C_R   0.971867 0.026920 0.567492 0.321043
C112  C     C_R   0.971867 0.973080 0.567493 0.321065
C113  C     C_R   0.028133 0.026920 0.432507 0.321037
C114  C     C_R   0.500000 0.553763 0.500000 -0.318136
C115  C     C_R   0.500000 0.446237 0.500000 -0.318133
C116  C     C_R   0.000000 0.053763 0.500000 -0.318136
C117  C     C_R   1.000000 0.946237 0.500000 -0.318139
C118  C     C_3   0.247763 0.796554 0.975217 -0.156428
C119  C     C_3   0.752155 0.203420 0.024784 -0.156417
C120  C     C_3   0.752304 0.796533 0.024783 -0.156440
Cl1   Cl    Cl    0.560866 0.439515 0.347932 -0.482944
Cl2   Cl    Cl    0.790401 0.856897 0.529514 -0.533502
Cl3   Cl    Cl    0.790348 0.143114 0.529611 -0.533479
Cl4   Cl    Cl    0.209383 0.856938 0.470880 -0.533566
Cl5   Cl    Cl    0.709599 0.643103 0.470486 -0.533502
Cl6   Cl    Cl    0.290431 0.356903 0.529457 -0.533495
Cl7   Cl    Cl    0.290617 0.643062 0.529120 -0.533565
Cl8   Cl    Cl    0.709652 0.356886 0.470389 -0.533479
Cl9   Cl    Cl    0.439135 0.560485 0.652067 -0.483005
Cl10  Cl    Cl    0.439135 0.439515 0.652067 -0.482999
Cl11  Cl    Cl    0.560865 0.560485 0.347933 -0.482910
Cl12  Cl    Cl    0.060875 0.939515 0.347930 -0.483000
Cl13  Cl    Cl    0.939125 0.060485 0.652070 -0.482940
Cl14  Cl    Cl    0.939126 0.939515 0.652069 -0.482907
Cl15  Cl    Cl    0.060875 0.060485 0.347930 -0.482995
Cl16  Cl    Cl    0.209568 0.143097 0.470543 -0.533495
H1    H     H_    0.640056 0.269542 0.046534 0.152641
H2    H     H_    0.753411 0.165143 0.046186 0.150648
H3    H     H_    0.753683 0.834771 0.046184 0.150643
H4    H     H_    0.246389 0.165207 0.953815 0.150644
H5    H     H_    0.746589 0.334857 0.953814 0.150648
H6    H     H_    0.253561 0.665190 0.046184 0.150644
H7    H     H_    0.253611 0.334793 0.046185 0.150644
H8    H     H_    0.746317 0.665229 0.953816 0.150643
H9    H     H_    0.212743 0.684443 0.954270 0.157900
H10   H     H_    0.787371 0.315452 0.045731 0.157897
H11   H     H_    0.787163 0.684356 0.045730 0.157919
H12   H     H_    0.359978 0.730611 0.953464 0.152633
H13   H     H_    0.212783 0.315595 0.954270 0.157910
H14   H     H_    0.712629 0.184548 0.954269 0.157897
H15   H     H_    0.287257 0.815557 0.045730 0.157901
H16   H     H_    0.287216 0.184405 0.045730 0.157911
H17   H     H_    0.712837 0.815644 0.954270 0.157919
H18   H     H_    0.312586 0.170177 0.472992 0.205671
H19   H     H_    0.687392 0.829816 0.527050 0.205683
H20   H     H_    0.687355 0.170196 0.527125 0.205708
H21   H     H_    0.312457 0.829865 0.473250 0.205586
H22   H     H_    0.812608 0.670184 0.472950 0.205682
H23   H     H_    0.359989 0.269336 0.953465 0.152631
H24   H     H_    0.187414 0.329823 0.527007 0.205670
H25   H     H_    0.187543 0.670135 0.526750 0.205586
H26   H     H_    0.812645 0.329804 0.472875 0.205708
H27   H     H_    0.481970 0.046798 0.416491 0.172586
H28   H     H_    0.518030 0.953202 0.583509 0.172588
H29   H     H_    0.518030 0.046798 0.583509 0.172588
H30   H     H_    0.481970 0.953202 0.416491 0.172587
H31   H     H_    0.981956 0.546799 0.416503 0.172588
H32   H     H_    0.018045 0.453201 0.583497 0.172587
H33   H     H_    0.018045 0.546799 0.583497 0.172587
H34   H     H_    0.639994 0.730736 0.046537 0.152633
H35   H     H_    0.981955 0.453201 0.416503 0.172588
H36   H     H_    0.140021 0.769389 0.046536 0.152632
H37   H     H_    0.859944 0.230458 0.953466 0.152640
H38   H     H_    0.860006 0.769264 0.953463 0.152633
H39   H     H_    0.140011 0.230664 0.046535 0.152631
H40   H     H_    0.246439 0.834809 0.953816 0.150644
O1    O     O_3   0.500000 0.250030 0.500000 -0.520829
O2    O     O_R   0.112550 0.219620 0.335580 -0.612257
O3    O     O_R   0.112550 0.780380 0.335580 -0.612287
O4    O     O_R   0.887450 0.219620 0.664420 -0.612240
O5    O     O_R   0.594260 0.219670 0.543090 -0.649834
O6    O     O_R   0.405740 0.780330 0.456910 -0.649776
O7    O     O_R   0.405740 0.219670 0.456910 -0.649814
O8    O     O_R   0.594260 0.780330 0.543090 -0.649822
O9    O     O_R   0.094260 0.719670 0.543090 -0.649776
O10   O     O_R   0.905740 0.280330 0.456910 -0.649834
O11   O     O_R   0.905740 0.719670 0.456910 -0.649823
O12   O     O_3   0.500000 0.749970 0.500000 -0.520826
O13   O     O_R   0.094260 0.280330 0.543090 -0.649815
O14   O     O_R   0.508800 0.134220 0.543090 -0.648325
O15   O     O_R   0.491200 0.865780 0.456910 -0.648334
O16   O     O_R   0.491200 0.134220 0.456910 -0.648328
O17   O     O_R   0.508800 0.865780 0.543090 -0.648328
O18   O     O_R   0.008800 0.634220 0.543090 -0.648334
O19   O     O_R   0.991200 0.365780 0.456910 -0.648325
O20   O     O_R   0.991200 0.634220 0.456910 -0.648327
O21   O     O_R   0.008800 0.365780 0.543090 -0.648328
O22   O     O_R   0.448100 0.365830 0.543110 -0.589320
O23   O     O_3   0.000000 0.750030 0.500000 -0.520826
O24   O     O_R   0.551900 0.634170 0.456890 -0.589330
O25   O     O_R   0.551900 0.365830 0.456890 -0.589325
O26   O     O_R   0.448100 0.634170 0.543110 -0.589317
O27   O     O_R   0.948100 0.865830 0.543110 -0.589328
O28   O     O_R   0.051900 0.134170 0.456890 -0.589319
O29   O     O_R   0.051900 0.865830 0.456890 -0.589316
O30   O     O_R   0.948100 0.134170 0.543110 -0.589322
O31   O     O_R   0.637370 0.280400 0.456880 -0.590221
O32   O     O_R   0.362630 0.719600 0.543120 -0.590297
O33   O     O_R   0.362630 0.280400 0.543120 -0.590244
O34   O     O_3   0.000000 0.249970 0.500000 -0.520829
O35   O     O_R   0.637370 0.719600 0.456880 -0.590238
O36   O     O_R   0.137370 0.780400 0.456880 -0.590297
O37   O     O_R   0.862630 0.219600 0.543120 -0.590220
O38   O     O_R   0.862630 0.780400 0.543120 -0.590238
O39   O     O_R   0.137370 0.219600 0.456880 -0.590244
O40   O     O_R   0.448170 0.219660 0.664410 -0.639630
O41   O     O_R   0.551830 0.780340 0.335590 -0.639622
O42   O     O_R   0.551830 0.219660 0.335590 -0.639630
O43   O     O_R   0.448170 0.780340 0.664410 -0.639624
O44   O     O_R   0.948170 0.719660 0.664410 -0.639622
O45   O     O_R   0.387450 0.280380 0.664420 -0.612259
O46   O     O_R   0.051830 0.280340 0.335590 -0.639630
O47   O     O_R   0.051830 0.719660 0.335590 -0.639624
O48   O     O_R   0.948170 0.280340 0.664410 -0.639630
O49   O     O_R   0.612550 0.719620 0.335580 -0.612252
O50   O     O_R   0.612550 0.280380 0.335580 -0.612241
O51   O     O_R   0.387450 0.719620 0.664420 -0.612289
O52   O     O_R   0.887450 0.780380 0.664420 -0.612250
Zn1   Zn    Zn3+2 0.574170 0.293410 0.438410 1.077953
Zn2   Zn    Zn3+2 0.487410 0.793350 0.438420 0.982476
Zn3   Zn    Zn3+2 0.487410 0.206650 0.438420 0.982452
Zn4   Zn    Zn3+2 0.512590 0.793350 0.561580 0.982438
Zn5   Zn    Zn3+2 0.012590 0.706650 0.561580 0.982475
Zn6   Zn    Zn3+2 0.987410 0.293350 0.438420 0.982435
Zn7   Zn    Zn3+2 0.987410 0.706650 0.438420 0.982437
Zn8   Zn    Zn3+2 0.012590 0.293350 0.561580 0.982451
Zn9   Zn    Zn3+2 0.425830 0.706590 0.561590 1.077908
Zn10  Zn    Zn3+2 0.425830 0.293410 0.561590 1.077934
Zn11  Zn    Zn3+2 0.574170 0.706590 0.438410 1.077958
Zn12  Zn    Zn3+2 0.074170 0.793410 0.438410 1.077908
Zn13  Zn    Zn3+2 0.925830 0.206590 0.561590 1.077953
Zn14  Zn    Zn3+2 0.925830 0.793410 0.561590 1.077959
Zn15  Zn    Zn3+2 0.074170 0.206590 0.438410 1.077934
Zn16  Zn    Zn3+2 0.512590 0.206650 0.561580 0.982436

loop_
_geom_bond_atom_site_label_1
_geom_bond_atom_site_label_2
_ccdc_geom_bond_type
C61   C70   A    
O40   Zn16  S    
O16   Zn3   S    
O9    Zn5   S    
C4    C36   S    
O14   Zn16  S    
O7    Zn3   S    
C106  Cl9   S    
C95   O39   A    
C13   C32   S    
C111  C112  A    
C34   C42   S    
O43   Zn4   S    
C4    C8    S    
C2    C12   S    
O23   Zn12  S    
C76   C84   A    
O26   Zn9   S    
C109  C117  A    
C48   C57   A    
C12   H36   S    
O27   Zn14  S    
O4    Zn13  S    
C31   C40   S    
C2    H9    S    
C7    C11   S    
C71   C90   S    
C6    C13   S    
C80   C85   A    
C48   H18   S    
C30   C110  S    
C25   C77   S    
C50   C59   A    
C104  O28   A    
C23   C66   S    
C26   H15   S    
O34   Zn15  S    
C14   H37   S    
C33   O49   A    
C52   C61   A    
O23   Zn5   S    
O1    Zn1   S    
C74   H27   S    
O41   Zn2   S    
C89   O32   A    
C30   C119  S    
C97   O17   A    
C7    C24   S    
O51   Zn9   S    
C56   H26   S    
C15   C120  S    
C98   O18   A    
C1    O45   A    
C17   C39   T    
C55   O51   A    
C3    C29   S    
O13   Zn8   S    
C18   C40   T    
C54   C63   A    
C15   C37   S    
C108  Cl11  S    
C66   O44   A    
O12   Zn9   S    
O22   Zn10  S    
C104  C116  S    
C78   C83   A    
O6    Zn2   S    
C73   C87   S    
C70   C91   S    
C50   H20   S    
C64   Cl8   S    
C29   C38   S    
C62   C71   A    
C67   C94   S    
C32   C41   S    
C56   C64   A    
C57   Cl16  S    
C111  C116  A    
O34   Zn8   S    
C69   C92   S    
C53   C65   A    
C25   C47   T    
C58   Cl2   S    
C81   C86   A    
C37   C46   S    
O5    Zn16  S    
C109  C113  A    
C113  C116  A    
C93   O10   A    
O25   Zn1   S    
C21   C88   S    
C118  H40   S    
C23   C46   T    
C21   C43   T    
C91   O8    A    
C52   H22   S    
C77   O46   A    
C103  C117  S    
C96   O14   A    
C1    O40   A    
C107  Cl10  S    
O12   Zn2   S    
C7    H8    S    
O21   Zn8   S    
C105  C115  A    
C9    C26   S    
C2    C31   S    
C59   Cl3   S    
C105  C108  A    
C34   C120  S    
C94   O38   A    
C78   H30   S    
C93   O37   A    
C26   C118  S    
O44   Zn5   S    
C76   H29   S    
C44   O42   A    
O33   Zn10  S    
O8    Zn4   S    
C91   O35   A    
C28   C120  S    
C50   C73   A    
C112  Cl14  S    
C4    H5    S    
C62   Cl6   S    
C9    C31   S    
C101  O22   A    
O31   Zn1   S    
C55   O43   A    
C56   C68   A    
C1    C19   S    
C51   H21   S    
C24   C34   S    
C49   C58   A    
C98   O20   A    
C75   H28   S    
O29   Zn12  S    
C108  C114  A    
C75   C76   A    
C31   C118  S    
C5    C9    S    
O3    Zn12  S    
C102  C114  S    
C102  O24   A    
C59   C68   A    
C90   O33   A    
C53   C62   A    
C26   C35   S    
C65   C95   S    
C64   C73   A    
C87   O31   A    
C22   C45   T    
C109  Cl12  S    
C6    C38   S    
C7    C37   S    
C88   O47   A    
C105  Cl1   S    
C36   C45   S    
O19   Zn6   S    
C120  H3    S    
C106  C107  A    
C94   O11   A    
C12   C35   S    
C107  C115  A    
C38   C47   S    
O36   Zn12  S    
C52   C67   A    
O47   Zn7   S    
C18   C55   S    
C12   C118  S    
C20   C33   S    
C16   H39   S    
C60   C69   A    
C15   C24   S    
C106  C114  A    
C14   C119  S    
C27   H14   S    
C81   H33   S    
C49   C70   A    
O11   Zn7   S    
C74   C78   A    
C28   H17   S    
O49   Zn11  S    
O35   Zn11  S    
C92   O36   A    
O30   Zn13  S    
C60   Cl4   S    
C51   C72   A    
C48   C71   A    
O50   Zn1   S    
C84   C96   S    
O23   Zn7   S    
C11   C28   S    
O28   Zn15  S    
C35   C43   S    
C88   O3    A    
O2    Zn15  S    
C100  O19   A    
C14   C110  S    
C4    C110  S    
C99   O48   A    
O46   Zn6   S    
C53   H24   S    
C22   C99   S    
C15   H38   S    
C92   O9    A    
C119  H2    S    
C104  O30   A    
C49   H19   S    
C11   C34   S    
C111  Cl13  S    
C103  O29   A    
O34   Zn13  S    
C74   C84   A    
C80   C81   A    
C24   H11   S    
O32   Zn9   S    
C87   O5    A    
C79   C82   A    
C20   C42   T    
C113  Cl15  S    
C51   C60   A    
O20   Zn7   S    
C27   C119  S    
C27   C36   S    
C33   O41   A    
C82   C85   A    
C9    H12   S    
O39   Zn15  S    
C68   C93   S    
O45   Zn10  S    
O38   Zn14  S    
C77   O2    A    
C8    C30   S    
C89   O6    A    
C96   O16   A    
O37   Zn13  S    
C102  O26   A    
O24   Zn11  S    
C13   H13   S    
C99   O4    A    
C85   C100  S    
C101  O25   A    
C100  O21   A    
C29   H16   S    
C14   C36   S    
C72   C89   S    
C10   C29   S    
C75   C83   A    
C5    H6    S    
C112  C117  A    
C54   C69   A    
C44   O50   A    
C28   C37   S    
O15   Zn2   S    
C101  C115  S    
C5    C35   S    
C63   C72   A    
C30   C39   S    
C82   H35   S    
O34   Zn6   S    
C54   H25   S    
O48   Zn8   S    
C3    C32   S    
C86   C98   S    
C103  O27   A    
O42   Zn3   S    
C17   C44   S    
C6    C10   S    
C95   O13   A    
C2    C5    S    
C10   C32   S    
C58   C67   A    
C97   O15   A    
O1    Zn16  S    
O52   Zn14  S    
C90   O7    A    
C11   H34   S    
O1    Zn3   S    
C83   C97   S    
C13   C16   S    
C66   O52   A    
O12   Zn11  S    
C8    C27   S    
O10   Zn6   S    
C8    H1    S    
C61   Cl5   S    
C3    H4    S    
O18   Zn5   S    
O17   Zn4   S    
C79   H31   S    
C6    H7    S    
C110  H10   S    
O12   Zn4   S    
C10   H23   S    
C80   H32   S    
C79   C86   A    
C63   Cl7   S    
C3    C16   S    
C19   C41   T    
O23   Zn14  S    
C16   C38   S    
O1    Zn10  S    
C57   C65   A    
