data_mof_unit_13509.cif
_audit_creation_date              2012-12-10T16:50:11-0500
_audit_creation_method            fapswitch 2.2
_symmetry_space_group_name_H-M    P1
_symmetry_Int_Tables_number       1
_space_group_crystal_system       triclinic
_cell_length_a                    23.478454
_cell_length_b                    8.803413
_cell_length_c                    7.496514
_cell_angle_alpha                 103.263824
_cell_angle_beta                  93.229524
_cell_angle_gamma                 92.899827
_cell_volume                      1502.51024186

loop_
_atom_site_label
_atom_site_type_symbol
_atom_type_description
_atom_site_fract_x
_atom_site_fract_y
_atom_site_fract_z
_atom_type_partial_charge
C1    C     C_R   0.499606 0.200812 0.453291 0.801124
C2    C     C_R   0.504165 0.799410 0.545408 0.790584
C3    C     C_R   0.241430 0.616414 0.403091 0.456871
C4    C     C_R   0.748225 0.335980 0.358895 0.425340
C5    C     C_R   0.301396 0.619059 0.417197 -0.163658
C6    C     C_R   0.690248 0.344815 0.393588 -0.148137
C7    C     C_R   0.329183 0.518448 0.510317 -0.129569
C8    C     C_R   0.669712 0.487897 0.480799 -0.144698
C9    C     C_R   0.296715 0.426115 0.601311 -0.291803
C10   C     C_R   0.705837 0.623322 0.514471 -0.319225
C11   C     C_R   0.237195 0.427411 0.593689 -0.053268
C12   C     C_R   0.763729 0.613425 0.482913 0.004212
C13   C     C_R   0.209050 0.520205 0.490559 0.181424
C14   C     C_R   0.787893 0.465062 0.440872 0.097708
C15   C     C_2   0.498376 0.033747 0.426011 -0.238354
C16   C     C_2   0.512818 0.965843 0.566424 -0.270800
C17   C     C_R   0.391304 0.503793 0.503903 0.793325
C18   C     C_R   0.608470 0.501520 0.496167 0.788492
C19   C     C_R   0.881373 0.571066 0.598591 0.555810
C20   C     C_R   0.118043 0.379886 0.379170 0.559690
C21   C     C_R   0.878413 0.319484 0.407629 0.542612
C22   C     C_R   0.119591 0.643426 0.554337 0.566829
C23   C     C_R   0.938349 0.330279 0.392616 -0.077432
C24   C     C_R   0.059493 0.633181 0.562245 -0.074120
C25   C     C_R   0.969076 0.472424 0.479977 -0.017378
C26   C     C_R   0.029023 0.490268 0.472955 -0.024622
C27   C     C_R   0.940254 0.592927 0.586098 -0.018142
C28   C     C_R   0.058393 0.364183 0.378505 -0.015969
C29   C     C_R   0.968723 0.204861 0.296278 -0.042303
C30   C     C_R   0.028690 0.757334 0.659709 -0.042842
C31   C     C_R   0.027979 0.223333 0.290172 -0.184686
C32   C     C_R   0.970126 0.733913 0.675095 -0.187606
Cu1   Cu    Cu3+1 0.506340 0.517380 0.684380 1.033176
Cu2   Cu    Cu3+1 0.493660 0.482620 0.315620 1.047839
H1    H     H_    0.050441 0.126003 0.216760 0.188121
H2    H     H_    0.947338 0.828963 0.751857 0.193281
H3    H     H_    0.317329 0.349882 0.674584 0.144163
H4    H     H_    0.688183 0.736815 0.554229 0.147577
N1    N     N_R   0.849819 0.451179 0.477340 -0.445131
N2    N     N_R   0.147472 0.515323 0.472687 -0.448245
N3    N     N_2   0.484110 0.456420 0.038520 0.144066
N4    N     N_2   0.515890 0.543580 0.961480 0.116973
O1    O     O_R   0.504120 0.286130 0.619770 -0.533909
O2    O     O_R   0.495880 0.713870 0.380230 -0.589380
O3    O     O_R   0.493410 0.256770 0.308360 -0.565710
O4    O     O_R   0.506590 0.743230 0.691640 -0.600221
O5    O     O_R   0.423230 0.514630 0.655730 -0.598682
O6    O     O_R   0.576770 0.485370 0.344270 -0.536302
O7    O     O_R   0.412530 0.485280 0.344320 -0.601389
O8    O     O_R   0.587470 0.514720 0.655680 -0.575619
O9    O     O_2   0.856481 0.665439 0.736432 -0.539900
O10   O     O_2   0.146693 0.260156 0.288259 -0.552934
O11   O     O_2   0.851154 0.177133 0.370850 -0.479450
O12   O     O_2   0.150134 0.779090 0.628332 -0.524653
C33   C     C_1   0.940977 0.056662 0.197416 0.324921
N5    N     N_1   0.918860 0.937890 0.118476 -0.231360
C34   C     C_1   0.054625 0.910873 0.746350 0.311575
N6    N     N_1   0.074838 0.034450 0.815652 -0.242654
O13   O     O_3   0.214210 0.713637 0.310166 -0.559259
C35   C     C_3   0.207199 0.641423 0.120493 0.069265
H5    H     H_    0.162094 0.594318 0.085728 0.166392
H6    H     H_    0.235111 0.542337 0.075722 0.095756
C36   C     C_3   0.221035 0.762649 0.010153 -0.401184
H7    H     H_    0.266577 0.805608 0.039388 0.223260
H8    H     H_    0.215031 0.705566 0.862210 0.214360
C37   C     C_3   0.183372 0.901003 0.054138 -0.556951
H9    H     H_    0.137514 0.859458 0.032686 0.232402
H10   H     H_    0.192233 0.981254 0.962963 0.263555
H11   H     H_    0.192622 0.967070 0.198818 0.288040
O14   O     O_3   0.761676 0.213395 0.219590 -0.557619
C38   C     C_3   0.773121 0.270207 0.062578 0.108527
H12   H     H_    0.819471 0.305025 0.067309 0.162667
H13   H     H_    0.748239 0.373023 0.050879 0.112201
C39   C     C_3   0.756949 0.140661 0.891319 -0.375356
H14   H     H_    0.779778 0.034464 0.898956 0.259470
H15   H     H_    0.710131 0.111445 0.882462 0.217032
C40   C     C_3   0.771942 0.193643 0.719717 -0.795972
H16   H     H_    0.752307 0.305330 0.717921 0.243101
H17   H     H_    0.755118 0.104119 0.595816 0.275190
H18   H     H_    0.819048 0.211024 0.717712 0.281795
C41   C     C_1   0.333676 0.730160 0.341142 0.297733
N7    N     N_1   0.359157 0.820050 0.280761 -0.308465
C42   C     C_1   0.651235 0.208537 0.326335 0.323545
N8    N     N_1   0.619678 0.100368 0.272803 -0.330109
C43   C     C_1   0.205589 0.333384 0.693624 0.260936
N9    N     N_1   0.180322 0.258157 0.774116 -0.239366
C44   C     C_1   0.795241 0.754133 0.465901 0.295670
N10   N     N_1   0.820742 0.866024 0.451279 -0.209359
C45   C     C_1   0.480562 0.947137 0.239367 0.344506
N11   N     N_1   0.466882 0.879047 0.090597 -0.276371
C46   C     C_1   0.542739 0.050595 0.738517 0.339489
N12   N     N_1   0.567039 0.116742 0.875093 -0.207530
O15   O     O_3   0.468438 0.313087 0.934634 -0.464628
C47   C     C_3   0.408165 0.298758 0.911119 0.171634
H19   H     H_    0.397083 0.257772 0.761506 0.126515
H20   H     H_    0.387412 0.410986 0.960065 0.127542
C48   C     C_3   0.383591 0.173645 0.002235 -0.369077
H21   H     H_    0.400034 0.059137 0.938478 0.237204
H22   H     H_    0.396675 0.203037 0.150813 0.250548
C49   C     C_3   0.318388 0.159613 0.979878 -0.903319
H23   H     H_    0.300801 0.273880 0.038531 0.259259
H24   H     H_    0.301972 0.073113 0.054323 0.275289
H25   H     H_    0.303494 0.119712 0.832396 0.265006
O16   O     O_3   0.571020 0.539558 0.018860 -0.464350
C50   C     C_3   0.598383 0.689437 0.044773 0.199529
H26   H     H_    0.588682 0.761267 0.180737 0.138632
H27   H     H_    0.584951 0.750075 0.936144 0.151460
C51   C     C_3   0.662888 0.670053 0.041860 -0.427047
H28   H     H_    0.675762 0.594866 0.135515 0.233832
H29   H     H_    0.673238 0.610564 0.901281 0.241290
C52   C     C_3   0.697812 0.825780 0.099867 -0.819111
H30   H     H_    0.682663 0.906999 0.017074 0.259928
H31   H     H_    0.743549 0.807346 0.077451 0.280062
H32   H     H_    0.694111 0.877517 0.248074 0.266888

loop_
_geom_bond_atom_site_label_1
_geom_bond_atom_site_label_2
_ccdc_geom_bond_type
C37   H10   S    
C44   N10   T    
C36   H8    S    
O15   C47   S    
N3    N4    D    
C52   H30   S    
C33   N5    T    
C4    O14   S    
C48   H21   S    
C22   O12   S    
C43   N9    T    
C2    O4    A    
C50   H27   S    
C39   H15   S    
C35   C36   S    
Cu1   N4    S    
C23   C29   A    
C24   C26   A    
C20   N2    A    
C37   H11   S    
C19   N1    A    
C15   C16   D    
C30   C34   S    
C51   H28   S    
C35   H6    S    
C13   N2    S    
C14   N1    S    
C1    O1    A    
N3    O15   S    
C2    O2    A    
C7    C17   S    
C39   C40   S    
O14   C38   S    
C1    C15   S    
C2    C16   S    
C3    C13   A    
C37   H9    S    
C36   C37   S    
O13   C35   S    
Cu1   O4    S    
Cu2   N3    S    
C9    H3    S    
O16   C50   S    
C48   H22   S    
C41   N7    T    
C40   H17   S    
C50   C51   S    
C39   H14   S    
Cu1   O1    S    
Cu2   O2    S    
C4    C6    A    
C17   O7    A    
C46   N12   T    
C5    C7    A    
C6    C8    A    
C20   C28   A    
C47   C48   S    
Cu1   O8    S    
C40   H16   S    
C49   H25   S    
C8    C18   S    
C18   O6    A    
C35   H5    S    
C15   C45   S    
C5    C41   S    
C42   N8    T    
C21   N1    A    
C29   C31   A    
C22   N2    A    
C49   H24   S    
Cu1   Cu2   S    
C52   H31   S    
Cu2   O3    S    
C47   H20   S    
C9    C11   A    
C10   C12   A    
C12   C14   A    
C21   C23   A    
Cu1   O5    S    
C31   H1    S    
Cu2   O6    S    
C32   H2    S    
C48   C49   S    
C19   C27   A    
C18   O8    A    
C38   H13   S    
C40   H18   S    
C7    C9    A    
Cu2   O7    S    
C6    C42   S    
C12   C44   S    
C27   C32   A    
C28   C31   A    
C17   O5    A    
C3    C5    A    
N4    O16   S    
C38   C39   S    
C25   C27   A    
C29   C33   S    
C50   H26   S    
C26   C28   A    
C51   C52   S    
C10   H4    S    
C25   C26   A    
C38   H12   S    
C20   O10   S    
C30   C32   A    
C11   C13   A    
C1    O3    A    
C34   N6    T    
C11   C43   S    
C21   O11   S    
C49   H23   S    
C51   H29   S    
C52   H32   S    
C22   C24   A    
C23   C25   A    
C4    C14   A    
C47   H19   S    
C24   C30   A    
C36   H7    S    
C19   O9    S    
C16   C46   S    
C8    C10   A    
C45   N11   T    
C3    O13   S    
