data_mof_unit_23141.cif
_audit_creation_date              2012-12-10T17:33:09-0500
_audit_creation_method            fapswitch 2.2
_symmetry_space_group_name_H-M    P1
_symmetry_Int_Tables_number       1
_space_group_crystal_system       triclinic
_cell_length_a                    12.241623
_cell_length_b                    12.85259
_cell_length_c                    13.671071
_cell_angle_alpha                 95.533157
_cell_angle_beta                  77.47368
_cell_angle_gamma                 94.334865
_cell_volume                      2086.66404975

loop_
_atom_site_label
_atom_site_type_symbol
_atom_type_description
_atom_site_fract_x
_atom_site_fract_y
_atom_site_fract_z
_atom_type_partial_charge
C1    C     C_R   0.523003 0.699616 0.493068 0.878357
C2    C     C_R   0.148190 0.454821 0.456926 0.034366
C3    C     C_R   0.971728 0.539940 0.533755 -0.033128
C4    C     C_R   0.028274 0.460063 0.466241 -0.033133
C5    C     C_R   0.478393 0.501684 0.687018 0.907981
C6    C     C_R   0.521608 0.498316 0.312982 0.907976
C7    C     C_1   0.539219 0.494245 0.207232 -0.160978
C8    C     C_1   0.460788 0.505759 0.792766 -0.160986
C9    C     C_2   0.544803 0.483048 0.014149 -0.049855
C10   C     C_2   0.455221 0.516970 0.985846 -0.049858
C11   C     C_1   0.453053 0.510595 0.881519 -0.051146
C12   C     C_R   0.476997 0.300383 0.506927 0.878352
C13   C     C_1   0.546964 0.489415 0.118478 -0.051143
C14   C     C_R   0.463621 0.189260 0.517695 -0.042234
C15   C     C_R   0.536379 0.810736 0.482285 -0.042233
C16   C     C_R   0.650915 0.971149 0.468314 -0.249404
C17   C     C_R   0.349084 0.028845 0.531649 -0.249403
C18   C     C_R   0.642154 0.862755 0.460831 -0.223141
C19   C     C_R   0.357846 0.137239 0.539144 -0.223144
C20   C     C_R   0.439619 0.866210 0.495734 -0.291936
C21   C     C_R   0.560380 0.133784 0.504232 -0.291931
C22   C     C_R   0.362383 0.569135 0.057486 0.163377
C23   C     C_R   0.446744 0.973587 0.506085 0.189778
C24   C     C_R   0.252480 0.524769 0.069497 -0.204686
C25   C     C_R   0.163730 0.576445 0.132611 -0.183003
C26   C     C_R   0.184653 0.671433 0.186113 -0.120673
C27   C     C_R   0.294148 0.715385 0.175751 -0.150207
C28   C     C_R   0.382740 0.664890 0.111204 -0.157565
C29   C     C_R   0.637654 0.430901 0.942507 0.163374
C30   C     C_R   0.747548 0.475287 0.930504 -0.204692
C31   C     C_R   0.836312 0.423631 0.867389 -0.182999
C32   C     C_R   0.815410 0.328645 0.813874 -0.120680
C33   C     C_R   0.705923 0.284675 0.824225 -0.150211
C34   C     C_R   0.553256 0.026408 0.493876 0.189780
C35   C     C_R   0.617318 0.335149 0.888776 -0.157563
C36   C     C_R   0.212081 0.378675 0.382540 0.176350
C37   C     C_R   0.255813 0.404030 0.283700 -0.122776
C38   C     C_R   0.312478 0.330208 0.212354 -0.155800
C39   C     C_R   0.324097 0.230092 0.238964 -0.126842
C40   C     C_R   0.277147 0.203069 0.336284 -0.117743
C41   C     C_R   0.220807 0.277022 0.407621 -0.079654
C42   C     C_R   0.787924 0.621339 0.617446 0.176346
C43   C     C_R   0.779211 0.722989 0.592352 -0.079660
C44   C     C_R   0.722880 0.796954 0.663680 -0.117730
C45   C     C_R   0.962967 0.392443 0.407749 -0.132528
C46   C     C_R   0.675921 0.769946 0.761003 -0.126848
C47   C     C_R   0.687526 0.669831 0.787626 -0.155812
C48   C     C_R   0.744186 0.595998 0.716289 -0.122771
C49   C     C_R   0.195814 0.621930 0.679311 0.196179
C50   C     C_R   0.171106 0.558241 0.759777 -0.166526
C51   C     C_R   0.195319 0.594949 0.852305 -0.146381
C52   C     C_R   0.247343 0.694437 0.864981 -0.104937
C53   C     C_R   0.271749 0.758691 0.785323 -0.167293
C54   C     C_R   0.243536 0.723456 0.693511 -0.093947
C55   C     C_R   0.804183 0.378068 0.320690 0.196194
C56   C     C_R   0.037035 0.607561 0.592245 -0.132525
C57   C     C_R   0.828877 0.441764 0.240230 -0.166499
C58   C     C_R   0.804675 0.405054 0.147699 -0.146386
C59   C     C_R   0.752676 0.305557 0.135012 -0.104945
C60   C     C_R   0.728284 0.241296 0.214664 -0.167275
C61   C     C_R   0.756485 0.276534 0.306480 -0.093974
C62   C     C_R   0.000199 0.292395 0.351012 0.126727
C63   C     C_R   0.978798 0.199623 0.400355 -0.184549
C64   C     C_R   0.999866 0.102725 0.346137 -0.158642
C65   C     C_R   0.040038 0.097502 0.242075 -0.110725
C66   C     C_R   0.058507 0.189082 0.191977 -0.113238
C67   C     C_R   0.850616 0.412807 0.410048 0.057245
C68   C     C_R   0.037829 0.286147 0.245951 -0.109773
C69   C     C_R   0.999815 0.707622 0.648958 0.126725
C70   C     C_R   0.962184 0.713902 0.754020 -0.109775
C71   C     C_R   0.941515 0.810981 0.807968 -0.113243
C72   C     C_R   0.959994 0.902545 0.757844 -0.110729
C73   C     C_R   0.000168 0.897290 0.653782 -0.158656
C74   C     C_R   0.021227 0.800379 0.599590 -0.184548
C75   C     C_R   0.149383 0.587192 0.589952 0.057251
C76   C     C_R   0.851812 0.545182 0.543070 0.034371
H1    H     H_    0.733176 0.011472 0.454564 0.136922
H2    H     H_    0.883961 0.289286 0.764241 0.118569
H3    H     H_    0.689813 0.211074 0.782791 0.127383
H4    H     H_    0.533142 0.299373 0.897524 0.121712
H5    H     H_    0.641901 0.173571 0.500170 0.153284
H6    H     H_    0.358099 0.826422 0.499797 0.153286
H7    H     H_    0.282759 0.179777 0.561213 0.148296
H8    H     H_    0.717241 0.820217 0.438771 0.148297
H9    H     H_    0.248147 0.481739 0.263487 0.162376
H10   H     H_    0.346880 0.350161 0.136360 0.141434
H11   H     H_    0.367318 0.172854 0.183647 0.121387
H12   H     H_    0.266823 0.988523 0.545399 0.136929
H13   H     H_    0.282308 0.124233 0.355676 0.135080
H14   H     H_    0.179337 0.254789 0.481299 0.094610
H15   H     H_    0.820685 0.745211 0.518672 0.094607
H16   H     H_    0.717731 0.875789 0.644278 0.135077
H17   H     H_    0.632706 0.827193 0.816313 0.121386
H18   H     H_    0.653117 0.649889 0.863622 0.141433
H19   H     H_    0.751842 0.518291 0.736512 0.162391
H20   H     H_    0.129046 0.481596 0.751810 0.107925
H21   H     H_    0.171221 0.546325 0.914040 0.139831
H22   H     H_    0.266354 0.722551 0.936953 0.148665
H23   H     H_    0.235559 0.450282 0.029738 0.121460
H24   H     H_    0.308755 0.837048 0.795799 0.131615
H25   H     H_    0.252849 0.776854 0.636094 0.116239
H26   H     H_    0.870921 0.518416 0.248203 0.107924
H27   H     H_    0.828763 0.453684 0.085969 0.139844
H28   H     H_    0.733677 0.277440 0.063036 0.148653
H29   H     H_    0.691303 0.162930 0.204179 0.131614
H30   H     H_    0.747188 0.223131 0.363891 0.116227
H31   H     H_    0.945145 0.202554 0.480615 0.118064
H32   H     H_    0.984162 0.031649 0.384694 0.117322
H33   H     H_    0.056076 0.022424 0.200163 0.114283
H34   H     H_    0.079042 0.542212 0.140904 0.126133
H35   H     H_    0.088372 0.184866 0.111250 0.115433
H36   H     H_    0.050289 0.356309 0.206077 0.116130
H37   H     H_    0.949716 0.643754 0.793915 0.116140
H38   H     H_    0.911649 0.815222 0.888696 0.115435
H39   H     H_    0.943962 0.977634 0.799736 0.114283
H40   H     H_    0.015878 0.968353 0.615204 0.117323
H41   H     H_    0.054880 0.797423 0.519328 0.118069
H42   H     H_    0.116112 0.710808 0.235745 0.118564
H43   H     H_    0.310275 0.788988 0.217175 0.127385
H44   H     H_    0.466922 0.700651 0.102448 0.121710
H45   H     H_    0.764453 0.549772 0.970274 0.121463
H46   H     H_    0.920993 0.457876 0.859105 0.126137
N1    N     N_R   0.206090 0.519450 0.517820 -0.138578
N2    N     N_R   0.793910 0.480550 0.482180 -0.138580
O1    O     O_R   0.421240 0.658850 0.504760 -0.627042
O2    O     O_R   0.578760 0.341150 0.495240 -0.627034
O3    O     O_R   0.609960 0.646370 0.493320 -0.621659
O4    O     O_R   0.390040 0.353630 0.506680 -0.621662
O5    O     O_R   0.392060 0.507120 0.646890 -0.606212
O6    O     O_R   0.607940 0.492880 0.353110 -0.606222
O7    O     O_R   0.580780 0.494630 0.635450 -0.607842
O8    O     O_R   0.419220 0.505370 0.364550 -0.607837
Zn1   Zn    Zn3+2 0.373990 0.508340 0.507630 0.946136
Zn2   Zn    Zn3+2 0.626010 0.491660 0.492370 0.946134

loop_
_geom_bond_atom_site_label_1
_geom_bond_atom_site_label_2
_ccdc_geom_bond_type
C51   H21   S    
C15   C18   A    
C66   C68   A    
C48   H19   S    
C20   H6    S    
C24   H23   S    
C73   C74   A    
C35   H4    S    
C54   H25   S    
O3    Zn2   S    
C39   H11   S    
C6    O6    A    
O7    Zn2   S    
C67   N2    A    
C53   C54   A    
C10   C22   S    
C57   H26   S    
C72   H39   S    
C26   C27   A    
C62   C63   A    
C73   H40   S    
C38   H10   S    
C75   N1    A    
C59   H28   S    
C14   C21   A    
C37   H9    S    
C36   C37   A    
C37   C38   A    
C1    O1    A    
C30   H45   S    
C30   C31   A    
C12   O2    A    
O1    Zn1   S    
C49   C54   A    
C17   H12   S    
C45   C62   S    
C16   H1    S    
C68   H36   S    
C49   C50   A    
C9    C13   S    
C16   C34   A    
C47   C48   A    
O8    Zn1   S    
C45   C67   A    
C18   H8    S    
C49   C75   S    
C70   C71   A    
C1    C15   S    
C40   H13   S    
C9    C10   D    
C44   H16   S    
C9    C29   S    
C5    O5    A    
C41   H14   S    
C59   C60   A    
C70   H37   S    
C56   C75   A    
C22   C28   A    
C36   C41   A    
O6    Zn2   S    
C19   H7    S    
C44   C46   A    
C64   H32   S    
C4    C45   A    
C53   H24   S    
C15   C20   A    
C51   C52   A    
C76   N2    A    
C26   H42   S    
C24   C25   A    
C6    O8    A    
C28   H44   S    
C39   C40   A    
C33   H3    S    
C42   C48   A    
C21   C34   A    
C58   C59   A    
C2    N1    A    
C43   H15   S    
C71   H38   S    
C60   C61   A    
C2    C4    A    
C43   C44   A    
C29   C30   A    
C61   H30   S    
C3    C56   A    
C31   C32   A    
C20   C23   A    
C7    C13   T    
C23   C34   A    
C50   C51   A    
C21   H5    S    
C69   C74   A    
C17   C23   A    
C3    C76   A    
C65   H33   S    
C25   H34   S    
O5    Zn1   S    
C40   C41   A    
N1    Zn1   S    
C65   C66   A    
C55   C57   A    
C66   H35   S    
C22   C24   A    
C42   C43   A    
C63   H31   S    
C3    C4    A    
C52   C53   A    
C2    C36   S    
C74   H41   S    
C46   C47   A    
C14   C19   A    
C1    O3    A    
C31   H46   S    
C12   C14   S    
C72   C73   A    
C5    C8    S    
C55   C67   S    
C6    C7    S    
C12   O4    A    
C27   H43   S    
C29   C35   A    
C42   C76   S    
N2    Zn2   S    
C64   C65   A    
C25   C26   A    
C71   C72   A    
O4    Zn1   S    
C32   C33   A    
C50   H20   S    
C57   C58   A    
C38   C39   A    
C46   H17   S    
C8    C11   T    
C55   C61   A    
C52   H22   S    
C33   C35   A    
C47   H18   S    
C62   C68   A    
C69   C70   A    
C10   C11   S    
C32   H2    S    
C63   C64   A    
C17   C19   A    
C5    O7    A    
O2    Zn2   S    
C16   C18   A    
C56   C69   S    
C27   C28   A    
C58   H27   S    
C60   H29   S    
