data_mof_unit_27942.cif
_audit_creation_date              2013-03-05T15:41:56-0500
_audit_creation_method            fapswitch 2.2
_symmetry_space_group_name_H-M    P1
_symmetry_Int_Tables_number       1
_space_group_crystal_system       triclinic
_cell_length_a                    19.39306
_cell_length_b                    7.235602
_cell_length_c                    17.761405
_cell_angle_alpha                 89.999009
_cell_angle_beta                  107.802535
_cell_angle_gamma                 90.000122
_cell_volume                      2372.94750646

loop_
_atom_site_label
_atom_site_type_symbol
_atom_site_description
_atom_site_fract_x
_atom_site_fract_y
_atom_site_fract_z
_atom_type_partial_charge
O1    O     O_R   0.414820 0.494320 0.416790 -0.559550
O2    O     O_R   0.585180 0.994320 0.583210 -0.559542
O3    O     O_R   0.560270 0.819500 0.430140 -0.529654
O4    O     O_R   0.439730 0.319500 0.569860 -0.529726
C1    C     C_R   0.579306 0.655096 0.412844 0.869729
C2    C     C_R   0.420687 0.155094 0.587147 0.869812
O5    O     O_R   0.413840 0.823740 0.407440 -0.544805
O6    O     O_R   0.586160 0.323740 0.592560 -0.544801
O7    O     O_R   0.437710 0.998590 0.560350 -0.559541
O8    O     O_R   0.562290 0.498590 0.439650 -0.559534
C3    C     C_R   0.387202 0.654782 0.385721 0.867477
C4    C     C_R   0.612798 0.154781 0.614278 0.867594
O9    O     O_3   0.508000 0.662290 0.550200 -0.267901
O10   O     O_3   0.492000 0.162290 0.449800 -0.267843
V1    V     V_3+5 0.498520 0.935380 0.490690 1.237780
V2    V     V_3+5 0.501480 0.435380 0.509310 1.237732
C5    C     C_2   0.796721 0.271749 0.771540 0.308419
C6    C     C_2   0.203279 0.771748 0.228458 0.308451
C7    C     C_2   0.820134 0.118453 0.816917 -0.179633
C8    C     C_2   0.179866 0.618451 0.183083 -0.179674
H1    H     H_    0.786501 0.996038 0.808254 0.113469
H2    H     H_    0.213499 0.496036 0.191749 0.113472
C9    C     C_2   0.723199 0.284050 0.711555 -0.094238
C10   C     C_2   0.276800 0.784051 0.288443 -0.094238
C11   C     C_2   0.681635 0.137969 0.679551 -0.212145
C12   C     C_2   0.318366 0.637971 0.320448 -0.212260
H3    H     H_    0.704807 0.420813 0.689015 0.150387
H4    H     H_    0.295192 0.920813 0.310982 0.150393
H5    H     H_    0.700183 0.998813 0.697394 0.106956
H6    H     H_    0.299818 0.498815 0.302605 0.106964
C13   C     C_R   0.317380 0.023477 0.623362 -0.124557
C14   C     C_R   0.682527 0.523268 0.376532 -0.124294
C15   C     C_R   0.376305 0.144413 0.641849 -0.168461
C16   C     C_R   0.623674 0.644428 0.358127 -0.168521
C17   C     C_R   0.391542 0.253950 0.711166 0.321857
C18   C     C_R   0.608501 0.754205 0.288882 0.321770
C19   C     C_R   0.349266 0.232438 0.764121 0.000027
C20   C     C_R   0.650770 0.732740 0.235918 -0.000068
C21   C     C_R   0.285853 0.122185 0.740036 0.032185
C22   C     C_R   0.714116 0.622234 0.259931 0.032167
C23   C     C_R   0.270840 0.016899 0.669759 0.057334
C24   C     C_R   0.729062 0.516691 0.330134 0.057317
C25   C     C_R   0.369238 0.311808 0.841138 -0.114449
C26   C     C_R   0.630859 0.812441 0.158965 -0.114600
C27   C     C_R   0.320747 0.305824 0.886877 -0.107386
C28   C     C_R   0.679357 0.806502 0.113236 -0.107565
C29   C     C_R   0.251408 0.220530 0.856303 0.000210
C30   C     C_R   0.748633 0.720844 0.143740 0.000085
C31   C     C_R   0.236998 0.116548 0.785574 -0.021903
C32   C     C_R   0.762975 0.616600 0.214394 -0.021899
C33   C     C_R   0.173405 0.006763 0.759526 -0.023818
C34   C     C_R   0.826504 0.506565 0.240380 -0.023882
C35   C     C_R   0.160569 0.902494 0.689676 -0.025964
C36   C     C_R   0.839270 0.402039 0.310155 -0.026029
C37   C     C_R   0.208882 0.906541 0.645901 -0.076441
C38   C     C_R   0.790953 0.406081 0.353922 -0.076407
C39   C     C_R   0.197011 0.230323 0.895303 0.302971
C40   C     C_R   0.803034 0.730549 0.104742 0.302983
C41   C     C_R   0.134169 0.118313 0.869844 -0.221546
C42   C     C_R   0.865819 0.618316 0.130146 -0.221516
C43   C     C_R   0.123255 0.004287 0.802758 0.283770
C44   C     C_R   0.876668 0.504097 0.197166 0.283812
H7    H     H_    0.305590 0.940533 0.570020 0.095114
H8    H     H_    0.694271 0.440138 0.429820 0.095211
H9    H     H_    0.112509 0.818404 0.667417 0.143643
H10   H     H_    0.887279 0.317746 0.332364 0.143634
H11   H     H_    0.196979 0.825079 0.592218 0.090094
H12   H     H_    0.802804 0.324420 0.407548 0.090067
O11   O     O_R   0.937810 0.773680 0.060480 -0.517409
O12   O     O_R   0.062190 0.273680 0.939520 -0.517509
O13   O     O_R   0.086190 0.439740 0.092580 -0.508236
O14   O     O_R   0.913810 0.939740 0.907420 -0.508233
C45   C     C_R   0.111709 0.609125 0.115876 0.910174
C46   C     C_R   0.888291 0.109127 0.884124 0.910325
O15   O     O_R   0.939760 0.444210 0.069890 -0.532793
O16   O     O_R   0.060240 0.944210 0.930110 -0.532892
O17   O     O_R   0.914790 0.269640 0.916760 -0.542161
O18   O     O_R   0.085210 0.769640 0.083240 -0.542145
C47   C     C_R   0.918398 0.612341 0.084034 0.910730
C48   C     C_R   0.081598 0.112342 0.915964 0.910860
O19   O     O_3   0.992050 0.601530 0.949880 -0.251257
O20   O     O_3   0.007950 0.101530 0.050120 -0.251121
V3    V     V_3+5 0.001480 0.328340 0.009300 1.383528
V4    V     V_3+5 0.998520 0.828340 0.990700 1.383487
N1    N     N_R   0.843123 0.430378 0.778716 0.105722
O21   O     O_R   0.908072 0.410496 0.773058 -0.299195
O22   O     O_R   0.816507 0.596063 0.776591 -0.334887
N2    N     N_R   0.156877 0.930377 0.221279 0.105729
O23   O     O_R   0.091928 0.910495 0.226940 -0.299281
O24   O     O_R   0.183492 0.096061 0.223400 -0.334846
N3    N     N_R   0.059270 0.891880 0.776465 0.091008
O25   O     O_R   0.064650 0.712569 0.779004 -0.303321
O26   O     O_R   0.995491 0.968362 0.755549 -0.340794
N4    N     N_R   0.940602 0.391499 0.223419 0.091052
O27   O     O_R   0.004414 0.467813 0.244427 -0.340743
O28   O     O_R   0.935151 0.212205 0.220751 -0.303217
N5    N     N_R   0.446512 0.393898 0.724565 0.094891
O29   O     O_R   0.429366 0.566985 0.727724 -0.365421
O30   O     O_R   0.513059 0.349732 0.730622 -0.309640
N6    N     N_R   0.553607 0.894330 0.275566 0.094880
O31   O     O_R   0.570854 0.067389 0.272562 -0.365673
O32   O     O_R   0.487028 0.850338 0.269437 -0.309522
C49   C     C_2   0.444427 0.377144 0.880293 0.615409
H13   H     H_    0.453808 0.510607 0.909513 0.003769
O33   O     O_2   0.496097 0.277606 0.883521 -0.505428
C50   C     C_2   0.555714 0.878143 0.119846 0.615855
H14   H     H_    0.546425 0.011733 0.090728 0.003463
O34   O     O_2   0.503978 0.778766 0.116524 -0.505307
C51   C     C_2   0.348633 0.365679 0.970797 0.608541
H15   H     H_    0.370191 0.504025 0.985317 0.020519
O35   O     O_2   0.350997 0.256993 0.024112 -0.482938
C52   C     C_2   0.651532 0.866897 0.029387 0.608582
H16   H     H_    0.630199 0.005501 0.015031 0.020629
O36   O     O_2   0.648965 0.758398 0.975950 -0.482915
N7    N     N_R   0.203367 0.359947 0.958304 0.087542
O37   O     O_R   0.202869 0.536580 0.944351 -0.361641
O38   O     O_R   0.206981 0.302188 0.028820 -0.326255
N8    N     N_R   0.796736 0.860257 0.041785 0.087504
O39   O     O_R   0.797445 0.036875 0.055828 -0.361575
O40   O     O_R   0.793016 0.802572 0.971230 -0.326342

loop_
_geom_bond_atom_site_label_1
_geom_bond_atom_site_label_2
_geom_bond_distance
_ccdc_geom_bond_type
C42   C47   1.490997 S    
O4    V2    2.020182 S    
C28   C52   1.486159 S    
O14   C46   1.339038 A    
O1    C3    1.326137 A    
O2    C4    1.326143 A    
O16   V4    2.020222 S    
C2    O7    1.309180 A    
C52   O36   1.220972 D    
N5    O29   1.301383 A    
C39   N7    1.436209 S    
N1    O21   1.301810 A    
O5    C3    1.337295 A    
C5    C9    1.499023 S    
C6    C10   1.499021 S    
C7    H1    1.082721 S    
C10   C12   1.345327 D    
C51   O35   1.220941 D    
C27   C51   1.486212 S    
C39   C41   1.417601 A    
C29   C39   1.429865 A    
C50   H14   1.085020 S    
O17   V3    2.004666 S    
C40   C42   1.417615 A    
N7    O37   1.301319 A    
C40   N8    1.436166 S    
C42   C44   1.411054 A    
C27   C29   1.427397 A    
N8    O39   1.301318 A    
C23   C37   1.396277 A    
C24   C38   1.396269 A    
C49   O33   1.221053 D    
C26   C28   1.418877 A    
C31   C33   1.420238 A    
C46   O17   1.329224 A    
C33   C43   1.411546 A    
C32   C34   1.420232 A    
C45   O18   1.329219 A    
C13   C15   1.396405 A    
C9    H3    1.086002 S    
C35   H9    1.081599 S    
C16   C18   1.417333 A    
C30   C32   1.416917 A    
O6    V2    2.012680 S    
C52   H16   1.085096 S    
N5    O30   1.301673 A    
C34   C36   1.407668 A    
O13   V3    2.012604 S    
C35   C37   1.388773 A    
C11   H5    1.083474 S    
C28   C30   1.427412 A    
C41   C43   1.411061 A    
N1    O22   1.301198 A    
O12   C48   1.332588 A    
C13   H7    1.085202 S    
C14   H8    1.085200 S    
C29   C31   1.416917 A    
N3    O25   1.301286 A    
O13   C45   1.339042 A    
C5    C7    1.364635 D    
C3    C12   1.481425 S    
N7    O38   1.301753 A    
C38   H12   1.084099 S    
C6    N2    1.439885 S    
C33   C35   1.407671 A    
C14   C16   1.396395 A    
C19   C25   1.423776 A    
C20   C26   1.423745 A    
O12   V3    1.992723 S    
N3    O26   1.301221 A    
O6    C4    1.337293 A    
C1    C16   1.483954 S    
N6    O32   1.301663 A    
C18   N6    1.436396 S    
O1    V2    2.004482 S    
N4    O28   1.301286 A    
O2    V1    2.004493 S    
C25   C27   1.418917 A    
O14   V4    2.012587 S    
O4    C2    1.309612 A    
C21   C31   1.422014 A    
N2    O24   1.301198 A    
C12   H6    1.083477 S    
C44   N4    1.436995 S    
C5    N1    1.439888 S    
O11   C47   1.332588 A    
O19   V4    1.782987 S    
O3    V1    2.020201 S    
C10   H4    1.086005 S    
C13   C23   1.396681 A    
C17   C19   1.432667 A    
C7    C46   1.487203 S    
O16   C48   1.333523 A    
C8    H2    1.082720 S    
C22   C24   1.414550 A    
O3    C1    1.309603 A    
C25   C49   1.487702 S    
C41   C48   1.490954 S    
C37   H11   1.084096 S    
C36   C38   1.388725 A    
C30   C40   1.429882 A    
C36   H10   1.081596 S    
C26   C50   1.487713 S    
C2    C15   1.483942 S    
C4    C11   1.481428 S    
C18   C20   1.432670 A    
O7    V1    2.005728 S    
C1    O8    1.309196 A    
C19   C21   1.417776 A    
O11   V4    1.992713 S    
O8    V2    2.005717 S    
C51   H15   1.085092 S    
C20   C22   1.417750 A    
O15   V3    2.020241 S    
C50   O34   1.221059 D    
C22   C32   1.422036 A    
O5    V1    2.012698 S    
N6    O31   1.301383 A    
C15   C17   1.417328 A    
C8    C45   1.487206 S    
C6    C8    1.364641 D    
C9    C11   1.345329 D    
N4    O27   1.301243 A    
N8    O40   1.301752 A    
O18   V4    2.004655 S    
N2    O23   1.301810 A    
C21   C23   1.414555 A    
O20   V3    1.782965 S    
O9    V2    1.784080 S    
C49   H13   1.085023 S    
C14   C24   1.396627 A    
O10   V1    1.784058 S    
C34   C44   1.411538 A    
C17   N5    1.436418 S    
O15   C47   1.333536 A    
C43   N3    1.437007 S    
