data_mof_unit_8726.cif
_audit_creation_date              2013-03-05T15:57:46-0500
_audit_creation_method            fapswitch 2.2
_symmetry_space_group_name_H-M    P1
_symmetry_Int_Tables_number       1
_space_group_crystal_system       triclinic
_cell_length_a                    15.661633
_cell_length_b                    15.138389
_cell_length_c                    15.138582
_cell_angle_alpha                 109.810534
_cell_angle_beta                  121.772947
_cell_angle_gamma                 57.952313
_cell_volume                      2577.51664769

loop_
_atom_site_label
_atom_site_type_symbol
_atom_site_description
_atom_site_fract_x
_atom_site_fract_y
_atom_site_fract_z
_atom_type_partial_charge
C1    C     C_R   0.803187 0.938695 0.773897 -0.081665
C2    C     C_R   0.242161 0.009155 0.209358 -0.100524
H1    H     H_    0.832707 0.881643 0.823183 0.105416
H2    H     H_    0.227356 0.042733 0.147414 0.118398
N1    N     N_R   0.705410 0.966550 0.689210 -0.047661
N2    N     N_R   0.294590 0.033450 0.310790 -0.053359
C3    C     C_R   0.232189 0.289850 0.479721 -0.090551
C4    C     C_R   0.794272 0.718942 0.549258 -0.091931
H3    H     H_    0.215129 0.350682 0.442580 0.112804
H4    H     H_    0.820191 0.663402 0.598380 0.125869
N3    N     N_R   0.294590 0.188320 0.465660 -0.052334
N4    N     N_R   0.705410 0.811680 0.534340 -0.053139
C5    C     C_R   0.592679 0.220802 0.500692 -0.101940
C6    C     C_R   0.408562 0.777143 0.497369 -0.126397
H5    H     H_    0.679615 0.203708 0.533748 0.109393
H6    H     H_    0.322297 0.794606 0.468433 0.101884
N5    N     N_R   0.556610 0.157790 0.497330 -0.042471
N6    N     N_R   0.443390 0.842210 0.502670 -0.040010
C7    C     C_R   0.409785 0.042148 0.733120 -0.106864
C8    C     C_R   0.590324 0.010519 0.282537 -0.053988
H7    H     H_    0.326498 0.070705 0.724299 0.121547
H8    H     H_    0.676205 0.987911 0.302614 0.110950
N7    N     N_R   0.443390 0.997080 0.657540 -0.053104
N8    N     N_R   0.556610 0.002920 0.342460 -0.043893
C9    C     C_R   0.406638 0.291467 0.416648 -0.118850
C10   C     C_R   0.595071 0.703024 0.573756 -0.140534
H9    H     H_    0.320517 0.338822 0.366831 0.094175
H10   H     H_    0.682171 0.651632 0.616446 0.098447
N9    N     N_R   0.443390 0.203250 0.451380 -0.034611
N10   N     N_R   0.556610 0.796750 0.548620 -0.036507
C11   C     C_R   0.595312 0.980040 0.804008 -0.100546
C12   C     C_R   0.404897 0.081068 0.206325 -0.079928
H11   H     H_    0.681934 0.957739 0.858227 0.123952
H12   H     H_    0.318042 0.124589 0.157578 0.118179
N11   N     N_R   0.556610 0.951620 0.703500 -0.055232
N12   N     N_R   0.443390 0.048380 0.296500 -0.049972
C13   C     C_R   0.225434 0.201683 0.567152 -0.086645
C14   C     C_R   0.797067 0.808635 0.460003 -0.068644
H13   H     H_    0.198479 0.183785 0.608623 0.112329
H14   H     H_    0.827377 0.835414 0.429293 0.110932
N13   N     N_R   0.294590 0.131500 0.522480 -0.053978
N14   N     N_R   0.705410 0.868500 0.477520 -0.054363
C15   C     C_R   0.801817 0.031665 0.685443 -0.123909
C16   C     C_R   0.240650 0.918812 0.299286 -0.124959
H15   H     H_    0.831135 0.059583 0.654708 0.099842
H16   H     H_    0.224785 0.868177 0.318453 0.106693
N15   N     N_R   0.705410 0.023370 0.632390 -0.044844
N16   N     N_R   0.294590 0.976630 0.367610 -0.050167
C17   C     C_R   0.865111 0.978378 0.773792 0.155369
C18   C     C_R   0.210189 0.935322 0.199974 0.148816
C19   C     C_R   0.191334 0.301295 0.546429 0.195359
C20   C     C_R   0.854339 0.715134 0.505217 0.193872
C21   C     C_R   0.498780 0.305354 0.449051 0.049419
C22   C     C_R   0.503051 0.688181 0.539675 0.045741
C23   C     C_R   0.505143 0.033267 0.825397 0.178405
C24   C     C_R   0.495749 0.057697 0.195414 0.086519
H17   H     H_    0.179543 0.933443 0.008480 0.155486
H18   H     H_    0.011593 0.838249 0.916368 0.156800
Ni1   Ni    Ni4+2 0.629830 0.882720 0.617850 0.235433
Ni2   Ni    Ni4+2 0.370170 0.117280 0.382150 0.225692
Ni3   Ni    Ni4+2 0.629830 0.013030 0.487540 0.228364
Ni4   Ni    Ni4+2 0.370170 0.986970 0.512460 0.223038
H19   H     H_    0.104696 0.853270 0.104949 0.158544
H20   H     H_    0.012389 0.008488 0.849515 0.159567
H21   H     H_    0.860049 0.590891 0.863363 0.147660
H22   H     H_    0.139536 0.509247 0.155581 0.137107
C25   C     C_R   0.690258 0.690938 0.842522 -0.108860
C26   C     C_R   0.305074 0.420467 0.163328 -0.082853
H23   H     H_    0.658350 0.638178 0.782241 0.122114
H24   H     H_    0.330907 0.481610 0.209862 0.131671
C27   C     C_R   0.617766 0.785737 0.874139 -0.143738
C28   C     C_R   0.379192 0.326462 0.132835 -0.160791
H25   H     H_    0.529419 0.806576 0.837786 0.120284
H26   H     H_    0.460270 0.317511 0.152222 0.141648
C29   C     C_R   0.658924 0.854556 0.951818 0.097263
C30   C     C_R   0.347823 0.245516 0.075084 0.087270
C31   C     C_R   0.774418 0.826736 0.998624 0.364410
C32   C     C_R   0.236311 0.264368 0.038191 0.367145
C33   C     C_R   0.846221 0.731746 0.966232 -0.182673
C34   C     C_R   0.162259 0.359009 0.068612 -0.172547
H27   H     H_    0.934634 0.710484 0.001096 0.157616
H28   H     H_    0.077199 0.373252 0.041902 0.157865
C35   C     C_R   0.804217 0.664126 0.888325 -0.127790
C36   C     C_R   0.197110 0.436203 0.132350 -0.153716
C37   C     C_R   0.566048 0.960477 0.067113 0.347029
C38   C     C_R   0.439673 0.140379 0.957017 0.332196
C39   C     C_R   0.495057 0.056147 0.100352 -0.129330
C40   C     C_R   0.513350 0.045297 0.926466 -0.138680
C41   C     C_R   0.428523 0.146022 0.044339 -0.117001
C42   C     C_R   0.580295 0.956077 0.983262 -0.126073
C43   C     C_2   0.118086 0.401847 0.580193 -0.279544
C44   C     C_2   0.965131 0.631826 0.517386 -0.368162
C45   C     C_2   0.136361 0.486914 0.607941 0.350522
C46   C     C_2   0.044384 0.589635 0.608816 0.318161
H29   H     H_    0.977629 0.596212 0.447029 0.148834
H30   H     H_    0.041312 0.409073 0.571760 0.126250
C47   C     C_2   0.981093 0.957874 0.846650 -0.205593
C48   C     C_2   0.149391 0.887609 0.102771 -0.189503
H31   H     H_    0.126614 0.879274 0.675450 0.120609
H32   H     H_    0.909785 0.088014 0.353105 0.136139
C49   C     C_R   0.300065 0.787840 0.705359 -0.079157
C50   C     C_R   0.735452 0.161354 0.318335 -0.088084
H33   H     H_    0.330398 0.821913 0.784621 0.136017
H34   H     H_    0.716614 0.104506 0.254201 0.151396
C51   C     C_R   0.375883 0.710824 0.664937 -0.105213
C52   C     C_R   0.650853 0.243644 0.345591 -0.194099
H35   H     H_    0.464530 0.684496 0.713888 0.107287
H36   H     H_    0.568608 0.246858 0.303435 0.117115
C53   C     C_R   0.337431 0.666083 0.562307 0.121736
C54   C     C_R   0.673320 0.318757 0.428502 0.122602
C55   C     C_R   0.221647 0.698575 0.501187 -0.152062
C56   C     C_R   0.784178 0.307287 0.484830 -0.141091
H37   H     H_    0.190048 0.664718 0.421978 0.117959
H38   H     H_    0.806107 0.361354 0.551021 0.117623
C57   C     C_R   0.146035 0.775316 0.541945 -0.078537
C58   C     C_R   0.868706 0.224641 0.457542 -0.118990
H39   H     H_    0.057084 0.799956 0.494538 0.119112
H40   H     H_    0.953356 0.216829 0.501399 0.117414
C59   C     C_R   0.185208 0.820049 0.643910 -0.054322
C60   C     C_R   0.844264 0.151977 0.374094 -0.061441
C61   C     C_R   0.411482 0.489065 0.481151 -0.196273
C62   C     C_R   0.584462 0.504835 0.490157 -0.222781
H41   H     H_    0.346810 0.481953 0.482410 0.163606
H42   H     H_    0.646008 0.514808 0.486358 0.131861
C63   C     C_R   0.494374 0.402539 0.453924 0.052866
C64   C     C_R   0.505156 0.589388 0.523336 0.057021
C65   C     C_R   0.582635 0.408768 0.457255 0.021090
C66   C     C_R   0.418304 0.581898 0.520417 0.011904
C67   C     C_2   0.042074 0.888515 0.917461 -0.018466
C68   C     C_2   0.136140 0.898543 0.011808 -0.086912
Br1   Br    Br    0.835982 0.918175 0.103588 -0.621993
Br2   Br    Br    0.181147 0.164657 0.943286 -0.609611
N17   N     N_R   0.615087 0.865257 0.112451 0.234217
O1    O     O_R   0.551043 0.833031 0.108993 -0.380929
O2    O     O_R   0.723188 0.812262 0.159337 -0.398788
N18   N     N_R   0.377433 0.230613 0.899300 0.237595
O3    O     O_R   0.269024 0.280129 0.862933 -0.368786
O4    O     O_R   0.428496 0.258770 0.876464 -0.350876
Br3   Br    Br    0.041502 0.654727 0.741145 -0.547827
Br4   Br    Br    0.276288 0.481546 0.643080 -0.490835

loop_
_geom_bond_atom_site_label_1
_geom_bond_atom_site_label_2
_geom_bond_distance
_ccdc_geom_bond_type
C27   C29   1.402769 A    
C25   C35   1.396314 A    
C45   C46   1.456790 S    
N5    N9    1.353593 A    
C6    N6    1.320888 A    
C7    N7    1.332500 A    
C8    C24   1.379154 A    
C56   H38   1.082561 S    
C3    N3    1.328909 A    
C51   H35   1.079359 S    
N8    Ni3   1.862327 S    
N2    N16   1.407584 A    
C1    N1    1.334202 A    
C12   N12   1.321535 A    
C7    H7    1.078642 S    
C9    C21   1.368930 A    
C14   N14   1.345237 A    
H19   C48   1.087860 S    
C53   C55   1.407587 A    
C13   C19   1.395406 A    
C38   C40   1.401916 A    
H21   C35   1.082463 S    
C14   C20   1.392598 A    
H18   C67   1.084369 S    
C16   C18   1.386801 A    
C23   C40   1.421116 S    
N11   Ni1   1.861175 S    
C31   Br1   1.919048 S    
C62   C65   1.379155 A    
C32   Br2   1.922467 S    
N4    N14   1.407586 A    
C2    C18   1.389828 A    
C29   C42   1.489290 S    
C19   C43   1.459898 S    
C43   H30   1.087325 S    
N4    Ni1   1.859943 S    
N7    Ni4   1.862327 S    
C8    N8    1.324608 A    
C57   H39   1.082617 S    
C11   H11   1.075763 S    
N3    N13   1.407582 A    
H32   C60   1.082548 S    
C4    N4    1.330122 A    
C15   N15   1.340292 A    
C4    C20   1.381935 A    
C25   C27   1.398273 A    
C28   C30   1.402743 A    
C54   C65   1.502865 S    
N5    Ni3   1.852368 S    
C47   C67   1.335775 D    
C31   C33   1.399843 A    
C49   H33   1.082472 S    
C49   C51   1.398634 A    
C46   Br3   1.922543 S    
C2    N2    1.333137 A    
C49   C59   1.397620 A    
N13   Ni4   1.851191 S    
C10   C22   1.369572 A    
C16   H16   1.078097 S    
C5    C21   1.371898 A    
C37   C39   1.404727 A    
C9    N9    1.316313 A    
C13   H13   1.077775 S    
C18   C48   1.458628 S    
N1    Ni1   1.870015 S    
C34   C36   1.397342 A    
C26   C36   1.396046 A    
N2    Ni2   1.870016 S    
H17   C68   1.085814 S    
C61   C66   1.366011 A    
C28   H26   1.081113 S    
C27   H25   1.081400 S    
N6    Ni4   1.852369 S    
C24   C39   1.425703 S    
H31   C59   1.082618 S    
C44   H29   1.087087 S    
C58   C60   1.395757 A    
C57   C59   1.397415 A    
C1    H1    1.079874 S    
C12   H12   1.072538 S    
C62   C64   1.402646 A    
C2    H2    1.077287 S    
C61   C63   1.401408 A    
C63   C65   1.408515 A    
C43   C45   1.347076 D    
C22   C64   1.415805 S    
C53   C66   1.488494 S    
N16   Ni4   1.861344 S    
N9    Ni2   1.871048 S    
C26   C28   1.397022 A    
N10   Ni1   1.871049 S    
C48   C68   1.335593 D    
C44   C46   1.346479 D    
C55   H37   1.083128 S    
N8    N12   1.353593 A    
C50   H34   1.082470 S    
C29   C31   1.412561 A    
N14   Ni3   1.851191 S    
C21   C63   1.413759 S    
N6    N10   1.353593 A    
C34   H28   1.082432 S    
H20   C47   1.087592 S    
C6    C22   1.373079 A    
C40   C42   1.413417 A    
C10   N10   1.318468 A    
N7    N11   1.353594 A    
C39   C41   1.415237 A    
N17   O1    1.301346 A    
C6    H6    1.078554 S    
C20   C44   1.460755 S    
C8    H8    1.081706 S    
C62   H42   1.083471 S    
N3    Ni2   1.859946 S    
C56   C58   1.398707 A    
C50   C60   1.395164 A    
N18   O4    1.301362 A    
C33   H27   1.082615 S    
C67   C68   1.451858 S    
C52   C54   1.408647 A    
C7    C23   1.384595 A    
C3    H3    1.080381 S    
C51   C53   1.403407 A    
C38   N18   1.441719 S    
C64   C66   1.400721 A    
C15   C17   1.381546 A    
C30   C32   1.412581 A    
N18   O3    1.300933 A    
N12   Ni2   1.861175 S    
C38   C41   1.391411 A    
N15   Ni3   1.861344 S    
C37   C42   1.375045 A    
C9    H9    1.082123 S    
C30   C41   1.485506 S    
C10   H10   1.081616 S    
C5    N5    1.319196 A    
C5    H5    1.080536 S    
C3    C19   1.379664 A    
C15   H15   1.081736 S    
C45   Br4   1.924787 S    
C14   H14   1.081771 S    
C52   H36   1.075958 S    
C11   N11   1.315071 A    
N1    N15   1.407583 A    
C58   H40   1.082735 S    
C50   C52   1.397603 A    
C32   C34   1.400594 A    
C13   N13   1.349947 A    
C54   C56   1.411747 A    
C61   H41   1.084114 S    
C17   C47   1.461586 S    
C25   H23   1.081535 S    
H22   C36   1.082461 S    
C33   C35   1.396739 A    
C4    H4    1.080932 S    
N17   O2    1.301078 A    
C26   H24   1.082595 S    
C55   C57   1.398672 A    
C11   C23   1.358487 A    
C1    C17   1.386377 A    
C12   C24   1.360409 A    
C16   N16   1.341818 A    
C37   N17   1.442004 S    
