data_mof_unit_40923.cif
_audit_creation_date              2012-12-11T17:25:08-0500
_audit_creation_method            fapswitch 2.2
_symmetry_space_group_name_H-M    P1
_symmetry_Int_Tables_number       1
_space_group_crystal_system       triclinic
_cell_length_a                    6.952799
_cell_length_b                    20.537963
_cell_length_c                    24.515913
_cell_angle_alpha                 90.037067
_cell_angle_beta                  90.447488
_cell_angle_gamma                 89.468077
_cell_volume                      3500.52416203

loop_
_atom_site_label
_atom_site_type_symbol
_atom_type_description
_atom_site_fract_x
_atom_site_fract_y
_atom_site_fract_z
_atom_type_partial_charge
O1    O     O_R   0.507280 0.423750 0.460310 -0.535773
O2    O     O_R   0.171030 0.555650 0.437630 -0.536401
O3    O     O_R   0.004080 0.576250 0.539690 -0.536528
C1    C     C_R   0.339057 0.575643 0.421780 0.723635
O4    O     O_R   0.177330 0.422980 0.453960 -0.538224
O5    O     O_R   0.010420 0.442640 0.556140 -0.535156
C2    C     C_R   0.346404 0.399108 0.443404 0.695399
O6    O     O_R   0.500930 0.557360 0.443860 -0.534843
O7    O     O_3   0.340310 0.506600 0.533500 -0.367194
V1    V     V_3+5 0.064140 0.498780 0.493780 1.429307
O8    O     O_R   0.680890 0.444350 0.562370 -0.537803
C3    C     C_R   0.850591 0.424400 0.578152 0.725587
O9    O     O_R   0.674590 0.577020 0.546040 -0.537714
C4    C     C_R   0.842731 0.600768 0.556958 0.693932
V2    V     V_3+5 0.564550 0.501220 0.506220 1.428903
O10   O     O_3   0.838250 0.493400 0.466500 -0.365994
C5    C     C_R   0.976071 0.838083 0.911249 -0.068141
C6    C     C_R   0.847081 0.661245 0.589504 -0.044283
C7    C     C_R   0.036319 0.721457 0.907689 -0.007097
C8    C     C_R   0.028684 0.780054 0.936786 -0.195260
C9    C     C_R   0.929975 0.838157 0.855460 -0.211954
C10   C     C_R   0.940924 0.780137 0.823627 0.082568
C11   C     C_R   0.999043 0.721537 0.850503 0.062985
C12   C     C_R   0.900095 0.778691 0.765914 0.069056
C13   C     C_R   0.924358 0.719358 0.735581 0.057945
C14   C     C_R   0.991170 0.663794 0.763694 -0.190531
C15   C     C_R   0.027100 0.664924 0.819410 -0.156474
C16   C     C_R   0.835197 0.834611 0.737497 -0.187910
C17   C     C_R   0.796609 0.833060 0.681882 -0.201821
C18   C     C_R   0.818097 0.775742 0.652009 0.138566
C19   C     C_R   0.881944 0.717674 0.678042 0.086334
C20   C     C_R   0.772427 0.776149 0.596140 -0.160357
C21   C     C_R   0.785256 0.719355 0.565373 -0.166303
C22   C     C_R   0.896388 0.660311 0.645320 -0.212874
H1    H     H_    0.082974 0.620610 0.837505 0.159613
H2    H     H_    0.939055 0.613828 0.662011 0.096428
H3    H     H_    0.744732 0.720557 0.522612 0.107798
H4    H     H_    0.746759 0.877367 0.662080 0.124303
H5    H     H_    0.061338 0.780456 0.980134 0.147106
H6    H     H_    0.892934 0.884765 0.838054 0.094717
H7    H     H_    0.019250 0.618084 0.743641 0.125684
H8    H     H_    0.810270 0.880774 0.757087 0.123516
H9    H     H_    0.723178 0.820486 0.576309 0.114733
H10   H     H_    0.618888 0.206518 0.793528 0.111506
C23   C     C_R   0.729871 0.269897 0.731521 -0.152261
H11   H     H_    0.587865 0.284762 0.717628 0.111353
C24   C     C_R   0.894286 0.295028 0.706473 0.136532
C25   C     C_R   0.076618 0.274834 0.725306 -0.152917
H12   H     H_    0.205301 0.293574 0.706538 0.111954
C26   C     C_R   0.094318 0.230199 0.768547 -0.152877
H13   H     H_    0.236323 0.215330 0.782437 0.111017
C27   C     C_R   0.929903 0.205059 0.793588 0.136230
C28   C     C_R   0.747571 0.225263 0.774762 -0.153698
C29   C     C_1   0.876361 0.341061 0.661459 -0.057706
C30   C     C_1   0.947833 0.158979 0.838568 -0.060112
C31   C     C_1   0.961043 0.120742 0.876319 -0.188774
C32   C     C_1   0.863169 0.379251 0.623673 -0.189896
H14   H     H_    0.671892 0.733100 0.315717 0.117961
C33   C     C_R   0.574061 0.784467 0.244096 -0.143699
H15   H     H_    0.707666 0.810798 0.240430 0.141708
C34   C     C_R   0.424731 0.794859 0.206023 0.048705
C35   C     C_R   0.250474 0.759555 0.211861 -0.007813
C36   C     C_R   0.233252 0.714890 0.255553 -0.199241
H16   H     H_    0.101361 0.687931 0.260701 0.157627
C37   C     C_R   0.383488 0.704975 0.293264 0.108590
C38   C     C_R   0.553886 0.740055 0.287129 -0.129063
C39   C     C_1   0.455173 0.840998 0.161398 0.031019
C40   C     C_1   0.362797 0.658998 0.338301 -0.042343
C41   C     C_1   0.348707 0.620850 0.376109 -0.189804
C42   C     C_1   0.474295 0.879227 0.123854 -0.090748
C43   C     C_R   0.474407 0.160820 0.090403 -0.129157
C44   C     C_R   0.355533 0.338682 0.411227 -0.039981
C45   C     C_R   0.558546 0.275249 0.096182 0.167966
C46   C     C_R   0.554969 0.216379 0.067736 -0.173500
C47   C     C_R   0.402252 0.162796 0.144322 -0.162504
C48   C     C_R   0.436435 0.219265 0.177608 -0.028020
C49   C     C_R   0.498021 0.277165 0.151255 0.131754
C50   C     C_R   0.416018 0.220438 0.236080 0.044651
C51   C     C_R   0.415545 0.281135 0.264982 0.065975
C52   C     C_R   0.452618 0.338234 0.235362 -0.187558
C53   C     C_R   0.499712 0.335892 0.180542 -0.185530
C54   C     C_R   0.415569 0.162611 0.267084 -0.139420
C55   C     C_R   0.391626 0.163529 0.323216 -0.191874
C56   C     C_R   0.374888 0.222245 0.351352 0.131325
C57   C     C_R   0.388333 0.282244 0.323006 0.084596
C58   C     C_R   0.351117 0.221148 0.408151 -0.154188
C59   C     C_R   0.341617 0.278888 0.437782 -0.169311
C60   C     C_R   0.377066 0.340585 0.354301 -0.211424
H17   H     H_    0.537937 0.381337 0.161364 0.142616
H18   H     H_    0.382518 0.388161 0.335912 0.094072
H19   H     H_    0.324216 0.276948 0.481632 0.106263
H20   H     H_    0.390206 0.117616 0.345007 0.130990
H21   H     H_    0.609302 0.214143 0.026411 0.112323
H22   H     H_    0.458201 0.385605 0.254106 0.126067
H23   H     H_    0.444665 0.115677 0.249152 0.154868
H24   H     H_    0.341408 0.175327 0.429823 0.115237
O11   O     O_R   0.323320 0.942780 0.056240 -0.515835
O12   O     O_R   0.647300 0.077050 0.046060 -0.536667
O13   O     O_R   0.813840 0.057330 0.943840 -0.542225
C61   C     C_R   0.478538 0.100781 0.057040 0.754440
O14   O     O_R   0.653250 0.944380 0.062400 -0.533976
O15   O     O_R   0.819830 0.923720 0.960300 -0.539688
C62   C     C_R   0.485131 0.924450 0.078267 0.770071
O16   O     O_R   0.317330 0.076390 0.039790 -0.534228
O17   O     O_3   0.483830 0.993470 0.966560 -0.382598
V3    V     V_3+5 0.760140 0.001210 0.006210 1.491656
O18   O     O_R   0.149290 0.922840 0.953850 -0.541417
C63   C     C_R   0.981028 0.899111 0.943045 0.702076
O19   O     O_R   0.143340 0.055500 0.937510 -0.543947
C64   C     C_R   0.973648 0.075541 0.921802 0.705091
V4    V     V_3+5 0.259690 0.998600 0.993650 1.484521
O20   O     O_3   0.986130 0.006520 0.033440 -0.350021
C65   C     C_2   0.083704 0.767554 0.173694 0.744888
O21   O     O_2   0.071417 0.814602 0.143296 -0.558273
O22   O     O_R   0.937728 0.721110 0.173051 -0.665212
H25   H     H_    0.831514 0.731925 0.145863 0.303687
C66   C     C_3   0.634219 0.334624 0.067355 -0.790246
H26   H     H_    0.679285 0.323500 0.024957 0.212173
H27   H     H_    0.520365 0.372815 0.065149 0.213629
H28   H     H_    0.761466 0.353652 0.089663 0.213590
C67   C     C_2   0.271567 0.109856 0.162184 0.785920
O23   O     O_2   0.320572 0.052919 0.157273 -0.541949
O24   O     O_R   0.092503 0.124217 0.185094 -0.634111
H29   H     H_    0.061387 0.172510 0.185358 0.266155
C68   C     C_2   0.080100 0.661171 0.939030 0.757615
O25   O     O_2   0.205123 0.661550 0.974411 -0.545377
O26   O     O_R   0.972704 0.604891 0.930002 -0.662554
H30   H     H_    0.014811 0.567465 0.954397 0.303847

loop_
_geom_bond_atom_site_label_1
_geom_bond_atom_site_label_2
_ccdc_geom_bond_type
C13   C19   A    
C43   C47   A    
C30   C31   T    
C36   C37   A    
C59   H19   S    
C45   C46   A    
C4    C6    S    
O2    C1    A    
C7    C8    A    
C1    O6    A    
O24   H29   S    
V3    O20   S    
C23   H11   S    
C55   H20   S    
C14   C15   A    
C35   C36   A    
C16   C17   A    
C48   C50   A    
O19   V4    S    
C33   C38   A    
O5    C3    A    
C18   C19   A    
O11   V4    S    
O22   H25   S    
C61   O16   A    
C5    C8    A    
C34   C39   S    
O8    V2    S    
C56   C57   A    
H14   C38   S    
C24   C25   A    
C40   C41   T    
C17   H4    S    
C26   C27   A    
O18   C63   A    
O15   C63   A    
O1    V2    S    
C11   C15   A    
O7    V1    S    
C27   C30   S    
C53   H17   S    
C25   C26   A    
O17   V4    S    
C23   C28   A    
C33   H15   S    
O14   C62   A    
O1    C2    A    
O9    C4    A    
C46   H21   S    
H10   C28   S    
C31   C64   S    
C1    C41   S    
C44   C60   A    
C23   C24   A    
C33   C34   A    
C45   C66   S    
C12   C13   A    
C35   C65   S    
C66   H28   S    
C2    C44   S    
O4    C2    A    
C8    H5    S    
C50   C51   A    
C15   H1    S    
C13   C14   A    
O13   C64   A    
C7    C68   S    
C21   H3    S    
C51   C52   A    
C7    C11   A    
C47   C48   A    
C17   C18   A    
C43   C46   A    
C50   C54   A    
C55   C56   A    
C49   C53   A    
C37   C40   S    
C26   H13   S    
C19   C22   A    
C48   C49   A    
C47   C67   S    
C6    C22   A    
C67   O23   D    
O11   C62   A    
O3    C4    A    
C58   H24   S    
C24   C29   S    
C3    C32   S    
C25   H12   S    
C60   H18   S    
C54   C55   A    
O6    V2    S    
O12   C61   A    
O9    V2    S    
C68   O25   D    
C10   C12   A    
C5    C63   S    
C52   H22   S    
O26   H30   S    
O2    V1    S    
C51   C57   A    
C44   C59   A    
C27   C28   A    
C58   C59   A    
C65   O21   D    
O17   V3    S    
C57   C60   A    
O14   V3    S    
O13   V3    S    
C54   H23   S    
V4    O20   S    
C42   C62   S    
O18   V4    S    
C12   C16   A    
C56   C58   A    
C52   C53   A    
O5    V1    S    
O16   V4    S    
O8    C3    A    
C43   C61   S    
O12   V3    S    
C39   C42   T    
C20   C21   A    
C66   H27   S    
O7    V2    S    
O4    V1    S    
O3    V1    S    
V1    O10   S    
C66   H26   S    
C18   C20   A    
C9    H6    S    
C16   H8    S    
C20   H9    S    
O15   V3    S    
C22   H2    S    
C34   C35   A    
C6    C21   A    
C5    C9    A    
C67   O24   S    
C36   H16   S    
C37   C38   A    
O19   C64   A    
C68   O26   S    
C45   C49   A    
C10   C11   A    
C9    C10   A    
V2    O10   S    
C14   H7    S    
C65   O22   S    
C29   C32   T    
