data_mof_unit_29309.cif
_audit_creation_date              2012-12-10T19:42:56-0500
_audit_creation_method            fapswitch 2.2
_symmetry_space_group_name_H-M    P1
_symmetry_Int_Tables_number       1
_space_group_crystal_system       triclinic
_cell_length_a                    10.812583
_cell_length_b                    12.976231
_cell_length_c                    11.748317
_cell_angle_alpha                 99.524195
_cell_angle_beta                  94.659844
_cell_angle_gamma                 91.30307
_cell_volume                      1619.17315751

loop_
_atom_site_label
_atom_site_type_symbol
_atom_type_description
_atom_site_fract_x
_atom_site_fract_y
_atom_site_fract_z
_atom_type_partial_charge
C1    C     C_R   0.496496 0.299499 0.478878 0.846177
C2    C     C_R   0.503506 0.700502 0.521122 0.846178
C3    C     C_R   0.871449 0.495610 0.501078 -0.068195
C4    C     C_R   0.128551 0.504400 0.498926 -0.068193
C5    C     C_R   0.945450 0.447228 0.580140 0.035254
C6    C     C_R   0.054550 0.552779 0.419861 0.035250
C7    C     C_R   0.498610 0.813255 0.532778 -0.082845
C8    C     C_R   0.501404 0.186747 0.467224 -0.082839
C9    C     C_R   0.602362 0.030263 0.389158 -0.106235
C10   C     C_R   0.397681 0.969749 0.610869 -0.106250
C11   C     C_R   0.581986 0.135456 0.391800 -0.196045
C12   C     C_R   0.418060 0.864557 0.608230 -0.196000
C13   C     C_R   0.432968 0.131340 0.535411 0.113873
C14   C     C_R   0.567039 0.868659 0.464583 0.113880
C15   C     C_R   0.456907 0.025536 0.536841 0.092419
C16   C     C_R   0.543114 0.974468 0.463167 0.092431
C17   C     C_R   0.365302 0.416724 0.021177 0.018253
C18   C     C_R   0.634703 0.583266 0.978821 0.018287
C19   C     C_R   0.384667 0.417221 0.142282 0.314538
C20   C     C_R   0.615335 0.582774 0.857718 0.314509
C21   C     C_R   0.557645 0.535516 0.157090 0.030373
C22   C     C_R   0.442356 0.464480 0.842908 0.030358
C23   C     C_R   0.262528 0.503680 0.499744 0.822137
C24   C     C_R   0.737472 0.496323 0.500257 0.822125
C25   C     C_R   0.549160 0.529628 0.034335 -0.053108
C26   C     C_R   0.450842 0.470367 0.965664 -0.053110
C27   C     C_R   0.166538 0.784433 0.290434 0.200721
C28   C     C_R   0.833514 0.215506 0.709449 0.200720
C29   C     C_R   0.125410 0.725681 0.372022 0.135011
C30   C     C_R   0.874640 0.274294 0.627900 0.135006
C31   C     C_R   0.106411 0.616238 0.340144 0.013641
C32   C     C_R   0.893590 0.383734 0.659816 0.013611
C33   C     C_R   0.124430 0.568112 0.227094 -0.104964
C34   C     C_R   0.875524 0.431820 0.772865 -0.104971
C35   C     C_R   0.167515 0.626485 0.147945 -0.150748
C36   C     C_R   0.832443 0.373409 0.851973 -0.150762
C37   C     C_R   0.189050 0.734069 0.179676 -0.142336
C38   C     C_R   0.810956 0.265829 0.820205 -0.142348
C39   C     C_R   0.926456 0.546664 0.421139 -0.156218
C40   C     C_R   0.073545 0.453349 0.578869 -0.156213
Cu1   Cu    Cu3+1 0.509250 0.507730 0.615930 0.995004
Cu2   Cu    Cu3+1 0.490750 0.492270 0.384070 0.995013
H1    H     H_    0.371316 0.416328 0.788107 0.186513
H2    H     H_    0.628687 0.583667 0.211890 0.186518
H3    H     H_    0.103155 0.485479 0.199809 0.180893
H4    H     H_    0.896761 0.514451 0.800180 0.180890
H5    H     H_    0.665955 0.994313 0.329529 0.200733
H6    H     H_    0.334112 0.005709 0.670519 0.200716
N1    N     N_R   0.523180 0.519350 0.790130 -0.222745
N2    N     N_R   0.476820 0.480650 0.209870 -0.222747
O1    O     O_R   0.506570 0.354460 0.582000 -0.574424
O2    O     O_R   0.493430 0.645540 0.418000 -0.574416
O3    O     O_R   0.490940 0.341410 0.386200 -0.560965
O4    O     O_R   0.509060 0.658590 0.613800 -0.560974
O5    O     O_R   0.327460 0.506540 0.597900 -0.589923
O6    O     O_R   0.672540 0.493460 0.402100 -0.589924
O7    O     O_R   0.311830 0.493480 0.402100 -0.566380
O8    O     O_R   0.688170 0.506520 0.597900 -0.566383
H7    H     H_    0.220538 0.778857 0.116884 0.174461
H8    H     H_    0.779471 0.221012 0.882966 0.174471
I1    I     I_    0.726575 0.693095 0.788787 -0.217824
I2    I     I_    0.273430 0.306901 0.211216 -0.217789
I3    I     I_    0.200510 0.342195 0.924656 -0.347857
I4    I     I_    0.799509 0.657770 0.075335 -0.347849
I5    I     I_    0.189549 0.949618 0.324377 -0.212498
I6    I     I_    0.810590 0.050326 0.675450 -0.212518
I7    I     I_    0.084617 0.801051 0.539717 -0.259781
I8    I     I_    0.915510 0.198985 0.460209 -0.259781
H9    H     H_    0.181921 0.588670 0.061059 0.173835
H10   H     H_    0.818001 0.411194 0.938858 0.173820
H11   H     H_    0.869510 0.584644 0.361194 0.186433
H12   H     H_    0.130489 0.415365 0.638809 0.186430
I9    I     I_    0.717113 0.795147 0.378604 -0.290127
I10   I     I_    0.282844 0.204836 0.621344 -0.290084
H13   H     H_    0.367655 0.822134 0.662999 0.182948
H14   H     H_    0.632413 0.177886 0.337052 0.182941

loop_
_geom_bond_atom_site_label_1
_geom_bond_atom_site_label_2
_ccdc_geom_bond_type
C8    C13   A    
C27   C29   A    
C1    C8    S    
C33   H3    S    
Cu1   Cu2   S    
C2    C7    S    
C17   C26   A    
C35   C37   A    
C9    C16   A    
Cu1   O8    S    
C11   H14   S    
Cu2   O3    S    
C19   I2    S    
C15   C16   A    
C20   I1    S    
C1    O3    A    
Cu1   O5    S    
Cu2   O6    S    
C29   I7    S    
C7    C14   A    
C4    C40   A    
C31   C33   A    
C34   H4    S    
C18   C20   A    
C5    C32   S    
C6    C31   S    
C3    C39   A    
C3    C24   S    
C18   C25   A    
C10   C12   A    
Cu2   O7    S    
Cu1   N1    S    
C21   N2    A    
C36   H10   S    
C7    C12   A    
C14   I9    S    
C4    C6    A    
C2    O4    A    
C4    C23   S    
C17   C19   A    
C25   C26   A    
C32   C34   A    
C28   I6    S    
C20   N1    A    
C27   I5    S    
C21   H2    S    
C9    C11   A    
C22   H1    S    
C28   C38   A    
C1    O1    A    
C37   H7    S    
C2    O2    A    
Cu2   N2    S    
C22   N1    A    
C38   H8    S    
C9    H5    S    
C13   C15   A    
C10   H6    S    
C14   C16   A    
C12   H13   S    
C23   O7    A    
C21   C25   A    
C40   H12   S    
C3    C5    A    
C23   O5    A    
C24   O6    A    
C10   C15   A    
C36   C38   A    
C29   C31   A    
C17   I3    S    
C30   C32   A    
C19   N2    A    
C18   I4    S    
C27   C37   A    
C8    C11   A    
C28   C30   A    
C33   C35   A    
C34   C36   A    
Cu1   O4    S    
C13   I10   S    
C35   H9    S    
C24   O8    A    
C22   C26   A    
C5    C40   A    
C39   H11   S    
C6    C39   A    
Cu1   O1    S    
C30   I8    S    
Cu2   O2    S    
