data_mof_unit_43653.cif
_audit_creation_date              2012-12-10T17:45:32-0500
_audit_creation_method            fapswitch 2.2
_symmetry_space_group_name_H-M    P1
_symmetry_Int_Tables_number       1
_space_group_crystal_system       triclinic
_cell_length_a                    11.537725
_cell_length_b                    10.632607
_cell_length_c                    9.955828
_cell_angle_alpha                 89.652055
_cell_angle_beta                  89.718681
_cell_angle_gamma                 91.974371
_cell_volume                      1220.57852277

loop_
_atom_site_label
_atom_site_type_symbol
_atom_type_description
_atom_site_fract_x
_atom_site_fract_y
_atom_site_fract_z
_atom_type_partial_charge
C1    C     C_R   0.503317 0.260830 0.500368 0.838633
C2    C     C_R   0.784027 0.074504 0.692624 -0.129769
C3    C     C_R   0.784556 0.943683 0.691433 -0.122231
C4    C     C_R   0.695675 0.875185 0.627786 -0.168361
C5    C     C_R   0.603324 0.937350 0.565663 0.098202
C6    C     C_R   0.602790 0.069242 0.566825 0.097875
C7    C     C_R   0.511488 0.128699 0.500565 -0.084316
C8    C     C_R   0.426096 0.061774 0.430150 -0.210548
C9    C     C_R   0.426547 0.933353 0.429076 -0.184297
C10   C     C_R   0.512444 0.871984 0.498567 -0.087966
C11   C     C_R   0.346608 0.335541 0.141220 -0.134965
C12   C     C_R   0.282141 0.499539 0.500264 0.881458
C13   C     C_R   0.269922 0.254712 0.072109 0.216488
C14   C     C_R   0.271659 0.254497 0.932559 -0.201961
C15   C     C_R   0.347852 0.335012 0.862167 -0.181362
C16   C     C_R   0.425018 0.418640 0.928784 0.158485
C17   C     C_R   0.424774 0.418742 0.073036 0.078816
C18   C     C_R   0.572012 0.578234 0.068927 0.211602
C19   C     C_R   0.571536 0.577724 0.926590 -0.134647
C20   C     C_R   0.503839 0.739344 0.499605 0.873754
C21   C     C_R   0.717858 0.500331 0.499737 0.884857
C22   C     C_1   0.161583 0.499149 0.500661 -0.183637
C23   C     C_1   0.059336 0.499083 0.500332 0.004165
C24   C     C_1   0.940599 0.499400 0.499655 0.010489
C25   C     C_1   0.838376 0.499855 0.499338 -0.172043
C26   C     C_R   0.694607 0.137310 0.630199 -0.170766
H1    H     H_    0.357563 0.109247 0.378428 0.146099
H2    H     H_    0.213098 0.191976 0.877644 0.156361
H3    H     H_    0.343416 0.329414 0.755595 0.210002
H4    H     H_    0.629794 0.641223 0.871332 0.164216
H5    H     H_    0.699440 0.238953 0.630487 0.154087
H6    H     H_    0.853777 0.127573 0.740789 0.140619
H7    H     H_    0.854721 0.895136 0.738651 0.144896
H8    H     H_    0.701314 0.773925 0.625993 0.143891
H9    H     H_    0.358122 0.881413 0.376768 0.156920
H10   H     H_    0.342776 0.330893 0.247841 0.198205
N1    N     N_R   0.498930 0.498800 0.142780 -0.132897
N2    N     N_R   0.498900 0.498720 0.857170 -0.126858
O1    O     O_R   0.500000 0.316780 0.614690 -0.640369
O2    O     O_R   0.499990 0.316750 0.385360 -0.628049
O3    O     O_R   0.334450 0.500030 0.614670 -0.623589
O4    O     O_R   0.334440 0.500000 0.385330 -0.629954
O5    O     O_R   0.500010 0.683250 0.614640 -0.619082
O6    O     O_R   0.500000 0.683220 0.385310 -0.582519
O7    O     O_R   0.665560 0.500000 0.614670 -0.629605
O8    O     O_R   0.665550 0.499970 0.385330 -0.573483
Zn1   Zn    Zn3+2 0.500010 0.500020 0.653130 0.936842
Zn2   Zn    Zn3+2 0.499990 0.499980 0.346870 0.972972
I1    I     I_    0.690564 0.707943 0.158949 -0.339857
C27   C     C_3   0.185414 0.168591 0.146203 -0.914865
H11   H     H_    0.189582 0.182931 0.256468 0.225002
H12   H     H_    0.095769 0.187021 0.113118 0.253211
H13   H     H_    0.204755 0.069169 0.124421 0.249847

loop_
_geom_bond_atom_site_label_1
_geom_bond_atom_site_label_2
_ccdc_geom_bond_type
C27   H12   S    
C23   C24   S    
C6    C7    A    
C19   N2    A    
C2    C3    A    
C9    C10   A    
C27   H11   S    
O3    Zn1   S    
C26   H5    S    
C2    C26   A    
O6    Zn2   S    
O4    Zn2   S    
C13   C14   A    
N1    Zn2   S    
C11   C13   A    
N2    Zn1   S    
C6    C26   A    
C21   C25   S    
O1    Zn1   S    
C11   H10   S    
C20   O6    A    
C18   N1    A    
C15   H3    S    
C21   O7    A    
O7    Zn1   S    
C5    C6    A    
C16   C17   A    
C4    H8    S    
C27   H13   S    
C7    C8    A    
C3    H7    S    
C12   O4    A    
C13   C27   S    
C21   O8    A    
O8    Zn2   S    
C12   C22   S    
C5    C10   A    
C20   O5    A    
C24   C25   T    
C12   O3    A    
C2    H6    S    
C18   C19   A    
C10   C20   S    
O2    Zn2   S    
C8    H1    S    
C1    O1    A    
C14   C15   A    
C8    C9    A    
C9    H9    S    
C17   N1    A    
C1    O2    A    
C14   H2    S    
C1    C7    S    
C19   H4    S    
O5    Zn1   S    
C22   C23   T    
C11   C17   A    
C3    C4    A    
C15   C16   A    
C18   I1    S    
C16   N2    A    
C4    C5    A    
