data_mof_unit_53673.cif
_audit_creation_date              2012-12-11T14:49:44-0500
_audit_creation_method            fapswitch 2.2
_symmetry_space_group_name_H-M    P1
_symmetry_Int_Tables_number       1
_space_group_crystal_system       triclinic
_cell_length_a                    16.945859
_cell_length_b                    7.082027
_cell_length_c                    16.717404
_cell_angle_alpha                 90.000641
_cell_angle_beta                  100.782567
_cell_angle_gamma                 89.999295
_cell_volume                      1970.85057331

loop_
_atom_site_label
_atom_site_type_symbol
_atom_type_description
_atom_site_fract_x
_atom_site_fract_y
_atom_site_fract_z
_atom_type_partial_charge
O1    O     O_R   0.579510 0.506290 0.439030 -0.514041
O2    O     O_R   0.420490 0.006290 0.560970 -0.514006
O3    O     O_R   0.412540 0.170090 0.405290 -0.522363
O4    O     O_R   0.587460 0.670090 0.594710 -0.522366
C1    C     C_R   0.385537 0.347016 0.381745 0.685916
C2    C     C_R   0.614463 0.847016 0.618255 0.685875
O5    O     O_R   0.578390 0.176230 0.429330 -0.550870
O6    O     O_R   0.421610 0.676230 0.570670 -0.550890
O7    O     O_R   0.587530 0.011250 0.585190 -0.519407
O8    O     O_R   0.412470 0.511250 0.414810 -0.519404
C3    C     C_R   0.604462 0.344388 0.413814 0.783335
C4    C     C_R   0.395539 0.844389 0.586187 0.783313
O9    O     O_3   0.502800 0.340940 0.551110 -0.358838
O10   O     O_3   0.497200 0.840940 0.448890 -0.358843
V1    V     V_3+5 0.499480 0.064020 0.490520 1.576187
V2    V     V_3+5 0.500520 0.564020 0.509480 1.576149
C5    C     C_R   0.166606 0.918251 0.861283 -0.224886
C6    C     C_R   0.833395 0.418255 0.138719 -0.224843
C7    C     C_R   0.332340 0.847308 0.636655 -0.255232
C8    C     C_R   0.667663 0.347318 0.363350 -0.255304
C9    C     C_R   0.208052 0.715132 0.665463 0.661365
C10   C     C_R   0.792012 0.215277 0.334598 0.661362
C11   C     C_R   0.266068 0.727269 0.616389 -0.359692
C12   C     C_R   0.733990 0.227396 0.383669 -0.359596
C13   C     C_R   0.339846 0.959069 0.707021 0.604606
C14   C     C_R   0.660121 0.459003 0.292949 0.604627
C15   C     C_R   0.282372 0.946193 0.758792 -0.198469
C16   C     C_R   0.717612 0.446156 0.241195 -0.198469
C17   C     C_R   0.216422 0.818783 0.738879 -0.212333
C18   C     C_R   0.783601 0.318831 0.261142 -0.212462
C19   C     C_R   0.160422 0.799483 0.792422 0.447007
C20   C     C_R   0.839607 0.299547 0.207605 0.447009
C21   C     C_R   0.231122 0.044509 0.879246 -0.365644
C22   C     C_R   0.768861 0.544466 0.120739 -0.365774
C23   C     C_R   0.288961 0.059003 0.829553 0.542099
C24   C     C_R   0.711012 0.558945 0.170429 0.542277
H1    H     H_    0.237212 0.132132 0.933222 0.147541
H2    H     H_    0.762763 0.632057 0.066753 0.147505
H3    H     H_    0.258936 0.642520 0.561517 0.159717
H4    H     H_    0.741163 0.142745 0.438584 0.159643
C25   C     C_3   0.755575 0.738584 0.827842 -0.340916
C26   C     C_3   0.244425 0.238580 0.172158 -0.340923
H5    H     H_    0.789145 0.602886 0.831662 0.159864
H6    H     H_    0.210855 0.102883 0.168339 0.159864
H7    H     H_    0.735296 0.756750 0.886973 0.144240
H8    H     H_    0.264704 0.256741 0.113027 0.144262
C27   C     C_3   0.681220 0.725102 0.757699 -0.404109
C28   C     C_3   0.318780 0.225098 0.242301 -0.404093
H9    H     H_    0.626077 0.752993 0.782982 0.147147
H10   H     H_    0.373923 0.252985 0.217019 0.147190
H11   H     H_    0.673846 0.579764 0.733633 0.220007
H12   H     H_    0.326154 0.079761 0.266367 0.220009
H13   H     H_    0.872415 0.724925 0.738206 0.178786
H14   H     H_    0.127584 0.224933 0.261793 0.178792
C29   C     C_3   0.839509 0.861765 0.731760 -0.366139
C30   C     C_3   0.160491 0.361771 0.268239 -0.366118
C31   C     C_3   0.758407 0.085990 0.806656 -0.410473
C32   C     C_3   0.241593 0.585987 0.193343 -0.410482
C33   C     C_3   0.811141 0.905999 0.813521 0.019407
C34   C     C_3   0.188859 0.405999 0.186478 0.019395
H15   H     H_    0.795435 0.214776 0.807265 0.154950
H16   H     H_    0.204565 0.714775 0.192734 0.154951
H17   H     H_    0.732263 0.099136 0.862788 0.124574
H18   H     H_    0.267738 0.599128 0.137212 0.124594
C35   C     C_3   0.686303 0.870642 0.688918 -0.030382
C36   C     C_3   0.313697 0.370641 0.311082 -0.030400
C37   C     C_3   0.767121 0.849334 0.657864 0.339919
C38   C     C_3   0.232878 0.349340 0.342135 0.339893
C39   C     C_3   0.688395 0.071896 0.731314 0.303048
C40   C     C_3   0.311605 0.571893 0.268686 0.303050
H19   H     H_    0.632125 0.080646 0.756485 0.123614
H20   H     H_    0.367875 0.580639 0.243515 0.123668
H21   H     H_    0.883990 0.968196 0.719880 0.111319
H22   H     H_    0.116010 0.468205 0.280119 0.111329
H23   H     H_    0.768956 0.966907 0.614678 0.071560
H24   H     H_    0.231043 0.466915 0.385321 0.071564
O11   O     O_R   0.087500 0.266000 0.085220 -0.539863
O12   O     O_R   0.912500 0.766000 0.914780 -0.539862
O13   O     O_R   0.921600 0.589950 0.070670 -0.550601
O14   O     O_R   0.078400 0.089950 0.929330 -0.550615
C41   C     C_R   0.895902 0.422024 0.086956 0.772267
C42   C     C_R   0.104099 0.922021 0.913045 0.772235
O15   O     O_R   0.087460 0.596020 0.094710 -0.544349
O16   O     O_R   0.912540 0.096020 0.905290 -0.544347
O17   O     O_R   0.079520 0.760970 0.939020 -0.528860
O18   O     O_R   0.920480 0.260970 0.060980 -0.528862
C43   C     C_R   0.116798 0.425623 0.116755 0.700462
C44   C     C_R   0.883202 0.925624 0.883244 0.700455
O19   O     O_3   0.997180 0.425140 0.948910 -0.377743
O20   O     O_3   0.002820 0.925140 0.051090 -0.377732
V3    V     V_3+5 0.000520 0.702080 0.009480 1.379720
V4    V     V_3+5 0.999480 0.202080 0.990520 1.379710
O21   O     O_3   0.095249 0.678792 0.773893 -0.529308
C45   C     C_3   0.118186 0.497712 0.805396 -0.060406
H25   H     H_    0.146338 0.501602 0.871091 0.085905
H26   H     H_    0.159635 0.428285 0.770398 0.137562
H27   H     H_    0.063634 0.408313 0.799339 0.154090
O22   O     O_3   0.904806 0.178934 0.226150 -0.529314
C46   C     C_3   0.881888 0.997781 0.194711 -0.060542
H28   H     H_    0.853726 0.001556 0.129024 0.085919
H29   H     H_    0.840475 0.928381 0.229742 0.137580
H30   H     H_    0.936438 0.908411 0.200773 0.154041
O23   O     O_3   0.768710 0.679824 0.613728 -0.575879
C47   C     C_3   0.821263 0.694686 0.557450 -0.269029
H31   H     H_    0.882457 0.740435 0.587475 0.176506
H32   H     H_    0.796416 0.792928 0.507107 0.161101
H33   H     H_    0.827009 0.554033 0.529946 0.170935
O24   O     O_3   0.231289 0.179832 0.386271 -0.575885
C48   C     C_3   0.178732 0.194696 0.442545 -0.269007
H34   H     H_    0.117536 0.240417 0.412512 0.176539
H35   H     H_    0.203569 0.292958 0.492884 0.161126
H36   H     H_    0.172992 0.054049 0.470056 0.170917
O25   O     O_3   0.682779 0.226914 0.675987 -0.548287
C49   C     C_3   0.756392 0.301631 0.661996 -0.162539
H37   H     H_    0.809385 0.210732 0.676263 0.083142
H38   H     H_    0.773096 0.424925 0.701506 0.182854
H39   H     H_    0.748805 0.339155 0.596724 0.183374
O26   O     O_3   0.317220 0.726914 0.324012 -0.548285
C50   C     C_3   0.243608 0.801637 0.338002 -0.162540
H40   H     H_    0.190615 0.710739 0.323736 0.083136
H41   H     H_    0.226903 0.924929 0.298492 0.182850
H42   H     H_    0.251194 0.839166 0.403274 0.183383
F1    F     F_    0.143396 0.603040 0.639514 -0.665905
F2    F     F_    0.856733 0.103350 0.360605 -0.665835
O27   O     O_3   0.354995 0.174588 0.853708 -0.510518
C51   C     C_3   0.332398 0.363601 0.835403 -0.108526
H43   H     H_    0.304804 0.381639 0.769947 0.129243
H44   H     H_    0.387117 0.452900 0.847474 0.171681
H45   H     H_    0.291356 0.415610 0.875169 0.072983
O28   O     O_3   0.644974 0.674523 0.146290 -0.510418
C52   C     C_3   0.667627 0.863601 0.164408 -0.108804
H46   H     H_    0.695258 0.881941 0.229843 0.129004
H47   H     H_    0.612924 0.952948 0.152297 0.171706
H48   H     H_    0.708647 0.915322 0.124552 0.073076
F3    F     F_    0.404666 0.074679 0.725739 -0.662281
F4    F     F_    0.595243 0.574497 0.274178 -0.662130

loop_
_geom_bond_atom_site_label_1
_geom_bond_atom_site_label_2
_ccdc_geom_bond_type
C32   H16   S    
O15   C43   A    
O11   V4    S    
C9    F1    S    
C51   H43   S    
C29   C33   S    
C15   C17   A    
C36   C38   S    
O1    C3    A    
C52   H48   S    
O2    C4    A    
C2    O7    A    
C47   H32   S    
C49   H37   S    
O17   V3    S    
C37   O23   S    
O8    V2    S    
C27   H9    S    
C52   H47   S    
O5    C3    A    
C39   O25   S    
O21   C45   S    
C5    C21   A    
C48   H35   S    
C35   C39   S    
C31   C33   S    
C32   C34   S    
C6    C41   S    
O24   C48   S    
C23   O27   S    
C5    C42   S    
C26   H8    S    
C39   H19   S    
O26   C50   S    
C21   C23   A    
C33   C44   S    
C2    C35   S    
C8    C12   A    
C35   C37   S    
O19   V3    S    
O13   V3    S    
C41   O18   A    
O5    V1    S    
O6    V2    S    
C25   H5    S    
C26   H6    S    
C7    C13   A    
C47   H31   S    
C34   C43   S    
C31   H17   S    
H13   C29   S    
C32   H18   S    
H14   C30   S    
C3    C8    S    
C30   H22   S    
C10   F2    S    
C25   C33   S    
O14   C42   A    
C48   H36   S    
C26   C34   S    
O13   C41   A    
C32   C40   S    
C27   H11   S    
C51   H45   S    
C15   C23   A    
C30   C38   S    
C9    C17   A    
C21   H1    S    
C30   C34   S    
O4    V2    S    
C7    C11   A    
C24   O28   S    
O20   V4    S    
C46   H28   S    
C28   H12   S    
O6    C4    A    
C25   C27   S    
O1    V2    S    
C26   C28   S    
C38   H24   S    
O19   V4    S    
C45   H26   S    
O2    V1    S    
C6    C22   A    
O11   C43   A    
C50   H41   S    
O4    C2    A    
C46   H29   S    
C9    C11   A    
O27   C51   S    
C5    C19   A    
C10   C12   A    
C6    C20   A    
C52   H46   S    
O18   V4    S    
O3    V1    S    
O25   C49   S    
C50   H42   S    
O12   C44   A    
C51   H44   S    
C10   C18   A    
C22   H2    S    
O16   C44   A    
C1    C36   S    
O3    C1    A    
C49   H38   S    
C50   H40   S    
C31   H15   S    
O12   V3    S    
C13   C15   A    
C42   O17   A    
O15   V3    S    
C14   C16   A    
C45   H27   S    
C31   C39   S    
C16   C18   A    
O28   C52   S    
O7    V1    S    
C29   C37   S    
O14   V4    S    
C19   O21   S    
C48   H34   S    
C18   C20   A    
O20   V3    S    
C36   C40   S    
C8    C14   A    
C40   O26   S    
C11   H3    S    
C4    C7    S    
C28   H10   S    
C12   H4    S    
C20   O22   S    
C22   C24   A    
C45   H25   S    
C13   F3    S    
C38   O24   S    
C49   H39   S    
C14   F4    S    
C29   H21   S    
C1    O8    A    
C46   H30   S    
C37   H23   S    
C16   C24   A    
C17   C19   A    
O22   C46   S    
O9    V2    S    
O23   C47   S    
C25   H7    S    
O10   V1    S    
C40   H20   S    
O16   V4    S    
C28   C36   S    
C27   C35   S    
C47   H33   S    
