data_mof_unit_58476.cif
_audit_creation_date              2012-10-26T18:50:22-0400
_audit_creation_method            fapswitch 2.2
_symmetry_space_group_name_H-M    P1
_symmetry_Int_Tables_number       1
_space_group_crystal_system       triclinic
_cell_length_a                    9.613238
_cell_length_b                    10.777111
_cell_length_c                    15.478382
_cell_angle_alpha                 87.536301
_cell_angle_beta                  74.114062
_cell_angle_gamma                 89.99424
_cell_volume                      1540.82245998

loop_
_atom_site_label
_atom_site_type_symbol
_atom_type_description
_atom_site_fract_x
_atom_site_fract_y
_atom_site_fract_z
_atom_type_partial_charge
C1    C     C_R   0.998611 0.262612 0.503263 0.543796
C2    C     C_R   0.234943 0.579348 0.045195 0.051262
C3    C     C_R   0.332458 0.537507 0.093932 0.034628
C4    C     C_R   0.918094 0.500211 0.672061 0.531569
C5    C     C_R   0.087564 0.592741 0.089046 -0.138396
C6    C     C_R   0.034936 0.563096 0.180738 -0.146076
C7    C     C_R   0.275606 0.504116 0.185593 -0.131665
C8    C     C_R   0.083575 0.120371 0.645846 -0.107642
C9    C     C_R   0.126417 0.051287 0.712165 -0.119130
C10   C     C_R   0.126599 0.922238 0.712064 -0.115322
C11   C     C_R   0.083962 0.861448 0.645628 -0.099277
C12   C     C_R   0.677929 0.525530 0.908560 0.035297
C13   C     C_R   0.042445 0.929559 0.576695 0.029445
C14   C     C_R   0.042305 0.060848 0.576797 0.026580
C15   C     C_R   0.995735 0.128394 0.509535 0.000819
C16   C     C_R   0.998730 0.737043 0.502922 0.525058
C17   C     C_R   0.943968 0.067347 0.446703 -0.141544
C18   C     C_R   0.943989 0.939377 0.446667 -0.147588
C19   C     C_R   0.995863 0.870447 0.509369 0.005023
C20   C     C_R   0.697975 0.661361 0.378097 -0.130008
C21   C     C_R   0.653789 0.739560 0.316678 -0.023775
C22   C     C_R   0.508963 0.740554 0.318178 -0.136548
C23   C     C_R   0.777841 0.496138 0.958695 0.053322
C24   C     C_R   0.410030 0.663933 0.379400 -0.118760
C25   C     C_R   0.451671 0.580270 0.440576 0.153646
C26   C     C_R   0.601132 0.579676 0.440260 0.146960
C27   C     C_R   0.548795 0.424063 0.556782 0.000217
C28   C     C_R   0.082077 0.502929 0.327922 0.535644
C29   C     C_R   0.401041 0.424009 0.556702 -0.002351
C30   C     C_R   0.872845 0.502145 0.770615 -0.004841
C31   C     C_R   0.129275 0.519804 0.229582 -0.004059
C32   C     C_R   0.923388 0.474038 0.914740 -0.137379
C33   C     C_R   0.970936 0.478133 0.821265 -0.144872
C34   C     C_R   0.530546 0.548362 0.954243 0.035846
C35   C     C_R   0.728049 0.525932 0.814269 -0.130001
C36   C     C_2   0.760966 0.820166 0.251310 0.215203
C37   C     C_R   0.482682 0.528723 0.049352 0.036650
C38   C     C_R   0.586846 0.503191 0.096859 -0.122645
C39   C     C_R   0.731457 0.487755 0.052148 -0.123131
C40   C     C_R   0.429858 0.591445 0.908296 -0.137096
C41   C     C_R   0.285337 0.607721 0.953323 -0.136282
Cu1   Cu    Cu3+1 0.140660 0.499990 0.500010 0.914091
Cu2   Cu    Cu3+1 0.859340 0.500010 0.499990 0.925710
H1    H     H_    0.807060 0.466707 0.091209 0.114282
H2    H     H_    0.809315 0.668141 0.374558 0.165727
H3    H     H_    0.342874 0.464193 0.224560 0.128757
H4    H     H_    0.471256 0.801396 0.271968 0.170231
H5    H     H_    0.302326 0.674824 0.375386 0.186763
H6    H     H_    0.325427 0.361660 0.603216 0.106916
H7    H     H_    0.921508 0.576478 0.213568 0.119696
H8    H     H_    0.212063 0.641377 0.915577 0.107674
H9    H     H_    0.000084 0.451372 0.952698 0.114408
H10   H     H_    0.083372 0.459329 0.788787 0.121865
H11   H     H_    0.655310 0.540620 0.773046 0.123201
H12   H     H_    0.013307 0.627729 0.052537 0.120246
H13   H     H_    0.560994 0.497515 0.169186 0.112670
H14   H     H_    0.459886 0.617223 0.837570 0.104601
H15   H     H_    0.874220 0.817483 0.250443 0.088546
H16   H     H_    0.906421 0.119274 0.396044 0.140744
H17   H     H_    0.080432 0.220143 0.650633 0.125863
H18   H     H_    0.157687 0.098093 0.764589 0.115086
H19   H     H_    0.158012 0.868882 0.764414 0.115462
H20   H     H_    0.081265 0.761125 0.650241 0.144403
H21   H     H_    0.906410 0.893826 0.396065 0.110481
H22   H     H_    0.583244 0.361701 0.603360 0.119001
N1    N     N_R   0.648320 0.501210 0.499140 -0.238776
N2    N     N_R   0.352470 0.501290 0.499110 -0.238491
O1    O     O_R   0.118810 0.319640 0.500010 -0.496285
O2    O     O_R   0.881240 0.319660 0.500000 -0.494080
O3    O     O_R   0.055570 0.499980 0.629840 -0.517694
O4    O     O_R   0.818000 0.500010 0.629830 -0.503488
O5    O     O_R   0.118760 0.680340 0.500000 -0.525048
O6    O     O_R   0.881190 0.680360 0.499990 -0.513484
O7    O     O_R   0.182000 0.499990 0.370170 -0.518628
O8    O     O_R   0.944430 0.500020 0.370160 -0.516568
O9    O     O_2   0.724547 0.890060 0.197427 -0.496460

loop_
_geom_bond_atom_site_label_1
_geom_bond_atom_site_label_2
_ccdc_geom_bond_type
Cu2   O6    S    
C27   C29   A    
C34   C37   A    
C25   N2    A    
C28   O7    A    
C4    O3    A    
C21   C36   S    
C29   H6    S    
C12   C23   A    
C30   C35   A    
C9    H18   S    
C3    C7    A    
Cu2   N1    S    
C5    C6    A    
C2    C41   A    
C11   H20   S    
Cu1   O3    S    
C1    O1    A    
C18   C19   A    
C32   H9    S    
C36   O9    D    
C29   N2    A    
C8    C9    A    
C16   O5    A    
C8    C14   A    
C1    C15   S    
C9    C10   A    
C20   H2    S    
C6    C31   A    
Cu2   O2    S    
C13   C14   A    
C35   H11   S    
Cu1   O1    S    
C10   H19   S    
C33   H10   S    
Cu1   O7    S    
C7    C31   A    
C13   C19   A    
C16   O6    A    
C26   N1    A    
C7    H3    S    
C24   C25   A    
C25   C26   A    
C1    O2    A    
C24   H5    S    
C37   C38   A    
C27   H22   S    
Cu1   O5    S    
C17   C18   A    
C6    H7    S    
C12   C35   A    
C17   H16   S    
C40   C41   A    
Cu1   N2    S    
C34   C40   A    
C2    C5    A    
Cu1   Cu2   S    
C12   C34   A    
Cu2   O8    S    
C15   C17   A    
Cu2   O4    S    
C40   H14   S    
C30   C33   A    
C5    H12   S    
C28   C31   S    
C23   C32   A    
C39   H1    S    
C36   H15   S    
C32   C33   A    
C2    C3    A    
C27   N1    A    
C8    H17   S    
C11   C13   A    
C18   H21   S    
C38   C39   A    
C20   C26   A    
C16   C19   S    
C23   C39   A    
C22   H4    S    
C22   C24   A    
C10   C11   A    
C38   H13   S    
C20   C21   A    
C3    C37   A    
C14   C15   A    
C21   C22   A    
C28   O8    A    
C41   H8    S    
C4    O4    A    
C4    C30   S    
