data_mof_unit_29630.cif
_audit_creation_date              2012-10-26T18:34:23-0400
_audit_creation_method            fapswitch 2.2
_symmetry_space_group_name_H-M    P1
_symmetry_Int_Tables_number       1
_space_group_crystal_system       triclinic
_cell_length_a                    10.80661
_cell_length_b                    9.533118
_cell_length_c                    9.069562
_cell_angle_alpha                 89.884402
_cell_angle_beta                  89.899067
_cell_angle_gamma                 90.255812
_cell_volume                      934.339840873

loop_
_atom_site_label
_atom_site_type_symbol
_atom_type_description
_atom_site_fract_x
_atom_site_fract_y
_atom_site_fract_z
_atom_type_partial_charge
C1    C     C_R   0.262387 0.499606 0.500659 0.576794
C2    C     C_R   0.064358 0.586677 0.600095 0.233322
C3    C     C_R   0.871467 0.501519 0.498044 -0.074880
C4    C     C_R   0.128529 0.498474 0.501973 -0.074863
C5    C     C_R   0.421566 0.074149 0.410613 0.034037
C6    C     C_R   0.578434 0.925851 0.589387 0.034038
C7    C     C_R   0.578430 0.074575 0.589389 0.035226
C8    C     C_R   0.421569 0.925425 0.410611 0.035222
C9    C     C_3   0.170055 0.380026 0.186130 -0.092764
C10   C     C_3   0.829918 0.619967 0.813874 -0.092674
C11   C     C_3   0.836878 0.406613 0.178493 -0.088932
C12   C     C_R   0.737611 0.500394 0.499340 0.576786
C13   C     C_3   0.163160 0.593320 0.821515 -0.088951
C14   C     C_R   0.499217 0.500094 0.220636 0.528050
C15   C     C_R   0.500797 0.499907 0.779364 0.528023
C16   C     C_1   0.499715 0.500136 0.065544 -0.087971
C17   C     C_1   0.500305 0.499864 0.934456 -0.087971
C18   C     C_R   0.064553 0.410477 0.403262 0.232992
C19   C     C_R   0.935441 0.589508 0.596766 0.232959
C20   C     C_R   0.935638 0.413308 0.399931 0.233310
Cu1   Cu    Cu3+1 0.500000 0.640660 0.500000 0.978013
Cu2   Cu    Cu3+1 0.500000 0.359340 0.500000 0.977997
H1    H     H_    0.358718 0.129908 0.338924 0.143140
H2    H     H_    0.897974 0.636038 0.903586 0.123269
H3    H     H_    0.759230 0.477437 0.206270 0.116047
H4    H     H_    0.804066 0.334013 0.091357 0.140972
H5    H     H_    0.914224 0.469789 0.131473 0.070022
H6    H     H_    0.195832 0.665911 0.908735 0.140958
H7    H     H_    0.240919 0.522658 0.793720 0.116170
H8    H     H_    0.085884 0.529957 0.868436 0.069904
H9    H     H_    0.641281 0.870092 0.661076 0.143139
H10   H     H_    0.641285 0.130686 0.661093 0.120631
H11   H     H_    0.358715 0.869314 0.338907 0.120638
H12   H     H_    0.257157 0.328413 0.151688 0.139639
H13   H     H_    0.190535 0.494223 0.197905 0.072665
H14   H     H_    0.102184 0.363560 0.096332 0.123398
H15   H     H_    0.809053 0.505847 0.801924 0.072815
H16   H     H_    0.743006 0.671896 0.848559 0.139621
N1    N     N_R   0.500000 0.852070 0.500000 -0.229496
N2    N     N_R   0.500000 0.147930 0.500000 -0.229493
O1    O     O_R   0.319640 0.618740 0.499990 -0.474528
O2    O     O_3   0.872684 0.685494 0.683369 -0.514719
O3    O     O_3   0.873435 0.326709 0.302258 -0.501487
O4    O     O_3   0.126557 0.673258 0.697790 -0.501497
O5    O     O_R   0.680360 0.381260 0.500010 -0.474519
O6    O     O_R   0.680360 0.618740 0.500010 -0.474166
O7    O     O_R   0.319640 0.381260 0.499990 -0.474173
O8    O     O_R   0.500000 0.618760 0.288390 -0.508418
O9    O     O_R   0.500000 0.381240 0.711610 -0.508435
O10   O     O_R   0.500000 0.618760 0.711610 -0.497555
O11   O     O_R   0.500000 0.381240 0.288390 -0.497576
O12   O     O_3   0.127308 0.314499 0.316649 -0.514729

loop_
_geom_bond_atom_site_label_1
_geom_bond_atom_site_label_2
_ccdc_geom_bond_type
C9    H14   S    
C2    C4    A    
C7    N2    A    
C13   H6    S    
C11   O3    S    
C6    C7    A    
C7    H10   S    
C8    N1    A    
C10   O2    S    
C14   O11   A    
Cu1   N1    S    
C19   O2    S    
C11   H5    S    
C10   H16   S    
Cu1   O8    S    
Cu2   N2    S    
C1    C4    S    
Cu2   O7    S    
C18   O12   S    
C3    C20   A    
Cu1   Cu2   S    
C3    C19   A    
C9    O12   S    
C10   H15   S    
Cu1   O1    S    
C13   H7    S    
Cu1   O10   S    
C6    H9    S    
C18   C20   A    
C8    H11   S    
C15   O9    A    
Cu2   O11   S    
C9    H12   S    
C14   C16   S    
C5    N2    A    
C5    C8    A    
C11   H3    S    
Cu1   O6    S    
C13   H8    S    
C20   O3    S    
C15   C17   S    
Cu2   O5    S    
C15   O10   A    
Cu2   O9    S    
C9    H13   S    
C6    N1    A    
C16   C17   T    
C14   O8    A    
C3    C12   S    
C11   H4    S    
C10   H2    S    
C2    C19   A    
C4    C18   A    
C13   O4    S    
C1    O7    A    
C1    O1    A    
C2    O4    S    
C12   O5    A    
C12   O6    A    
C5    H1    S    
