data_mof_unit_50417.cif
_audit_creation_date              2012-12-11T16:43:14-0500
_audit_creation_method            fapswitch 2.2
_symmetry_space_group_name_H-M    P1
_symmetry_Int_Tables_number       1
_space_group_crystal_system       triclinic
_cell_length_a                    6.923116
_cell_length_b                    23.281849
_cell_length_c                    25.837367
_cell_angle_alpha                 104.794056
_cell_angle_beta                  90.351756
_cell_angle_gamma                 90.481942
_cell_volume                      4026.19737761

loop_
_atom_site_label
_atom_site_type_symbol
_atom_type_description
_atom_site_fract_x
_atom_site_fract_y
_atom_site_fract_z
_atom_type_partial_charge
O1    O     O_R   0.505750 0.453350 0.547660 -0.540573
O2    O     O_R   0.170990 0.432220 0.437590 -0.540889
O3    O     O_R   0.005600 0.546650 0.452340 -0.540405
C1    C     C_R   0.339705 0.415128 0.417602 0.711220
O4    O     O_R   0.175720 0.446240 0.546340 -0.542332
O5    O     O_R   0.010370 0.560770 0.561860 -0.538573
C2    C     C_R   0.344825 0.434165 0.562847 0.690371
O6    O     O_R   0.500990 0.439230 0.438140 -0.538696
O7    O     O_3   0.340820 0.537560 0.504970 -0.368741
V1    V     V_3+5 0.064050 0.493030 0.499080 1.398089
O8    O     O_R   0.680940 0.567780 0.562410 -0.542363
C3    C     C_R   0.850952 0.584509 0.582411 0.714661
O9    O     O_R   0.676210 0.553760 0.453660 -0.542124
C4    C     C_R   0.845104 0.565895 0.437202 0.690784
V2    V     V_3+5 0.564640 0.506970 0.500920 1.397868
O10   O     O_3   0.837740 0.462440 0.495030 -0.369138
C5    C     C_R   0.772679 0.875498 0.114714 -0.139540
H1    H     H_    0.639964 0.887548 0.097932 0.130893
C6    C     C_R   0.761174 0.839784 0.150744 -0.139860
H2    H     H_    0.620233 0.824875 0.160148 0.102644
C7    C     C_R   0.929242 0.822838 0.173693 0.092475
C8    C     C_R   0.109388 0.842268 0.159217 -0.138191
H3    H     H_    0.241701 0.830853 0.176619 0.098866
C9    C     C_R   0.120993 0.877840 0.122994 -0.149660
H4    H     H_    0.262016 0.892326 0.113184 0.120276
C10   C     C_R   0.952687 0.895136 0.100404 -0.052721
C11   C     C_R   0.053996 0.741152 0.212627 -0.145646
H5    H     H_    0.169731 0.733037 0.183755 0.115673
C12   C     C_R   0.041743 0.705961 0.249117 -0.151257
H6    H     H_    0.148456 0.671781 0.247245 0.111090
C13   C     C_R   0.891610 0.713912 0.286708 0.080594
C14   C     C_R   0.753974 0.758038 0.286703 -0.149900
H7    H     H_    0.638275 0.766175 0.315586 0.110261
C15   C     C_R   0.766210 0.793222 0.250207 -0.152052
H8    H     H_    0.659509 0.827406 0.252076 0.108021
C16   C     C_R   0.916399 0.785291 0.212637 0.082206
C17   C     C_R   0.698962 0.657157 0.340408 -0.140096
H9    H     H_    0.566518 0.668553 0.323057 0.099437
C18   C     C_R   0.687600 0.621765 0.376789 -0.160285
H10   H     H_    0.546636 0.607391 0.386755 0.117771
C19   C     C_R   0.856055 0.604517 0.399349 -0.055325
C20   C     C_R   0.035974 0.623958 0.384787 -0.160635
H11   H     H_    0.168822 0.611893 0.401490 0.121122
C21   C     C_R   0.047239 0.659507 0.348613 -0.142981
H12   H     H_    0.188135 0.674303 0.339057 0.099828
C22   C     C_R   0.879012 0.676454 0.325737 0.094843
C23   C     C_R   0.713622 0.643077 0.669009 -0.220054
C24   C     C_R   0.864418 0.633633 0.631733 -0.085042
C25   C     C_R   0.030406 0.670220 0.642545 -0.220079
C26   C     C_R   0.045389 0.716108 0.689805 0.091960
C27   C     C_R   0.894788 0.724635 0.727525 0.071260
C28   C     C_R   0.729217 0.687624 0.717091 0.094346
C29   C     C_R   0.208576 0.753514 0.700102 -0.194621
C30   C     C_R   0.222778 0.798929 0.747359 -0.166108
C31   C     C_R   0.075004 0.807411 0.785466 0.092400
C32   C     C_R   0.910132 0.770046 0.775765 0.010410
C33   C     C_R   0.761390 0.777641 0.814189 0.038923
C34   C     C_R   0.598290 0.739572 0.803043 -0.136695
C35   C     C_R   0.582426 0.695420 0.755113 -0.198752
C36   C     C_R   0.089040 0.853102 0.832692 -0.238007
C37   C     C_R   0.941595 0.862210 0.871014 -0.129256
C38   C     C_R   0.779318 0.822898 0.862533 0.199949
H13   H     H_    0.586095 0.614713 0.661212 0.125424
H14   H     H_    0.147149 0.663347 0.613895 0.128253
H15   H     H_    0.325606 0.747601 0.671621 0.132904
H16   H     H_    0.350374 0.827229 0.754279 0.133288
H17   H     H_    0.214140 0.882504 0.839222 0.148267
H18   H     H_    0.479432 0.743795 0.830615 0.185266
H19   H     H_    0.454344 0.667326 0.747766 0.139166
C39   C     C_R   0.288441 0.170332 0.140061 -0.213914
C40   C     C_R   0.456460 0.135387 0.131104 -0.081843
C41   C     C_R   0.605071 0.147375 0.169940 -0.225363
C42   C     C_R   0.584397 0.192511 0.217668 0.093950
C43   C     C_R   0.415510 0.227268 0.226074 0.052421
C44   C     C_R   0.267879 0.216404 0.186868 0.087541
C45   C     C_R   0.728663 0.203201 0.257484 -0.181053
C46   C     C_R   0.707776 0.248465 0.304612 -0.194481
C47   C     C_R   0.541511 0.283706 0.313056 0.088155
C48   C     C_R   0.393882 0.272844 0.273850 0.052578
C49   C     C_R   0.224990 0.307599 0.282259 0.093436
C50   C     C_R   0.080728 0.296909 0.242441 -0.179232
C51   C     C_R   0.101616 0.251645 0.195312 -0.193441
C52   C     C_R   0.520939 0.329770 0.359867 -0.213239
C53   C     C_R   0.352909 0.364709 0.368830 -0.085771
C54   C     C_R   0.204302 0.352728 0.329993 -0.223647
H20   H     H_    0.173239 0.161757 0.110377 0.127257
H21   H     H_    0.734216 0.120539 0.163704 0.121716
H22   H     H_    0.858668 0.176808 0.252026 0.136663
H23   H     H_    0.822558 0.256138 0.334363 0.133937
H24   H     H_    0.636133 0.338339 0.389553 0.128570
H25   H     H_    0.075148 0.379559 0.336234 0.124034
H26   H     H_    0.950719 0.323301 0.247901 0.137756
H27   H     H_    0.986832 0.243971 0.165562 0.134352
C55   C     C_R   0.274933 0.115459 0.877639 -0.160646
H28   H     H_    0.142858 0.096183 0.888300 0.118418
C56   C     C_R   0.263628 0.151018 0.841503 -0.143464
H29   H     H_    0.123669 0.157493 0.825061 0.100187
C57   C     C_R   0.430862 0.176788 0.825946 0.094784
C58   C     C_R   0.609970 0.165912 0.847594 -0.140057
H30   H     H_    0.741494 0.185659 0.837173 0.099631
C59   C     C_R   0.621412 0.130147 0.883675 -0.162564
H31   H     H_    0.761661 0.122839 0.899510 0.117996
C60   C     C_R   0.453939 0.104433 0.899203 -0.054133
C61   C     C_R   0.561668 0.212188 0.748382 -0.150829
H32   H     H_    0.682659 0.182427 0.745633 0.109511
C62   C     C_R   0.548779 0.247207 0.711768 -0.151153
H33   H     H_    0.660420 0.243409 0.681957 0.108009
C63   C     C_R   0.392036 0.285629 0.712893 0.081510
C64   C     C_R   0.248514 0.287983 0.751683 -0.148977
H34   H     H_    0.127517 0.317742 0.754432 0.111574
C65   C     C_R   0.261404 0.252966 0.788297 -0.150066
H35   H     H_    0.149759 0.256765 0.818107 0.109494
C66   C     C_R   0.418125 0.214535 0.787166 0.081394
C67   C     C_R   0.200043 0.334176 0.652442 -0.140478
H36   H     H_    0.068571 0.314417 0.662882 0.099039
C68   C     C_R   0.188477 0.369911 0.616341 -0.160864
H37   H     H_    0.048187 0.377186 0.600511 0.119356
C69   C     C_R   0.355875 0.395639 0.600787 -0.055350
C70   C     C_R   0.534938 0.384656 0.622347 -0.159499
H38   H     H_    0.666955 0.403946 0.611665 0.121056
C71   C     C_R   0.546366 0.349124 0.658505 -0.141819
H39   H     H_    0.686361 0.342678 0.674942 0.101165
C72   C     C_R   0.379201 0.323344 0.674089 0.094826
O11   O     O_R   0.308350 0.060850 0.061810 -0.544705
O12   O     O_R   0.633860 0.053770 0.953650 -0.545773
O13   O     O_R   0.798960 0.939210 0.938150 -0.515724
C73   C     C_R   0.464822 0.065884 0.937126 0.683005
O14   O     O_R   0.638360 0.067800 0.062400 -0.545620
O15   O     O_R   0.803500 0.953330 0.047670 -0.535339
C74   C     C_R   0.469641 0.084940 0.082354 0.694184
O16   O     O_R   0.303810 0.046730 0.952290 -0.545062
O17   O     O_3   0.468430 0.962490 0.995010 -0.335932
V3    V     V_3+5 0.745300 0.006960 0.000930 1.444669
O18   O     O_R   0.132880 0.946160 0.046390 -0.540902
C75   C     C_R   0.963888 0.933962 0.062742 0.704724
O19   O     O_R   0.128380 0.932130 0.937650 -0.531264
C76   C     C_R   0.957531 0.913835 0.918771 0.771348
V4    V     V_3+5 0.244670 0.992930 0.999140 1.462845
O20   O     O_3   0.971670 0.037510 0.005000 -0.382135
Br1   Br    Br    0.590462 0.827333 0.918456 -0.556962

loop_
_geom_bond_atom_site_label_1
_geom_bond_atom_site_label_2
_ccdc_geom_bond_type
C31   C32   A    
O13   C76   A    
C59   H31   S    
C11   C12   A    
C19   C20   A    
C6    H2    S    
C1    O6    A    
C61   C62   A    
C67   H36   S    
C54   H25   S    
C33   C38   A    
C18   C19   A    
C7    C16   S    
C46   C47   A    
C32   C33   A    
C46   H23   S    
C12   H6    S    
C52   C53   A    
C5    C10   A    
O11   V4    S    
C6    C7    A    
C17   H9    S    
C9    C10   A    
C27   C32   A    
C64   C65   A    
C23   H13   S    
C62   H33   S    
O17   V4    S    
V2    O10   S    
C57   C58   A    
C68   H37   S    
C15   H8    S    
C42   C43   A    
C69   C70   A    
C10   C75   S    
C7    C8    A    
O15   C75   A    
C50   H26   S    
O8    V2    S    
C47   C52   A    
C23   C24   A    
O13   V3    S    
O17   V3    S    
C13   C22   S    
C56   C57   A    
C39   C40   A    
O1    V2    S    
C63   C64   A    
C29   H15   S    
O7    V1    S    
C45   H22   S    
C3    C24   S    
C59   C60   A    
C51   H27   S    
O9    C4    A    
C2    C69   S    
C55   H28   S    
C20   C21   A    
C61   H32   S    
C21   C22   A    
C50   C51   A    
C70   C71   A    
C26   C29   A    
C43   C44   A    
C27   C28   A    
C53   C54   A    
C9    H4    S    
C36   H17   S    
O19   V4    S    
C18   H10   S    
O4    C2    A    
C47   C48   A    
C41   C42   A    
C57   C66   S    
C26   C27   A    
C34   C35   A    
C29   C30   A    
C61   C66   A    
C36   C37   A    
C14   C15   A    
O2    C1    A    
O5    V1    S    
C49   C54   A    
C28   C35   A    
C58   H30   S    
C1    C53   S    
C70   H38   S    
C56   H29   S    
C5    H1    S    
O11   C74   A    
C65   C66   A    
C45   C46   A    
C55   C56   A    
C71   H39   S    
O18   C75   A    
O3    C4    A    
C35   H19   S    
C4    C19   S    
O15   V3    S    
C67   C72   A    
C34   H18   S    
C24   C25   A    
C58   C59   A    
C55   C60   A    
V3    O20   S    
O6    V2    S    
C43   C48   A    
O9    V2    S    
C42   C45   A    
C8    C9    A    
C25   H14   S    
C20   H11   S    
C63   C72   S    
C39   H20   S    
C11   H5    S    
C41   H21   S    
C60   C73   S    
C21   H12   S    
O12   V3    S    
C52   H24   S    
C30   C31   A    
C65   H35   S    
O1    C2    A    
C13   C14   A    
C49   C50   A    
O14   C74   A    
O18   V4    S    
C67   C68   A    
O8    C3    A    
C44   C51   A    
C23   C28   A    
C30   H16   S    
C11   C16   A    
C14   H7    S    
O7    V2    S    
O4    V1    S    
C12   C13   A    
O16   V4    S    
V1    O10   S    
O14   V3    S    
C40   C74   S    
O5    C3    A    
C37   C76   S    
C33   C34   A    
C62   C63   A    
O3    V1    S    
C5    C6    A    
C68   C69   A    
C15   C16   A    
C37   C38   A    
C73   O16   A    
C71   C72   A    
V4    O20   S    
C48   C49   A    
C40   C41   A    
C17   C18   A    
C25   C26   A    
C64   H34   S    
C39   C44   A    
O12   C73   A    
C8    H3    S    
O19   C76   A    
C38   Br1   S    
C17   C22   A    
C31   C36   A    
O2    V1    S    
