data_mof_unit_32294.cif
_audit_creation_date              2012-12-10T17:05:11-0500
_audit_creation_method            fapswitch 2.2
_symmetry_space_group_name_H-M    P1
_symmetry_Int_Tables_number       1
_space_group_crystal_system       triclinic
_cell_length_a                    10.835592
_cell_length_b                    11.11708
_cell_length_c                    9.907475
_cell_angle_alpha                 109.903031
_cell_angle_beta                  98.589894
_cell_angle_gamma                 91.749903
_cell_volume                      1105.32396393

loop_
_atom_site_label
_atom_site_type_symbol
_atom_type_description
_atom_site_fract_x
_atom_site_fract_y
_atom_site_fract_z
_atom_type_partial_charge
C1    C     C_R   0.498640 0.255757 0.443441 0.968436
C2    C     C_3   0.875710 0.496830 0.494375 0.028518
C3    C     C_3   0.932642 0.639609 0.560226 -0.436443
C4    C     C_3   0.906294 0.444016 0.337873 -0.397740
C5    C     C_2   0.496299 0.118950 0.421011 -0.344049
C6    C     C_2   0.538448 0.074482 0.530086 -0.089943
C7    C     C_2   0.550786 0.874465 0.578643 -0.326243
C8    C     C_2   0.480811 0.948500 0.520789 -0.047500
C9    C     C_2   0.508890 0.510724 0.079410 -0.124829
C10   C     C_2   0.500436 0.479303 0.917724 0.088189
C11   C     C_R   0.260518 0.508649 0.503283 0.905307
C12   C     C_R   0.512919 0.743520 0.556552 0.905532
C13   C     C_R   0.738962 0.496249 0.497637 0.817005
C14   C     C_3   0.082224 0.456009 0.624104 -0.250506
C15   C     C_3   0.938346 0.415840 0.584684 -0.238858
C16   C     C_3   0.073457 0.650388 0.542159 -0.220993
C17   C     C_3   0.049049 0.431282 0.347304 -0.227964
C18   C     C_3   0.121448 0.511949 0.507191 -0.105006
Cu1   Cu    Cu3+1 0.522160 0.521810 0.644910 1.040295
Cu2   Cu    Cu3+1 0.477840 0.478190 0.355090 1.044107
H1    H     H_    0.076823 0.679729 0.445835 0.159407
H2    H     H_    0.850215 0.352918 0.269302 0.245950
N1    N     N_2   0.444530 0.445420 0.137360 -0.246056
N2    N     N_2   0.555520 0.554510 0.862630 -0.320030
O1    O     O_R   0.511820 0.332340 0.577400 -0.561991
O2    O     O_R   0.474400 0.295500 0.332650 -0.542383
O3    O     O_R   0.336400 0.518400 0.622370 -0.485668
O4    O     O_R   0.298980 0.481560 0.377620 -0.596106
O5    O     O_R   0.525600 0.704500 0.667350 -0.556278
O6    O     O_R   0.488180 0.667660 0.422600 -0.567847
O7    O     O_R   0.701020 0.518440 0.622380 -0.581010
O8    O     O_R   0.663600 0.481600 0.377630 -0.600198
C19   C     C_2   0.117849 0.548837 0.783958 0.930300
O9    O     O_2   0.037773 0.585164 0.860377 -0.589627
O10   O     O_R   0.242384 0.594522 0.844883 -0.682816
H3    H     H_    0.252493 0.658498 0.948001 0.360546
H4    H     H_    0.879292 0.512376 0.280623 0.179521
H5    H     H_    0.879421 0.699041 0.505212 0.157737
C20   C     C_2   0.344548 0.913524 0.457738 0.891025
O11   O     O_2   0.305581 0.804088 0.378578 -0.576105
O12   O     O_R   0.261076 0.008786 0.487859 -0.756254
H6    H     H_    0.171414 0.974653 0.440511 0.349061
C21   C     C_2   0.637979 0.147596 0.659252 0.947308
O13   O     O_2   0.653072 0.117965 0.768382 -0.535447
O14   O     O_R   0.714646 0.249614 0.657594 -0.755563
H7    H     H_    0.773785 0.292087 0.753368 0.331777
H8    H     H_    0.648776 0.902233 0.625567 0.161417
H9    H     H_    0.439191 0.055113 0.320841 0.161221
C22   C     C_2   0.439744 0.350391 0.826540 0.922002
O15   O     O_2   0.473569 0.257506 0.856555 -0.579446
O16   O     O_R   0.333010 0.335366 0.723453 -0.720602
H10   H     H_    0.296717 0.242729 0.676314 0.366154
H11   H     H_    0.584262 0.580254 0.150150 0.147365
H12   H     H_    0.598056 0.641206 0.935463 0.202175
H13   H     H_    0.132481 0.370368 0.618202 0.222972
C23   C     C_2   0.323698 0.381240 0.069843 1.072691
O17   O     O_2   0.297387 0.275344 0.074798 -0.537250
O18   O     O_R   0.232793 0.442098 0.008410 -0.770557
H14   H     H_    0.150038 0.387306 0.968287 0.339580
C24   C     C_2   0.910279 0.270291 0.512404 0.897128
O19   O     O_2   0.969697 0.199186 0.563209 -0.565482
O20   O     O_R   0.810156 0.217052 0.397507 -0.760527
H15   H     H_    0.799901 0.119807 0.363213 0.343837
H16   H     H_    0.897587 0.436618 0.685287 0.179498
C25   C     C_2   0.151162 0.758298 0.668840 0.893241
O21   O     O_2   0.103371 0.825787 0.769727 -0.538539
O22   O     O_R   0.277368 0.784375 0.667626 -0.759683
H17   H     H_    0.318841 0.859228 0.756363 0.354193
H18   H     H_    0.920371 0.678090 0.676088 0.242257
H19   H     H_    0.079184 0.475357 0.270558 0.164538
C26   C     C_2   0.077266 0.291441 0.286837 0.913494
O23   O     O_2   0.029304 0.225588 0.162416 -0.537821
O24   O     O_R   0.160516 0.238512 0.368559 -0.758986
H20   H     H_    0.173047 0.145934 0.312758 0.358563

loop_
_geom_bond_atom_site_label_1
_geom_bond_atom_site_label_2
_ccdc_geom_bond_type
C17   C18   S    
C2    C4    S    
C15   H16   S    
C11   C18   S    
C16   H1    S    
C8    C20   S    
C12   O5    A    
C4    H2    S    
O12   H6    S    
C14   C18   S    
C13   O8    A    
Cu1   Cu2   S    
C25   O22   S    
Cu2   N1    S    
C11   O3    A    
C21   O13   D    
Cu1   O7    S    
C3    H18   S    
C14   C19   S    
C22   O15   D    
C14   H13   S    
N1    C23   S    
C20   O12   S    
Cu2   O6    S    
O14   H7    S    
C23   O17   D    
C1    O1    A    
C2    C15   S    
C21   O14   S    
O20   H15   S    
Cu2   O2    S    
C11   O4    A    
Cu1   N2    S    
C1    C5    S    
C4    C17   S    
C16   C18   S    
C19   O10   S    
C19   O9    D    
C17   C26   S    
C2    C3    S    
C6    C21   S    
O24   H20   S    
Cu2   O8    S    
C7    C12   S    
Cu1   O1    S    
C5    H9    S    
C1    O2    A    
C9    H11   S    
N2    H12   S    
O22   H17   S    
Cu1   O5    S    
C26   O23   D    
C2    C13   S    
Cu1   O3    S    
C4    H4    S    
C24   O20   S    
C25   O21   D    
C9    C10   S    
C26   O24   S    
C20   O11   D    
C5    C6    D    
C7    C8    D    
C14   C15   S    
C9    N1    D    
C10   N2    D    
C6    C8    S    
C16   C25   S    
Cu2   O4    S    
C12   O6    A    
O18   H14   S    
C10   C22   S    
C17   H19   S    
C13   O7    A    
C15   C24   S    
C3    C16   S    
O16   H10   S    
C3    H5    S    
C23   O18   S    
C24   O19   D    
C22   O16   S    
O10   H3    S    
C7    H8    S    
