data_mof_unit_56684.cif
_audit_creation_date              2012-10-26T21:10:25-0400
_audit_creation_method            fapswitch 2.2
_symmetry_space_group_name_H-M    P1
_symmetry_Int_Tables_number       1
_space_group_crystal_system       triclinic
_cell_length_a                    10.879013
_cell_length_b                    10.90027
_cell_length_c                    9.691909
_cell_angle_alpha                 90.009119
_cell_angle_beta                  90.892463
_cell_angle_gamma                 90.335197
_cell_volume                      1149.14794806

loop_
_atom_site_label
_atom_site_type_symbol
_atom_type_description
_atom_site_fract_x
_atom_site_fract_y
_atom_site_fract_z
_atom_type_partial_charge
C1    C     C_R   0.504471 0.265388 0.500192 0.547134
C2    C     C_R   0.819530 0.527433 0.985446 -0.120209
C3    C     C_R   0.783388 0.408156 0.019903 -0.108351
C4    C     C_R   0.262249 0.502725 0.498659 0.572562
C5    C     C_R   0.798116 0.312559 0.925518 -0.111019
C6    C     C_R   0.849480 0.335957 0.796701 -0.072442
C7    C     C_R   0.886336 0.455467 0.762004 0.060653
C8    C     C_2   0.529659 0.932361 0.398005 -0.130304
C9    C     C_2   0.474856 0.867725 0.498281 0.254304
C10   C     C_2   0.518525 0.065806 0.388488 -0.135720
C11   C     C_2   0.518030 0.133709 0.503340 -0.084788
C12   C     C_R   0.210847 0.599320 0.978194 -0.126354
C13   C     C_2   0.453394 0.411373 0.921380 -0.019022
C14   C     C_2   0.451332 0.412439 0.076957 -0.015060
C15   C     C_R   0.492952 0.734810 0.500022 0.561652
C16   C     C_R   0.737759 0.499458 0.501438 0.545719
C17   C     C_R   0.214655 0.691621 0.078249 -0.095388
C18   C     C_R   0.165930 0.670486 0.209849 0.153667
C19   C     C_R   0.113476 0.554854 0.239502 0.083922
C20   C     C_R   0.110596 0.462934 0.138355 -0.110021
C21   C     C_R   0.159863 0.484837 0.008885 -0.119241
C22   C     C_3   0.389246 0.890217 0.716120 -0.003819
C23   C     C_R   0.931539 0.524938 0.380385 -0.165488
C24   C     C_3   0.323248 0.986687 0.800455 -0.392120
C25   C     C_R   0.871688 0.500843 0.504192 -0.006701
C26   C     C_R   0.941241 0.480790 0.626460 -0.035870
C27   C     C_R   0.068274 0.483677 0.620600 -0.159531
C28   C     C_R   0.128257 0.506083 0.496566 0.014221
C29   C     C_R   0.058695 0.528603 0.374953 -0.013680
C30   C     C_R   0.871669 0.551065 0.857215 -0.069434
Cu1   Cu    Cu3+1 0.500020 0.500020 0.638630 0.918870
Cu2   Cu    Cu3+1 0.499980 0.499980 0.361370 0.932462
H1    H     H_    0.248836 0.616097 0.877376 0.129799
H2    H     H_    0.406576 0.335786 0.127253 0.134650
H3    H     H_    0.255610 0.779366 0.053134 0.086426
H4    H     H_    0.543105 0.570508 0.106864 0.200064
H5    H     H_    0.070759 0.373865 0.160321 0.106004
H6    H     H_    0.159613 0.411901 0.933429 0.103154
H7    H     H_    0.879214 0.542616 0.286655 0.127429
H8    H     H_    0.120612 0.465991 0.713814 0.127398
H9    H     H_    0.900017 0.643637 0.831735 0.101460
H10   H     H_    0.807253 0.601648 0.057968 0.092572
H11   H     H_    0.486041 0.885260 0.755321 0.119224
H12   H     H_    0.743732 0.389796 0.119539 0.137476
H13   H     H_    0.341400 0.801058 0.732022 0.164911
H14   H     H_    0.225266 0.991993 0.767169 0.162432
H15   H     H_    0.327857 0.962144 0.911577 0.081867
H16   H     H_    0.367337 0.077897 0.786412 0.148420
H17   H     H_    0.080001 0.792422 0.330686 0.216417
H18   H     H_    0.217990 0.841484 0.277894 0.231612
H19   H     H_    0.769621 0.220378 0.952147 0.094532
H20   H     H_    0.860413 0.261418 0.724095 0.093882
H21   H     H_    0.586367 0.887272 0.322046 0.089078
H22   H     H_    0.516273 0.107995 0.286952 0.125723
H23   H     H_    0.531234 0.091673 0.603988 0.130677
H24   H     H_    0.412340 0.332686 0.869601 0.129762
H25   H     H_    0.535989 0.574437 0.894579 0.201811
N1    N     N_2   0.498640 0.498660 0.846910 -0.347375
N2    N     N_2   0.498610 0.498630 0.153040 -0.348694
N3    N     N_3   0.170294 0.764550 0.313702 -0.604979
O1    O     O_R   0.500020 0.321960 0.617040 -0.502704
O2    O     O_R   0.499980 0.321920 0.382900 -0.503233
O3    O     O_R   0.319660 0.500030 0.617070 -0.516439
O4    O     O_R   0.319620 0.499990 0.382930 -0.468249
O5    O     O_R   0.500020 0.678080 0.617100 -0.528674
O6    O     O_R   0.499980 0.678040 0.382960 -0.505957
O7    O     O_R   0.680380 0.500010 0.617070 -0.478413
O8    O     O_R   0.680340 0.499970 0.382930 -0.518736
O9    O     O_3   0.382947 0.923232 0.575304 -0.563928

loop_
_geom_bond_atom_site_label_1
_geom_bond_atom_site_label_2
_ccdc_geom_bond_type
C12   C17   A    
C14   H2    S    
C30   H9    S    
C6    C7    A    
C16   O8    A    
C20   H5    S    
C4    O4    A    
C22   O9    S    
C19   C29   S    
C22   H11   S    
C1    C11   S    
Cu2   O8    S    
C27   H8    S    
C2    C30   A    
H4    N2    S    
H18   N3    S    
C1    O2    A    
C13   H24   S    
C17   C18   A    
C9    C15   S    
C8    H21   S    
C24   H14   S    
Cu1   O1    S    
C16   O7    A    
C13   C14   S    
C15   O6    A    
Cu1   O7    S    
C14   N2    D    
H17   N3    S    
C4    O3    A    
C26   C27   A    
C7    C26   S    
C2    H10   S    
C23   H7    S    
C23   C29   A    
Cu1   N1    S    
C18   N3    S    
C28   C29   A    
C4    C28   S    
C9    O9    S    
C2    C3    A    
H25   N1    S    
C23   C25   A    
C12   H1    S    
C5    C6    A    
C10   H22   S    
C22   C24   S    
C3    H12   S    
C10   C11   D    
Cu2   O2    S    
C24   H16   S    
Cu1   O3    S    
C27   C28   A    
C22   H13   S    
C11   H23   S    
C20   C21   A    
Cu2   O4    S    
C8    C10   S    
C18   C19   A    
C16   C25   S    
C7    C30   A    
Cu1   O5    S    
C5    H19   S    
C13   N1    D    
C17   H3    S    
Cu2   N2    S    
C6    H20   S    
C25   C26   A    
C24   H15   S    
C12   C21   A    
Cu1   Cu2   S    
C21   H6    S    
C19   C20   A    
Cu2   O6    S    
C1    O1    A    
C8    C9    D    
C3    C5    A    
C15   O5    A    
