data_mof_unit_31882.cif
_audit_creation_date              2012-12-10T17:11:26-0500
_audit_creation_method            fapswitch 2.2
_symmetry_space_group_name_H-M    P1
_symmetry_Int_Tables_number       1
_space_group_crystal_system       triclinic
_cell_length_a                    15.073334
_cell_length_b                    13.019308
_cell_length_c                    11.924846
_cell_angle_alpha                 99.439494
_cell_angle_beta                  94.487713
_cell_angle_gamma                 93.353185
_cell_volume                      2295.35829698

loop_
_atom_site_label
_atom_site_type_symbol
_atom_type_description
_atom_site_fract_x
_atom_site_fract_y
_atom_site_fract_z
_atom_type_partial_charge
C1    C     C_R   0.496749 0.300161 0.479334 0.874043
C2    C     C_R   0.596667 0.867076 0.570491 0.096439
C3    C     C_R   0.557618 0.132323 0.506168 -0.062850
C4    C     C_R   0.443387 0.866309 0.485485 -0.062462
C5    C     C_R   0.541039 0.027551 0.521574 -0.008406
C6    C     C_R   0.459244 0.971824 0.472094 -0.005572
C7    C     C_R   0.389194 0.445387 0.030764 -0.132575
C8    C     C_R   0.610453 0.554417 0.969624 -0.126768
C9    C     C_R   0.407527 0.433701 0.146602 0.102906
C10   C     C_R   0.592545 0.565931 0.853690 0.114796
C11   C     C_R   0.547089 0.530161 0.154670 0.287588
C12   C     C_R   0.503154 0.699915 0.520427 0.840001
C13   C     C_R   0.452411 0.470500 0.845358 0.291321
C14   C     C_R   0.540420 0.519967 0.031436 -0.073439
C15   C     C_R   0.459182 0.479893 0.968633 -0.071177
C16   C     C_R   0.329338 0.501413 0.500411 0.812269
C17   C     C_R   0.670817 0.496917 0.499444 0.847163
C18   C     C_R   0.821036 0.564869 0.577304 -0.224162
C19   C     C_R   0.179685 0.421285 0.439046 -0.228302
C20   C     C_R   0.767903 0.491851 0.498716 -0.047315
C21   C     C_R   0.232729 0.503263 0.504833 -0.026362
C22   C     C_R   0.807553 0.415994 0.423388 0.135014
C23   C     C_R   0.035366 0.322751 0.384742 -0.030490
C24   C     C_R   0.195515 0.576712 0.585597 0.110298
C25   C     C_R   0.900732 0.404963 0.442519 0.023041
C26   C     C_R   0.102038 0.565999 0.597856 0.021688
C27   C     C_R   0.954282 0.485502 0.517053 0.015695
C28   C     C_R   0.048025 0.487670 0.520346 0.017083
C29   C     C_R   0.913987 0.564757 0.586803 0.060372
C30   C     C_R   0.087633 0.411344 0.445515 0.044366
C31   C     C_R   0.942148 0.315889 0.391224 -0.064594
C32   C     C_R   0.059990 0.631826 0.682459 -0.067141
C33   C     C_2   0.294861 0.434946 0.981307 0.445801
C34   C     C_R   0.966666 0.637542 0.670458 -0.060046
C35   C     C_2   0.704486 0.565302 0.020010 0.441007
C36   C     C_3   0.752740 0.357351 0.317229 -0.802477
C37   C     C_3   0.254449 0.670552 0.648602 -0.766995
C38   C     C_2   0.889573 0.212929 0.360151 0.327002
C39   C     C_2   0.110717 0.684604 0.790498 0.322227
C40   C     C_2   0.078349 0.233789 0.321803 0.455573
C41   C     C_2   0.924716 0.716056 0.750760 0.527193
C42   C     C_2   0.351223 0.815667 0.468151 0.298524
C43   C     C_2   0.650921 0.178864 0.512434 0.299263
C44   C     C_3   0.678761 0.810623 0.597593 -0.781924
C45   C     C_R   0.514033 0.813026 0.527916 -0.111586
C46   C     C_3   0.319852 0.191065 0.408779 -0.864749
C47   C     C_3   0.325049 0.967430 0.322006 -0.782517
C48   C     C_3   0.674693 0.035668 0.672494 -0.788853
C49   C     C_3   0.378891 0.396803 0.776765 -0.731098
C50   C     C_3   0.618744 0.607129 0.222804 -0.717317
C51   C     C_2   0.655177 0.631061 0.801884 0.476347
C52   C     C_2   0.344641 0.369725 0.199385 0.510042
C53   C     C_R   0.485840 0.187115 0.470284 -0.112431
C54   C     C_R   0.395327 0.024414 0.412543 0.145685
C55   C     C_R   0.604398 0.976347 0.583391 0.147978
C56   C     C_R   0.402590 0.133809 0.429684 0.125977
Cu1   Cu    Cu3+1 0.506660 0.507730 0.615930 0.953347
Cu2   Cu    Cu3+1 0.493340 0.492270 0.384070 0.963263
H1    H     H_    0.788263 0.624605 0.628132 0.204823
H2    H     H_    0.316865 0.683249 0.608776 0.236849
H3    H     H_    0.833462 0.196637 0.407608 0.096062
H4    H     H_    0.154562 0.640484 0.837788 0.082221
H5    H     H_    0.076602 0.159267 0.351405 0.079658
H6    H     H_    0.934951 0.717204 0.842063 0.123095
H7    H     H_    0.297508 0.857124 0.505836 0.096436
H8    H     H_    0.702670 0.129776 0.481981 0.086928
H9    H     H_    0.734796 0.839029 0.552876 0.259678
H10   H     H_    0.698685 0.825765 0.690546 0.258281
H11   H     H_    0.669476 0.725305 0.568207 0.186599
H12   H     H_    0.211941 0.363328 0.384753 0.193884
H13   H     H_    0.265203 0.160709 0.454401 0.234673
H14   H     H_    0.330165 0.275665 0.441758 0.192153
H15   H     H_    0.297467 0.179602 0.316620 0.255446
H16   H     H_    0.317271 0.009989 0.248888 0.240819
H17   H     H_    0.345514 0.889944 0.283613 0.255719
H18   H     H_    0.259678 0.960026 0.357911 0.233517
H19   H     H_    0.678704 0.998530 0.749946 0.242558
H20   H     H_    0.741084 0.036624 0.638284 0.239317
H21   H     H_    0.657133 0.116270 0.703657 0.248590
H22   H     H_    0.393814 0.362843 0.691747 0.260560
H23   H     H_    0.266828 0.500432 0.949029 0.053311
H24   H     H_    0.367791 0.326617 0.816967 0.217588
H25   H     H_    0.316495 0.437030 0.767812 0.202929
H26   H     H_    0.605480 0.637981 0.309189 0.260368
H27   H     H_    0.683365 0.571558 0.229660 0.197600
H28   H     H_    0.625482 0.678236 0.183057 0.223042
H29   H     H_    0.629882 0.688349 0.754839 0.073638
H30   H     H_    0.368945 0.308064 0.240855 0.056152
H31   H     H_    0.733558 0.498672 0.048507 0.066715
H32   H     H_    0.793730 0.317499 0.252784 0.239910
H33   H     H_    0.702420 0.300599 0.340176 0.242835
H34   H     H_    0.718913 0.412505 0.270307 0.235904
H35   H     H_    0.219886 0.743437 0.647855 0.245318
H36   H     H_    0.274931 0.659434 0.736862 0.213568
N1    N     N_R   0.516670 0.519360 0.790130 -0.226809
N2    N     N_R   0.483330 0.480640 0.209870 -0.225008
O1    O     O_R   0.504720 0.354460 0.582000 -0.559272
O2    O     O_2   0.748119 0.649262 0.035443 -0.497302
O3    O     O_2   0.905812 0.147535 0.280097 -0.513222
O4    O     O_2   0.105223 0.777251 0.826144 -0.511120
O5    O     O_2   0.113423 0.242725 0.234732 -0.461671
O6    O     O_2   0.881664 0.782457 0.715296 -0.542582
O7    O     O_2   0.333778 0.730490 0.407911 -0.512591
O8    O     O_2   0.671531 0.269682 0.554997 -0.545351
O9    O     O_2   0.735226 0.621290 0.810975 -0.553254
O10   O     O_2   0.265787 0.386296 0.198480 -0.483416
O11   O     O_R   0.495280 0.645540 0.418000 -0.548750
O12   O     O_R   0.493480 0.341410 0.386200 -0.615255
O13   O     O_R   0.506520 0.658590 0.613800 -0.619550
O14   O     O_R   0.375880 0.506510 0.597910 -0.605429
O15   O     O_R   0.624120 0.493490 0.402090 -0.607262
O16   O     O_R   0.364640 0.493450 0.402110 -0.546626
O17   O     O_R   0.635360 0.506550 0.597890 -0.560049
O18   O     O_2   0.249587 0.352501 0.971384 -0.483934

loop_
_geom_bond_atom_site_label_1
_geom_bond_atom_site_label_2
_ccdc_geom_bond_type
C11   N2    A    
C25   C31   A    
C48   C55   S    
C26   C32   A    
C16   C21   S    
C27   C29   A    
C42   O7    D    
C39   O4    D    
C16   O14   A    
C34   C41   S    
C3    C43   S    
C33   O18   D    
C40   H5    S    
C13   N1    A    
Cu2   O16   S    
C48   H21   S    
C19   C21   A    
C24   C26   A    
C47   H18   S    
C2    C55   A    
C5    C6    A    
C11   C14   A    
C49   H24   S    
C23   C40   S    
C17   C20   S    
C41   O6    D    
Cu2   O11   S    
C32   C39   S    
C48   H20   S    
Cu2   N2    S    
C43   O8    D    
C1    C53   S    
C50   H27   S    
C40   O5    D    
Cu1   O13   S    
C2    C44   S    
C22   C25   A    
C42   H7    S    
C35   O2    D    
C46   H14   S    
C38   H3    S    
C36   H34   S    
C7    C15   A    
C52   O10   D    
C7    C33   S    
C9    C52   S    
C6    C54   A    
C10   C51   S    
C17   O15   A    
C12   O13   A    
C4    C45   A    
C2    C45   A    
C54   C56   A    
Cu2   O12   S    
C17   O17   A    
Cu2   O15   S    
C23   C30   A    
C52   H30   S    
C4    C6    A    
C51   H29   S    
C38   O3    D    
Cu1   O17   S    
C29   C34   A    
C8    C35   S    
C32   C34   A    
C48   H19   S    
Cu1   O14   S    
C51   O9    D    
Cu1   O1    S    
C24   C37   S    
C37   H35   S    
C44   H11   S    
C18   C29   A    
C9    N2    A    
C46   H13   S    
C47   C54   S    
C13   C49   S    
C35   H31   S    
C36   H33   S    
C20   C22   A    
C13   C15   A    
C44   H10   S    
C1    O1    A    
C16   O16   A    
C53   C56   A    
C36   H32   S    
C7    C9    A    
C39   H4    S    
C8    C14   A    
C5    C55   A    
C47   H16   S    
C12   C45   S    
C3    C5    A    
C12   O11   A    
C49   H22   S    
C25   C27   A    
C22   C36   S    
C26   C28   A    
C31   C38   S    
C49   H25   S    
C28   C30   A    
C47   H17   S    
C11   C50   S    
C3    C53   A    
Cu1   Cu2   S    
C4    C42   S    
C10   N1    A    
C43   H8    S    
C37   H36   S    
C50   H26   S    
C18   C20   A    
C37   H2    S    
C50   H28   S    
C1    O12   A    
C18   H1    S    
C8    C10   A    
Cu1   N1    S    
C21   C24   A    
C46   C56   S    
C27   C28   A    
C14   C15   A    
C44   H9    S    
C41   H6    S    
C19   H12   S    
C19   C30   A    
C33   H23   S    
C46   H15   S    
C23   C31   A    
