data_mof_unit_57383.cif
_audit_creation_date              2012-12-10T18:03:58-0500
_audit_creation_method            fapswitch 2.2
_symmetry_space_group_name_H-M    P1
_symmetry_Int_Tables_number       1
_space_group_crystal_system       triclinic
_cell_length_a                    10.865247
_cell_length_b                    9.516297
_cell_length_c                    10.871334
_cell_angle_alpha                 90.000662
_cell_angle_beta                  90.267044
_cell_angle_gamma                 90.000036
_cell_volume                      1124.05021488

loop_
_atom_site_label
_atom_site_type_symbol
_atom_type_description
_atom_site_fract_x
_atom_site_fract_y
_atom_site_fract_z
_atom_type_partial_charge
C1    C     C_R   0.262062 0.499434 0.492831 0.873710
C2    C     C_R   0.737938 0.499429 0.507167 0.873648
C3    C     C_R   0.455392 0.074177 0.401552 0.072676
C4    C     C_R   0.544630 0.074180 0.598441 0.072622
C5    C     C_R   0.453458 0.925635 0.402446 -0.002518
C6    C     C_R   0.546554 0.925637 0.597549 -0.002660
C7    C     C_R   0.499444 0.499832 0.262605 0.820160
C8    C     C_R   0.500550 0.499833 0.737395 0.820039
C9    C     C_R   0.499123 0.621184 0.061924 0.135769
C10   C     C_R   0.500929 0.621183 0.938079 0.135777
C11   C     C_R   0.499030 0.497992 0.130030 -0.089821
C12   C     C_R   0.500941 0.497992 0.869969 -0.089911
C13   C     C_R   0.499508 0.369788 0.064543 -0.189142
C14   C     C_R   0.500358 0.369788 0.935454 -0.189183
C15   C     C_3   0.501612 0.777373 0.929258 -0.471142
C16   C     C_3   0.498602 0.777376 0.070746 -0.471068
C17   C     C_R   0.061581 0.369142 0.481848 0.350461
C18   C     C_R   0.938421 0.369102 0.517941 0.350229
C19   C     C_R   0.872366 0.497227 0.512578 -0.211461
C20   C     C_R   0.127636 0.497251 0.487413 -0.211381
C21   C     C_R   0.936409 0.624446 0.502556 -0.204570
C22   C     C_R   0.063594 0.624451 0.497626 -0.204567
Cu1   Cu    Cu3+1 0.500000 0.640660 0.500000 0.973144
Cu2   Cu    Cu3+1 0.500000 0.359340 0.500000 1.053478
H1    H     H_    0.499286 0.269875 0.112256 0.162595
H2    H     H_    0.500504 0.269875 0.887738 0.162667
H3    H     H_    0.589397 0.818316 0.891452 0.195095
H4    H     H_    0.410860 0.818439 0.108552 0.195075
H5    H     H_    0.416316 0.819322 0.885965 0.210646
H6    H     H_    0.583941 0.819210 0.114040 0.210686
H7    H     H_    0.888637 0.724369 0.501808 0.216578
H8    H     H_    0.111367 0.724371 0.498534 0.216577
H9    H     H_    0.419952 0.129344 0.322279 0.132807
H10   H     H_    0.580101 0.129347 0.677706 0.133497
H11   H     H_    0.414516 0.870112 0.324969 0.119330
H12   H     H_    0.585503 0.870115 0.675023 0.119350
N1    N     N_R   0.500000 0.852070 0.500000 -0.168190
N2    N     N_R   0.500000 0.147940 0.500000 -0.156892
O1    O     O_R   0.319640 0.618740 0.499990 -0.594659
O2    O     O_R   0.680360 0.618740 0.500010 -0.594673
O3    O     O_R   0.319620 0.381170 0.499990 -0.508997
O4    O     O_R   0.680380 0.381170 0.500010 -0.508739
O5    O     O_R   0.499990 0.618810 0.319660 -0.597854
O6    O     O_R   0.500010 0.618810 0.680340 -0.597872
O7    O     O_R   0.499960 0.381240 0.319650 -0.589333
O8    O     O_R   0.500040 0.381240 0.680350 -0.589290
S1    S     S_3+6 0.120713 0.218189 0.405085 0.042052
O9    O     O_2   0.192643 0.128913 0.493903 -0.255811
O10   O     O_2   0.017087 0.132501 0.351958 -0.253184
O11   O     O_3   0.212624 0.270049 0.289453 -0.568433
H13   H     H_    0.216267 0.188845 0.232638 0.354098
S2    S     S_3+6 0.879285 0.217952 0.594412 0.041993
O12   O     O_2   0.807375 0.128868 0.505427 -0.255303
O13   O     O_2   0.982920 0.132154 0.647383 -0.253705
O14   O     O_3   0.787329 0.269509 0.710119 -0.568583
H14   H     H_    0.784789 0.188698 0.767515 0.354187

loop_
_geom_bond_atom_site_label_1
_geom_bond_atom_site_label_2
_ccdc_geom_bond_type
C16   H4    S    
Cu2   N2    S    
O14   H14   S    
C6    H12   S    
C2    O2    A    
C7    O5    A    
C11   C13   A    
C9    C10   A    
C15   H3    S    
S1    O9    D    
S2    O14   S    
C8    C12   S    
Cu2   O8    S    
C3    C5    A    
C17   C18   A    
C12   C14   A    
C6    N1    A    
C18   S2    S    
S1    O10   D    
C21   C22   A    
C14   H2    S    
C7    C11   S    
Cu2   O3    S    
C21   H7    S    
C13   H1    S    
C22   H8    S    
C2    O4    A    
Cu1   O1    S    
Cu2   O7    S    
C10   C12   A    
C1    O3    A    
C19   C21   A    
C9    C16   S    
S2    O13   D    
C15   H5    S    
S1    O11   S    
C4    H10   S    
C10   C15   S    
C9    C11   A    
C8    O8    A    
C15   C16   S    
C3    H9    S    
Cu1   Cu2   S    
C16   H6    S    
Cu1   O2    S    
C5    H11   S    
C17   C20   A    
Cu2   O4    S    
S2    O12   D    
C3    N2    A    
C4    C6    A    
C18   C19   A    
C4    N2    A    
C1    O1    A    
C5    N1    A    
C1    C20   S    
C13   C14   A    
O11   H13   S    
C2    C19   S    
Cu1   N1    S    
Cu1   O5    S    
Cu1   O6    S    
C8    O6    A    
C17   S1    S    
C20   C22   A    
C7    O7    A    
