data_mof_unit_20212.cif
_audit_creation_date              2012-12-10T18:14:22-0500
_audit_creation_method            fapswitch 2.2
_symmetry_space_group_name_H-M    P1
_symmetry_Int_Tables_number       1
_space_group_crystal_system       triclinic
_cell_length_a                    12.667075
_cell_length_b                    13.219113
_cell_length_c                    19.237085
_cell_angle_alpha                 91.196465
_cell_angle_beta                  102.058205
_cell_angle_gamma                 82.27315
_cell_volume                      3121.44020677

loop_
_atom_site_label
_atom_site_type_symbol
_atom_type_description
_atom_site_fract_x
_atom_site_fract_y
_atom_site_fract_z
_atom_type_partial_charge
C1    C     C_R   0.439128 0.690977 0.491575 0.877306
C2    C     C_R   0.500509 0.496363 0.710256 -0.297265
C3    C     C_R   0.510919 0.494626 0.071579 0.275637
C4    C     C_R   0.498308 0.504850 0.930521 0.351590
C5    C     C_R   0.441088 0.439623 0.172256 -0.195354
C6    C     C_R   0.434043 0.445838 0.243243 -0.220732
C7    C     C_R   0.500757 0.504481 0.290163 -0.251019
C8    C     C_R   0.575879 0.557546 0.264941 0.433616
C9    C     C_R   0.587875 0.545648 0.194959 0.453758
C10   C     C_R   0.516294 0.490416 0.147589 -0.120849
C11   C     C_R   0.719911 0.054255 0.495220 -0.230654
C12   C     C_R   0.500849 0.497988 0.634205 0.888655
C13   C     C_R   0.600097 0.199399 0.524387 -0.272806
C14   C     C_R   0.316933 0.827959 0.532827 -0.428570
C15   C     C_R   0.315358 0.916162 0.574353 0.475386
C16   C     C_R   0.399668 0.976130 0.579674 0.522898
C17   C     C_R   0.472288 0.960745 0.531352 -0.110698
C18   C     C_R   0.474716 0.869811 0.491693 0.033009
C19   C     C_R   0.545779 0.029615 0.522814 0.051491
C20   C     C_R   0.636630 0.994431 0.492526 0.053604
C21   C     C_R   0.639825 0.902718 0.456018 -0.178091
C22   C     C_R   0.554133 0.846427 0.450089 -0.098014
C23   C     C_R   0.561247 0.309016 0.512137 0.875951
C24   C     C_R   0.524707 0.134468 0.535044 0.326331
C25   C     C_R   0.705572 0.156620 0.515892 0.188999
C26   C     C_R   0.403284 0.799690 0.498395 -0.139968
C27   C     C_R   0.077226 0.408703 0.370729 -0.234330
C28   C     C_R   0.797165 0.626783 0.587170 0.438568
C29   C     C_R   0.897519 0.666246 0.600365 0.245890
C30   C     C_R   0.981464 0.621581 0.567570 0.177695
C31   C     C_R   0.960781 0.543981 0.515784 -0.170649
C32   C     C_R   0.854011 0.515277 0.498441 -0.018291
C33   C     C_R   0.039404 0.496299 0.477657 0.006039
C34   C     C_R   0.499164 0.502269 0.365880 0.881303
C35   C     C_R   0.002978 0.449182 0.411470 -0.055305
C36   C     C_R   0.894678 0.433058 0.390447 0.089763
C37   C     C_R   0.828541 0.448632 0.440325 0.515793
C38   C     C_R   0.152808 0.490388 0.502705 -0.046497
C39   C     C_R   0.186684 0.402985 0.398518 0.586782
C40   C     C_R   0.422711 0.448602 0.736456 0.417762
C41   C     C_R   0.414888 0.460226 0.807205 0.384250
C42   C     C_R   0.492829 0.509417 0.854373 -0.187155
C43   C     C_R   0.572038 0.554826 0.829222 0.459536
C44   C     C_R   0.574100 0.549066 0.756871 -0.343685
H1    H     H_    0.704854 0.877860 0.428255 0.153841
H2    H     H_    0.793796 0.020965 0.479105 0.162908
H3    H     H_    0.259898 0.774827 0.535762 0.186275
H4    H     H_    0.553267 0.781258 0.415398 0.127066
H5    H     H_    0.052312 0.375238 0.319174 0.188814
H6    H     H_    0.188664 0.518444 0.553562 0.201272
H7    H     H_    0.633381 0.585953 0.737058 0.203623
H8    H     H_    0.386004 0.396952 0.136162 0.189508
H9    H     H_    0.376858 0.404197 0.261478 0.226498
N1    N     N_R   0.509101 0.589559 0.970671 -0.086687
N2    N     N_R   0.514990 0.584510 0.040186 -0.129479
N3    N     N_R   0.499172 0.410043 0.031361 -0.152706
N4    N     N_R   0.493488 0.415051 0.961818 -0.143915
N5    N     N_R   0.222200 0.444680 0.463280 -0.168402
N6    N     N_R   0.776960 0.554780 0.536340 -0.128869
O1    O     O_R   0.366740 0.627160 0.482470 -0.614879
O2    O     O_R   0.544830 0.662520 0.505920 -0.569558
O3    O     O_R   0.410920 0.482320 0.590130 -0.619716
O4    O     O_R   0.589010 0.517690 0.613590 -0.555864
O5    O     O_R   0.455170 0.337480 0.494080 -0.612516
O6    O     O_R   0.633260 0.372840 0.517530 -0.549198
O7    O     O_R   0.410990 0.482310 0.386410 -0.601396
O8    O     O_R   0.589080 0.517680 0.409870 -0.555752
Zn1   Zn    Zn3+2 0.381090 0.476390 0.484340 0.976222
Zn2   Zn    Zn3+2 0.618910 0.523610 0.515660 1.031193
O9    O     O_3   0.352451 0.390106 0.694583 -0.679807
H10   H     H_    0.394564 0.347437 0.664297 0.331179
O10   O     O_3   0.424166 0.173939 0.547736 -0.702291
H11   H     H_    0.436706 0.226386 0.584983 0.341418
O11   O     O_3   0.415893 0.039429 0.637849 -0.669801
H12   H     H_    0.494409 0.046894 0.650727 0.321658
O12   O     O_3   0.240073 0.938960 0.616853 -0.691537
H13   H     H_    0.186929 0.889098 0.607594 0.326455
O13   O     O_3   0.256589 0.355156 0.358659 -0.777819
H14   H     H_    0.324579 0.328452 0.391550 0.380050
N7    N     N_2   0.852607 0.395156 0.321409 -0.300546
H15   H     H_    0.863987 0.437713 0.279881 0.263812
C45   C     C_3   0.871610 0.285587 0.311209 -0.815683
H16   H     H_    0.920047 0.267773 0.269515 0.248987
H17   H     H_    0.792262 0.256437 0.293321 0.256460
H18   H     H_    0.916052 0.245090 0.360928 0.249814
O14   O     O_3   0.331428 0.419911 0.828510 -0.677387
H19   H     H_    0.314770 0.456764 0.871072 0.333988
O15   O     O_3   0.715897 0.662480 0.622619 -0.730054
H20   H     H_    0.749578 0.685692 0.670422 0.317660
N8    N     N_2   0.078938 0.667694 0.577695 -0.313076
H21   H     H_    0.066348 0.741985 0.559319 0.241613
C46   C     C_3   0.148257 0.655556 0.648097 -0.684133
H22   H     H_    0.230327 0.674449 0.645978 0.221851
H23   H     H_    0.157306 0.575452 0.667245 0.263053
H24   H     H_    0.114743 0.707586 0.686508 0.290290
O16   O     O_3   0.914218 0.751531 0.641869 -0.769729
H25   H     H_    0.843421 0.794803 0.639807 0.346003
O17   O     O_3   0.745469 0.391716 0.436372 -0.698505
H26   H     H_    0.741732 0.342366 0.396986 0.350697
O18   O     O_3   0.647920 0.602102 0.876404 -0.722908
H27   H     H_    0.697743 0.629187 0.850125 0.340725
O19   O     O_3   0.639397 0.621497 0.307026 -0.707802
H28   H     H_    0.594412 0.659206 0.337825 0.313986
O20   O     O_3   0.668799 0.591213 0.174630 -0.702026
H29   H     H_    0.690154 0.554117 0.133399 0.337937
N9    N     N_2   0.792873 0.217617 0.525986 -0.255569
H30   H     H_    0.798339 0.262209 0.570909 0.253770
C47   C     C_3   0.898227 0.175198 0.512656 -0.731929
H31   H     H_    0.952592 0.235575 0.519535 0.247369
H32   H     H_    0.889973 0.147514 0.457196 0.230504
H33   H     H_    0.935939 0.112060 0.550770 0.251361

loop_
_geom_bond_atom_site_label_1
_geom_bond_atom_site_label_2
_ccdc_geom_bond_type
O7    Zn1   S    
C41   C42   A    
C22   H4    S    
C35   C36   A    
C18   C26   A    
C30   N8    S    
C2    C12   S    
C34   O7    A    
C7    C8    A    
N3    N4    A    
C41   O14   S    
C40   O9    S    
C16   O11   S    
O5    Zn1   S    
C28   C29   A    
C5    C6    A    
N7    H15   S    
N9    H30   S    
C11   C25   A    
C15   C16   A    
C47   H31   S    
C13   C23   S    
O20   H29   S    
C33   C35   A    
C38   N5    A    
C3    N2    A    
O4    Zn2   S    
C2    C44   A    
C16   C17   A    
C4    N4    A    
C28   O15   S    
C31   C33   A    
C5    H8    S    
O9    H10   S    
C9    C10   A    
N9    C47   S    
C15   O12   S    
C21   C22   A    
C13   C25   A    
C37   O17   S    
C25   N9    S    
C21   H1    S    
C11   C20   A    
O11   H12   S    
C39   O13   S    
C43   O18   S    
N7    C45   S    
C36   N7    S    
C1    O1    A    
C27   C39   A    
C12   O4    A    
O13   H14   S    
C8    C9    A    
C27   C35   A    
C39   N5    A    
C46   H24   S    
C14   C26   A    
C13   C24   A    
O8    Zn2   S    
C43   C44   A    
C29   C30   A    
C12   O3    A    
C3    N3    A    
N8    C46   S    
C31   C32   A    
O16   H25   S    
C20   C21   A    
C46   H23   S    
C17   C18   A    
C32   C37   A    
O12   H13   S    
C6    C7    A    
O14   H19   S    
N6    Zn2   S    
C44   H7    S    
N5    Zn1   S    
C23   O5    A    
O17   H26   S    
C45   H17   S    
C1    C26   S    
C7    C34   S    
C42   C43   A    
C6    H9    S    
C24   O10   S    
C28   N6    A    
O2    Zn2   S    
N1    N2    A    
C40   C41   A    
C4    N1    A    
C18   C22   A    
O10   H11   S    
C1    O2    A    
C34   O8    A    
C29   O16   S    
C14   H3    S    
C38   H6    S    
C45   H18   S    
C33   C38   A    
C47   H33   S    
O3    Zn1   S    
C23   O6    A    
C19   C20   A    
C19   C24   A    
C5    C10   A    
C3    C10   S    
N8    H21   S    
C30   C31   A    
C4    C42   S    
C9    O20   S    
O6    Zn2   S    
C46   H22   S    
C17   C19   A    
C47   H32   S    
O19   H28   S    
C2    C40   A    
O15   H20   S    
O1    Zn1   S    
C36   C37   A    
C45   H16   S    
C14   C15   A    
C11   H2    S    
O18   H27   S    
C32   N6    A    
C8    O19   S    
C27   H5    S    
