data_mof_unit_55754.cif
_audit_creation_date              2012-12-10T16:54:56-0500
_audit_creation_method            fapswitch 2.2
_symmetry_space_group_name_H-M    P1
_symmetry_Int_Tables_number       1
_space_group_crystal_system       triclinic
_cell_length_a                    7.856443
_cell_length_b                    8.570653
_cell_length_c                    15.745649
_cell_angle_alpha                 92.08872
_cell_angle_beta                  85.707438
_cell_angle_gamma                 93.968067
_cell_volume                      1054.20117919

loop_
_atom_site_label
_atom_site_type_symbol
_atom_type_description
_atom_site_fract_x
_atom_site_fract_y
_atom_site_fract_z
_atom_type_partial_charge
C1    C     C_R   0.545611 0.794381 0.497836 0.951266
C2    C     C_3   0.335578 0.593153 0.055857 -0.028459
C3    C     C_3   0.489687 0.501486 0.083973 0.175105
C4    C     C_3   0.488095 0.325234 0.045603 0.335108
C5    C     C_3   0.460394 0.333133 0.947925 -0.013734
C6    C     C_1   0.487747 0.497758 0.175586 -0.015911
C7    C     C_1   0.507346 0.507601 0.824772 0.025129
C8    C     C_1   0.507555 0.506199 0.749546 -0.200986
C9    C     C_2   0.569226 0.958262 0.496437 -0.384467
C10   C     C_2   0.430776 0.041715 0.503156 -0.381199
C11   C     C_R   0.502254 0.502247 0.661153 0.883352
C12   C     C_R   0.454385 0.205613 0.502013 0.953898
C13   C     C_R   0.497647 0.497673 0.338863 0.899088
C14   C     C_3   0.355007 0.610047 0.956883 0.025892
C15   C     C_3   0.676111 0.570956 0.949346 -0.037117
C16   C     C_3   0.660655 0.596702 0.049034 -0.083185
C17   C     C_1   0.491572 0.496024 0.250563 -0.222194
C18   C     C_3   0.499403 0.506001 0.916565 0.085524
H1    H     H_    0.353631 0.713783 0.083967 0.179147
H2    H     H_    0.699885 0.009636 0.489919 0.170828
H3    H     H_    0.300110 0.990332 0.509593 0.172187
H4    H     H_    0.406415 0.732599 0.949920 0.129108
H5    H     H_    0.761470 0.474863 0.937024 0.117896
H6    H     H_    0.772487 0.546733 0.074685 0.150657
H7    H     H_    0.323198 0.302397 0.942103 0.187830
N1    N     N_2   0.950340 0.457950 0.477370 0.035803
N2    N     N_2   0.049660 0.542050 0.522630 -0.003154
O1    O     O_R   0.389240 0.738570 0.505550 -0.616168
O2    O     O_R   0.678400 0.711630 0.491050 -0.645254
O3    O     O_R   0.355360 0.513470 0.630110 -0.613422
O4    O     O_R   0.644510 0.486530 0.615610 -0.626660
O5    O     O_R   0.321600 0.288370 0.508950 -0.612292
O6    O     O_R   0.610760 0.261430 0.494450 -0.624118
O7    O     O_R   0.355490 0.513470 0.384390 -0.596677
O8    O     O_R   0.644640 0.486530 0.369890 -0.617831
Zn1   Zn    Zn3+2 0.306930 0.517990 0.509680 0.964377
Zn2   Zn    Zn3+2 0.693070 0.482010 0.490320 0.937859
N3    N     N_2   0.193808 0.604071 0.914187 -0.292187
H8    H     H_    0.187689 0.697630 0.875251 0.214824
C19   C     C_3   0.112254 0.461826 0.877922 -0.804457
H9    H     H_    0.001620 0.491813 0.843425 0.239023
H10   H     H_    0.063019 0.378782 0.927343 0.220643
H11   H     H_    0.197342 0.403871 0.829623 0.244625
C20   C     C_3   0.153886 0.543382 0.093657 -0.901403
H12   H     H_    0.091016 0.446214 0.058080 0.250080
H13   H     H_    0.154536 0.511861 0.161329 0.247209
H14   H     H_    0.071374 0.643228 0.091620 0.239116
C21   C     C_3   0.656830 0.246900 0.061929 -0.895450
H15   H     H_    0.648569 0.120910 0.042398 0.261630
H16   H     H_    0.772975 0.297728 0.026844 0.197853
H17   H     H_    0.679667 0.253592 0.130768 0.237549
N4    N     N_2   0.013476 0.318301 0.449472 -0.175908
H18   H     H_    0.970473 0.228356 0.489001 0.210382
C22   C     C_3   0.984843 0.279963 0.361482 -0.688899
H19   H     H_    0.053663 0.174825 0.340473 0.198112
H20   H     H_    0.034503 0.378400 0.320589 0.235797
H21   H     H_    0.846309 0.254177 0.353844 0.237565
C23   C     C_3   0.996178 0.691642 0.554728 -0.524259
H22   H     H_    0.096021 0.746851 0.594354 0.179472
H23   H     H_    0.984570 0.770068 0.501193 0.187745
H24   H     H_    0.878545 0.678803 0.597407 0.216334
N5    N     N_2   0.768378 0.699177 0.901936 -0.296211
H25   H     H_    0.891286 0.724434 0.919291 0.237417
C24   C     C_3   0.688335 0.836072 0.877188 -0.793529
H26   H     H_    0.785480 0.913849 0.841607 0.230776
H27   H     H_    0.636871 0.903701 0.933388 0.257329
H28   H     H_    0.586319 0.803894 0.833843 0.246709
N6    N     N_2   0.671180 0.764414 0.073589 -0.301813
H29   H     H_    0.776377 0.823331 0.043819 0.250638
C25   C     C_3   0.666868 0.810302 0.163246 -0.825436
H30   H     H_    0.712909 0.935343 0.170575 0.232607
H31   H     H_    0.751423 0.739325 0.197469 0.251532
H32   H     H_    0.533943 0.801218 0.192413 0.254733
N7    N     N_2   0.554470 0.217765 0.895949 -0.292881
H33   H     H_    0.679336 0.250026 0.875842 0.236501
C26   C     C_3   0.460054 0.126602 0.833346 -0.840422
H34   H     H_    0.549386 0.063629 0.788686 0.243701
H35   H     H_    0.389378 0.202533 0.794915 0.241216
H36   H     H_    0.367889 0.040382 0.866047 0.243569
C27   C     C_3   0.344037 0.213312 0.088618 -0.874692
H37   H     H_    0.213953 0.243040 0.077790 0.219712
H38   H     H_    0.353382 0.092146 0.061698 0.240715
H39   H     H_    0.354586 0.208485 0.158389 0.245206

loop_
_geom_bond_atom_site_label_1
_geom_bond_atom_site_label_2
_ccdc_geom_bond_type
C15   C18   S    
C14   C18   S    
C26   H36   S    
C3    C6    S    
C7    C8    T    
C20   H12   S    
N1    N2    D    
N7    C26   S    
O5    Zn1   S    
O8    Zn2   S    
C26   H35   S    
C13   O8    A    
N3    H8    S    
C27   H37   S    
C23   H23   S    
C15   C16   S    
C5    N7    S    
N5    C24   S    
C21   H17   S    
C11   O3    A    
C2    C20   S    
N6    H29   S    
C1    O1    A    
C25   H30   S    
C16   N6    S    
C9    C10   D    
C20   H14   S    
C23   H24   S    
C15   H5    S    
C11   O4    A    
C16   H6    S    
C12   O5    A    
C27   H39   S    
N4    C22   S    
C19   H11   S    
C10   H3    S    
C22   H20   S    
N7    H33   S    
C24   H28   S    
C1    C9    S    
C26   H34   S    
C27   H38   S    
C4    C5    S    
C5    C18   S    
C20   H13   S    
C23   H22   S    
O6    Zn2   S    
O4    Zn2   S    
C24   H27   S    
N5    H25   S    
N1    N4    S    
C14   N3    S    
C9    H2    S    
C7    C18   S    
C25   H32   S    
C1    O2    A    
C10   C12   S    
C5    H7    S    
C21   H15   S    
C3    C4    S    
N4    H18   S    
C4    C21   S    
C6    C17   T    
C22   H19   S    
C19   H9    S    
C2    H1    S    
C19   H10   S    
N2    C23   S    
N1    Zn2   S    
C4    C27   S    
C13   C17   S    
N2    Zn1   S    
O3    Zn1   S    
C24   H26   S    
C14   H4    S    
C2    C3    S    
C13   O7    A    
N3    C19   S    
C8    C11   S    
C21   H16   S    
C15   N5    S    
O7    Zn1   S    
C2    C14   S    
O1    Zn1   S    
N6    C25   S    
O2    Zn2   S    
C25   H31   S    
C12   O6    A    
C3    C16   S    
C22   H21   S    
