data_mof_unit_56519.cif
_audit_creation_date              2012-12-11T15:15:45-0500
_audit_creation_method            fapswitch 2.2
_symmetry_space_group_name_H-M    P1
_symmetry_Int_Tables_number       1
_space_group_crystal_system       triclinic
_cell_length_a                    20.61388
_cell_length_b                    22.699623
_cell_length_c                    6.934145
_cell_angle_alpha                 90.034601
_cell_angle_beta                  85.944824
_cell_angle_gamma                 90.028612
_cell_volume                      3236.55151871

loop_
_atom_site_label
_atom_site_type_symbol
_atom_type_description
_atom_site_fract_x
_atom_site_fract_y
_atom_site_fract_z
_atom_type_partial_charge
O1    O     O_R   0.387100 0.552640 0.378490 -0.543191
O2    O     O_R   0.612900 0.052640 0.621510 -0.543311
O3    O     O_R   0.249610 0.559600 0.072250 -0.542470
O4    O     O_R   0.750390 0.059600 0.927750 -0.536715
O5    O     O_R   0.249120 0.447360 0.902040 -0.542677
O6    O     O_R   0.750880 0.947360 0.097960 -0.536888
C1    C     C_R   0.227064 0.573572 0.245560 0.711903
C2    C     C_R   0.772892 0.073750 0.754565 0.713815
O7    O     O_R   0.386610 0.559560 0.048860 -0.544955
O8    O     O_R   0.613390 0.059560 0.951140 -0.545631
O9    O     O_R   0.387100 0.447320 0.878470 -0.538617
O10   O     O_R   0.612900 0.947320 0.121530 -0.541376
C3    C     C_R   0.408143 0.574876 0.211960 0.678392
C4    C     C_R   0.591892 0.074917 0.788128 0.677461
O11   O     O_R   0.249120 0.552680 0.402050 -0.527898
O12   O     O_R   0.750880 0.052680 0.597950 -0.538302
O13   O     O_3   0.318110 0.463180 0.223790 -0.369476
O14   O     O_3   0.681890 0.963180 0.776210 -0.366359
V1    V     V_3+5 0.318110 0.506830 0.948930 1.458110
V2    V     V_3+5 0.681890 0.006830 0.051070 1.463439
O15   O     O_R   0.386610 0.440400 0.548840 -0.536283
O16   O     O_R   0.613390 0.940400 0.451160 -0.531812
C5    C     C_R   0.408578 0.425590 0.712030 0.707838
C6    C     C_R   0.591403 0.925626 0.287918 0.706684
O17   O     O_R   0.249610 0.440440 0.572240 -0.526760
O18   O     O_R   0.750390 0.940440 0.427760 -0.530230
C7    C     C_R   0.226745 0.427324 0.745249 0.763400
C8    C     C_R   0.773490 0.927560 0.254535 0.757988
V3    V     V_3+5 0.318110 0.493170 0.448930 1.493159
V4    V     V_3+5 0.681890 0.993170 0.551070 1.494609
O19   O     O_3   0.318110 0.536820 0.723940 -0.372272
O20   O     O_3   0.681890 0.036820 0.276060 -0.375114
C9    C     C_R   0.167049 0.391603 0.764115 -0.188255
C10   C     C_R   0.832046 0.890282 0.233492 -0.187056
C11   C     C_R   0.170094 0.329629 0.742645 -0.124928
C12   C     C_R   0.830239 0.831057 0.297906 -0.116851
C13   C     C_R   0.112488 0.296550 0.755668 -0.117443
C14   C     C_R   0.886913 0.796761 0.277817 -0.108605
C15   C     C_R   0.051875 0.323854 0.792879 0.061397
C16   C     C_R   0.945236 0.819931 0.192759 0.066053
C17   C     C_R   0.049141 0.385177 0.813262 -0.097146
C18   C     C_R   0.946669 0.878558 0.129921 -0.100294
C19   C     C_R   0.105641 0.419700 0.796641 -0.016638
C20   C     C_R   0.891294 0.914295 0.150973 -0.013150
C21   C     C_R   0.907144 0.176602 0.886737 -0.093267
C22   C     C_R   0.086077 0.668750 0.119286 -0.083871
C23   C     C_R   0.855882 0.136531 0.901997 -0.175145
C24   C     C_R   0.137051 0.628448 0.104519 -0.176451
C25   C     C_R   0.849429 0.139431 0.554675 -0.135340
C26   C     C_R   0.157203 0.645984 0.439637 -0.125808
C27   C     C_R   0.899979 0.180699 0.540137 -0.099661
C28   C     C_R   0.107086 0.687654 0.452782 -0.114949
C29   C     C_R   0.928256 0.200504 0.706492 0.186848
C30   C     C_R   0.072295 0.700477 0.291172 0.187696
C31   C     C_2   0.990824 0.288547 0.812632 -0.040528
C32   C     C_2   0.005074 0.783027 0.166980 -0.034461
C33   C     C_2   0.982421 0.243519 0.688193 -0.244958
C34   C     C_2   0.019281 0.744673 0.308018 -0.240821
C35   C     C_R   0.826533 0.117197 0.736296 -0.057755
C36   C     C_R   0.173241 0.616587 0.264116 -0.044198
H1    H     H_    0.839794 0.120301 0.044028 0.163617
H2    H     H_    0.147708 0.606183 0.968106 0.158928
H3    H     H_    0.828099 0.125284 0.424081 0.145366
H4    H     H_    0.183943 0.637488 0.565670 0.143361
H5    H     H_    0.017796 0.237380 0.565975 0.150811
H6    H     H_    0.990010 0.745416 0.444689 0.165931
H7    H     H_    0.002133 0.406360 0.836319 0.165237
H8    H     H_    0.992073 0.897201 0.069621 0.160958
H9    H     H_    0.930255 0.188905 0.016268 0.108407
H10   H     H_    0.057650 0.675193 0.995591 0.106098
H11   H     H_    0.115126 0.249020 0.742103 0.142816
H12   H     H_    0.884928 0.751117 0.323639 0.142806
H13   H     H_    0.916645 0.197623 0.399188 0.121217
H14   H     H_    0.095984 0.710430 0.588458 0.134253
C37   C     C_R   0.566640 0.354074 0.541191 -0.082137
C38   C     C_R   0.432937 0.854337 0.456191 -0.084855
H15   H     H_    0.525638 0.440338 0.524234 0.121979
H16   H     H_    0.473841 0.940717 0.472316 0.122094
H17   H     H_    0.608253 0.366369 0.445555 0.167032
H18   H     H_    0.391032 0.866794 0.550393 0.167321
C39   C     C_R   0.463003 0.382649 0.700069 -0.060954
C40   C     C_R   0.537012 0.882664 0.299598 -0.057064
C41   C     C_R   0.485572 0.103825 0.935391 -0.201209
C42   C     C_R   0.514817 0.603574 0.066507 -0.200698
C43   C     C_R   0.446766 0.146734 0.030408 -0.037034
C44   C     C_R   0.554112 0.646373 0.972652 -0.037610
C45   C     C_R   0.456334 0.206948 0.982548 -0.064946
C46   C     C_R   0.544452 0.706611 0.020042 -0.066697
C47   C     C_R   0.500522 0.222823 0.821738 0.010308
C48   C     C_R   0.499820 0.722641 0.179510 0.010583
C49   C     C_R   0.544846 0.178455 0.744618 0.007463
C50   C     C_R   0.455198 0.678395 0.255656 0.007934
C51   C     C_R   0.505013 0.281499 0.741434 0.031503
C52   C     C_R   0.495167 0.781412 0.259058 0.032074
C53   C     C_R   0.559211 0.296135 0.611642 0.045328
C54   C     C_R   0.440574 0.796259 0.386998 0.045049
C55   C     C_R   0.604076 0.252455 0.546985 0.443018
C56   C     C_R   0.395504 0.752659 0.451043 0.441969
C57   C     C_R   0.596574 0.194677 0.613302 -0.275702
C58   C     C_R   0.403131 0.694783 0.385549 -0.276469
C59   C     C_R   0.455508 0.325147 0.774021 -0.111664
C60   C     C_R   0.544822 0.824989 0.227362 -0.098998
C61   C     C_R   0.519445 0.396703 0.586187 -0.150556
C62   C     C_R   0.480235 0.896932 0.411549 -0.153918
C63   C     C_R   0.538007 0.118910 0.806293 -0.079651
C64   C     C_R   0.462085 0.618816 0.194295 -0.079827
H19   H     H_    0.408697 0.314322 0.843062 0.155133
H20   H     H_    0.591951 0.814025 0.160445 0.135803
H21   H     H_    0.480398 0.058331 0.982280 0.136596
H22   H     H_    0.520013 0.558038 0.019971 0.137267
H23   H     H_    0.632026 0.162459 0.559354 0.141486
H24   H     H_    0.367489 0.662637 0.438905 0.140220
C65   C     C_2   0.232751 0.298001 0.705646 0.806982
O21   O     O_2   0.238609 0.261810 0.575266 -0.510950
O22   O     O_R   0.284889 0.307452 0.820050 -0.651354
H25   H     H_    0.273076 0.332736 0.937645 0.258898
C66   C     C_2   0.769883 0.803302 0.385774 0.817906
O23   O     O_2   0.772296 0.773995 0.532664 -0.514644
O24   O     O_R   0.710490 0.808422 0.301689 -0.650242
H26   H     H_    0.714780 0.826976 0.168618 0.247398
O25   O     O_3   0.656478 0.266367 0.419158 -0.552511
C67   C     C_3   0.642444 0.248066 0.231977 -0.221576
H27   H     H_    0.683191 0.261633 0.128433 0.174038
H28   H     H_    0.597481 0.269440 0.185718 0.166892
H29   H     H_    0.638115 0.199294 0.222860 0.132298
O26   O     O_3   0.342812 0.766731 0.577545 -0.554399
C68   C     C_3   0.356397 0.748784 0.765380 -0.223906
H30   H     H_    0.315502 0.762615 0.867979 0.176161
H31   H     H_    0.401331 0.770167 0.812121 0.166837
H32   H     H_    0.360529 0.700022 0.775390 0.132952
C69   C     C_2   0.427008 0.251920 0.117714 0.783380
O27   O     O_2   0.461731 0.288598 0.188647 -0.568407
O28   O     O_R   0.359816 0.252446 0.163021 -0.620735
H33   H     H_    0.345813 0.285305 0.255933 0.323959
C70   C     C_2   0.574081 0.751527 0.885570 0.777614
O29   O     O_2   0.539391 0.787374 0.810738 -0.564289
O30   O     O_R   0.641522 0.753175 0.846229 -0.627196
H34   H     H_    0.655659 0.786298 0.754663 0.335234
C71   C     C_2   0.402090 0.126801 0.195199 0.821693
O31   O     O_2   0.368240 0.083145 0.177199 -0.540068
O32   O     O_R   0.400912 0.155883 0.373357 -0.643810
H35   H     H_    0.369301 0.137375 0.474432 0.325822
C72   C     C_2   0.599652 0.626298 0.809973 0.820464
O33   O     O_2   0.632553 0.582125 0.828910 -0.540919
O34   O     O_R   0.602808 0.655882 0.632623 -0.641472
H36   H     H_    0.634867 0.637225 0.533092 0.323997
C73   C     C_2   0.097777 0.484927 0.807963 0.726749
O35   O     O_2   0.138404 0.517691 0.728295 -0.575343
O36   O     O_R   0.042124 0.508959 0.905037 -0.651320
H37   H     H_    0.041111 0.553553 0.898319 0.297433
C74   C     C_2   0.898407 0.977119 0.092259 0.737894
O37   O     O_2   0.866458 0.015418 0.178877 -0.578822
O38   O     O_R   0.943759 0.992703 0.941288 -0.653194
H38   H     H_    0.945114 0.036697 0.916422 0.302826
C75   C     C_2   0.939246 0.306298 0.962982 0.771015
O39   O     O_2   0.954550 0.326055 0.117514 -0.549848
O40   O     O_R   0.873560 0.302041 0.926129 -0.646108
H39   H     H_    0.843501 0.315508 0.039644 0.311001
C76   C     C_2   0.049473 0.792143 0.990234 0.754513
O41   O     O_2   0.026761 0.802925 0.835873 -0.560088
O42   O     O_R   0.116929 0.790020 0.001235 -0.649574
H40   H     H_    0.141564 0.796831 0.871378 0.305972

loop_
_geom_bond_atom_site_label_1
_geom_bond_atom_site_label_2
_ccdc_geom_bond_type
C38   C62   A    
V4    O20   S    
C59   H19   S    
O26   C68   S    
C25   H3    S    
O11   V3    S    
C75   O40   S    
C26   H4    S    
C49   C63   A    
C73   O35   D    
O4    C2    A    
V1    O19   S    
O34   H36   S    
C37   C53   A    
C70   O29   D    
C17   H7    S    
C13   H11   S    
C39   C59   A    
C7    C9    S    
C31   C75   S    
O9    V1    S    
O40   H39   S    
C11   C13   A    
C42   C44   A    
C32   C76   S    
O3    C1    A    
C66   O24   S    
C2    C35   S    
C39   C61   A    
C44   C46   A    
O12   V4    S    
C72   O33   D    
O13   V3    S    
C70   O30   S    
O7    V1    S    
C45   C69   S    
C6    C40   S    
O7    C3    A    
C9    C11   A    
O5    C7    A    
C24   H2    S    
C34   H6    S    
C4    C63   S    
O6    C8    A    
O8    V2    S    
C55   O25   S    
C16   C32   S    
C54   C56   A    
C42   C64   A    
C74   O37   D    
C41   H21   S    
O3    V1    S    
O14   V4    S    
C47   C49   A    
C5    C39   S    
C43   C71   S    
C10   C12   A    
C15   C31   S    
C43   C45   A    
C8    C10   S    
C2    O12   A    
C37   C61   A    
C17   C19   A    
O10   V2    S    
O32   H35   S    
C18   C20   A    
C55   C57   A    
C28   C30   A    
C44   C72   S    
C24   C36   A    
C22   C24   A    
C21   C23   A    
O17   V3    S    
C48   C50   A    
C14   H12   S    
C20   C74   S    
H16   C62   S    
C9    C19   A    
C27   H13   S    
C10   C20   A    
C15   C17   A    
O8    C4    A    
C51   C59   A    
C29   C33   S    
C3    C64   S    
C1    O11   A    
C25   C27   A    
C21   H9    S    
C42   H22   S    
C41   C63   A    
C27   C29   A    
C52   C54   A    
C68   H31   S    
C18   H8    S    
C26   C28   A    
C76   O41   D    
C71   O31   D    
C57   H23   S    
C22   C30   A    
O1    V3    S    
C40   C60   A    
C60   H20   S    
C12   C66   S    
O25   C67   S    
C50   C64   A    
C41   C43   A    
C46   C48   A    
O18   V4    S    
C23   C35   A    
C56   C58   A    
O15   C5    A    
O28   H33   S    
C30   C34   S    
O16   C6    A    
H15   C61   S    
O1    C3    A    
C67   H28   S    
C68   H30   S    
C1    C36   S    
C50   C58   A    
C65   O21   D    
V2    O20   S    
C72   O34   S    
O16   V4    S    
C73   O36   S    
O18   C8    A    
C48   C52   A    
C38   H18   S    
C46   C70   S    
C33   H5    S    
C16   C18   A    
C69   O28   S    
C23   H1    S    
O24   H26   S    
C53   C55   A    
C58   H24   S    
O5    V1    S    
O17   C7    A    
O6    V2    S    
O30   H34   S    
O10   C6    A    
C28   H14   S    
C25   C35   A    
O2    V4    S    
C26   C36   A    
C67   H29   S    
C31   C33   D    
C76   O42   S    
C67   H27   S    
C68   H32   S    
V3    O19   S    
O42   H40   S    
C66   O23   D    
C38   C54   A    
C12   C14   A    
C14   C16   A    
C71   O32   S    
C51   C53   A    
O15   V3    S    
O9    C5    A    
O13   V1    S    
C32   C34   D    
C11   C65   S    
O14   V2    S    
C74   O38   S    
C47   C51   A    
C69   O27   D    
O2    C4    A    
C22   H10   S    
C19   C73   S    
C21   C29   A    
O4    V2    S    
C56   O26   S    
C52   C60   A    
C13   C15   A    
C75   O39   D    
C45   C47   A    
C40   C62   A    
C49   C57   A    
O38   H38   S    
O36   H37   S    
C37   H17   S    
O22   H25   S    
C65   O22   S    
