data_mof_unit_25709.cif
_audit_creation_date              2012-12-10T19:45:47-0500
_audit_creation_method            fapswitch 2.2
_symmetry_space_group_name_H-M    P1
_symmetry_Int_Tables_number       1
_space_group_crystal_system       triclinic
_cell_length_a                    10.827482
_cell_length_b                    14.671667
_cell_length_c                    14.707242
_cell_angle_alpha                 64.991734
_cell_angle_beta                  103.510788
_cell_angle_gamma                 103.400104
_cell_volume                      2035.13669125

loop_
_atom_site_label
_atom_site_type_symbol
_atom_type_description
_atom_site_fract_x
_atom_site_fract_y
_atom_site_fract_z
_atom_type_partial_charge
C1    C     C_R   0.481086 0.119843 0.312184 0.814006
C2    C     C_R   0.619002 0.786460 0.972289 -0.222903
C3    C     C_R   0.468332 0.149260 0.130041 -0.172148
C4    C     C_R   0.595520 0.852342 0.870932 -0.184982
C5    C     C_R   0.508480 0.292653 0.179322 -0.247088
C6    C     C_R   0.533888 0.708359 0.821451 -0.289104
C7    C     C_R   0.524226 0.361146 0.080081 0.088588
C8    C     C_R   0.562064 0.640770 0.922440 0.089674
C9    C     C_R   0.504621 0.321360 0.004271 0.165710
C10   C     C_R   0.600205 0.680993 0.998766 0.166502
C11   C     C_R   0.555001 0.468029 0.053785 0.062635
C12   C     C_R   0.525049 0.880271 0.687793 0.826353
C13   C     C_R   0.548482 0.534151 0.949657 0.066178
C14   C     C_R   0.530936 0.491703 0.876340 -0.223382
C15   C     C_R   0.594203 0.510923 0.127993 -0.220524
C16   C     C_R   0.263600 0.994291 0.508689 0.891938
C17   C     C_R   0.738045 0.998865 0.501411 0.868509
C18   C     C_R   0.510926 0.387251 0.903638 -0.229905
C19   C     C_R   0.618101 0.615565 0.100580 -0.231646
C20   C     C_R   0.703787 0.279722 0.676887 0.327207
C21   C     C_R   0.292736 0.719288 0.324540 0.309095
C22   C     C_R   0.674229 0.200362 0.643178 0.011446
C23   C     C_R   0.872711 0.991930 0.510189 -0.223477
C24   C     C_R   0.327399 0.800851 0.355565 -0.003001
C25   C     C_R   0.520713 0.286075 0.507852 -0.005060
C26   C     C_R   0.475754 0.712373 0.494127 -0.012081
C27   C     C_R   0.547335 0.370920 0.536165 -0.072789
C28   C     C_R   0.449275 0.627899 0.465385 -0.086366
C29   C     C_R   0.641730 0.366306 0.622422 0.050562
C30   C     C_R   0.355901 0.633212 0.378370 0.054263
C31   C     C_R   0.482878 0.458697 0.483277 0.100805
C32   C     C_R   0.513869 0.540210 0.518123 0.103155
C33   C     C_R   0.609400 0.531822 0.603811 -0.270370
C34   C     C_R   0.130873 0.982566 0.523654 -0.246846
C35   C     C_R   0.388904 0.467904 0.396551 -0.265899
C36   C     C_R   0.671692 0.447110 0.654329 -0.186556
C37   C     C_R   0.327137 0.552984 0.345660 -0.166717
C38   C     C_R   0.373288 0.077958 0.773726 -0.198268
C39   C     C_R   0.690380 0.946806 0.216915 -0.214313
C40   C     C_R   0.282166 0.027472 0.719054 0.487842
C41   C     C_R   0.776201 0.977824 0.289690 0.466457
C42   C     C_R   0.194709 0.082859 0.636691 0.093745
C43   C     C_R   0.817341 0.904163 0.385672 0.123865
C44   C     C_R   0.199141 0.186867 0.613200 -0.129959
C45   C     C_R   0.907260 0.936451 0.463886 -0.128577
C46   C     C_R   0.774006 0.800481 0.405655 -0.144483
C47   C     C_R   0.288930 0.235441 0.669696 -0.140890
C48   C     C_R   0.691862 0.770499 0.331264 -0.157789
C49   C     C_R   0.375750 0.181041 0.749683 -0.219938
C50   C     C_R   0.649115 0.843503 0.237457 -0.199472
C51   C     C_R   0.967082 0.032801 0.572836 0.379534
C52   C     C_R   0.034115 0.920539 0.483594 0.339344
C53   C     C_3   0.734699 0.219931 0.848588 0.034988
C54   C     C_3   0.834046 0.207708 0.943159 -0.784853
C55   C     C_3   0.080768 0.717710 0.256717 0.044062
C56   C     C_R   0.097291 0.033710 0.574878 -0.131707
C57   C     C_3   0.984516 0.725187 0.161073 -0.772924
C58   C     C_3   0.191816 0.861897 0.796800 0.006475
C59   C     C_3   0.232614 0.757466 0.857420 -0.762223
C60   C     C_3   0.929959 0.113054 0.230405 0.047209
C61   C     C_3   0.963553 0.227881 0.197087 -0.775377
C62   C     C_3   0.903779 0.997430 0.724198 0.061450
C63   C     C_3   0.961687 0.034819 0.809344 -0.804511
C64   C     C_3   0.074699 0.758316 0.550290 0.110037
C65   C     C_3   0.071689 0.667609 0.524698 -0.823131
C66   C     C_R   0.483123 0.187572 0.205095 -0.035154
C67   C     C_R   0.550697 0.813224 0.795235 -0.020525
C68   C     C_R   0.478154 0.215869 0.030006 -0.207106
Cu1   Cu    Cu3+1 0.466270 0.918260 0.475690 0.950743
Cu2   Cu    Cu3+1 0.533730 0.081740 0.524310 0.962751
H1    H     H_    0.445895 0.219126 0.792394 0.122996
H2    H     H_    0.659892 0.690512 0.346834 0.151698
H3    H     H_    0.611276 0.933511 0.852014 0.141814
H4    H     H_    0.449546 0.068089 0.148610 0.153577
H5    H     H_    0.536407 0.537451 0.797220 0.141191
H6    H     H_    0.611632 0.465585 0.208253 0.147947
H7    H     H_    0.546278 0.715700 0.557989 0.132481
H8    H     H_    0.448003 0.281586 0.445500 0.134600
H9    H     H_    0.283991 0.869191 0.312479 0.149839
H10   H     H_    0.720518 0.133621 0.684703 0.149835
H11   H     H_    0.686410 0.142587 0.853019 0.125622
H12   H     H_    0.583314 0.819976 0.180888 0.151727
H13   H     H_    0.663200 0.263422 0.848668 0.140019
H14   H     H_    0.884917 0.283431 0.941044 0.254733
H15   H     H_    0.784783 0.169191 0.010995 0.205396
H16   H     H_    0.904899 0.161062 0.948418 0.243361
H17   H     H_    0.072334 0.779495 0.278990 0.170243
H18   H     H_    0.054994 0.642450 0.317957 0.149376
H19   H     H_    0.986902 0.662584 0.138205 0.248827
H20   H     H_    0.886264 0.719288 0.175590 0.199243
H21   H     H_    0.007891 0.799384 0.098247 0.245154
H22   H     H_    0.639125 0.589791 0.634365 0.125601
H23   H     H_    0.465136 0.184837 0.972835 0.123983
H24   H     H_    0.360843 0.410624 0.365050 0.133988
H25   H     H_    0.442561 0.037014 0.835035 0.132660
H26   H     H_    0.656366 0.003034 0.144129 0.138765
H27   H     H_    0.102837 0.852858 0.743816 0.139315
H28   H     H_    0.171588 0.889240 0.851331 0.148677
H29   H     H_    0.320534 0.762763 0.912803 0.264600
H30   H     H_    0.154725 0.704315 0.899475 0.201467
H31   H     H_    0.252378 0.727082 0.805566 0.239914
H32   H     H_    0.923801 0.093633 0.163848 0.138657
H33   H     H_    0.009054 0.077883 0.289733 0.150505
H34   H     H_    0.651228 0.817916 0.030005 0.132179
H35   H     H_    0.975106 0.248963 0.263129 0.249836
H36   H     H_    0.054978 0.254739 0.165306 0.198451
H37   H     H_    0.886040 0.265630 0.138006 0.254394
H38   H     H_    0.938517 0.924538 0.744351 0.092637
H39   H     H_    0.798073 0.979894 0.721073 0.154484
H40   H     H_    0.933141 0.976497 0.882234 0.196382
H41   H     H_    0.068113 0.048949 0.816715 0.243806
H42   H     H_    0.927355 0.106549 0.793241 0.276382
H43   H     H_    0.995037 0.739421 0.594667 0.108031
H44   H     H_    0.167317 0.768676 0.599648 0.171007
H45   H     H_    0.743960 0.445119 0.719753 0.184457
H46   H     H_    0.156271 0.678884 0.488876 0.239793
H47   H     H_    0.074303 0.597461 0.595220 0.213112
H48   H     H_    0.982514 0.657833 0.472035 0.239370
H49   H     H_    0.497790 0.358184 0.844995 0.135826
H50   H     H_    0.648105 0.645347 0.159693 0.140285
H51   H     H_    0.494310 0.680597 0.761997 0.151548
H52   H     H_    0.512679 0.319609 0.237792 0.145614
H53   H     H_    0.256092 0.555671 0.279404 0.186586
H54   H     H_    0.133457 0.230556 0.550404 0.161172
H55   H     H_    0.802179 0.742818 0.479071 0.139023
H56   H     H_    0.292079 0.315627 0.650813 0.154220
N1    N     N_R   0.584450 0.204570 0.560790 -0.203802
N2    N     N_R   0.415550 0.795430 0.439210 -0.199181
O1    O     O_R   0.455540 0.022090 0.338120 -0.588369
O2    O     O_3   0.205714 0.727319 0.236914 -0.590835
O3    O     O_3   0.289538 0.927342 0.740636 -0.605093
O4    O     O_3   0.812409 0.080513 0.268790 -0.595370
O5    O     O_3   0.933596 0.074943 0.630481 -0.559780
O6    O     O_3   0.062315 0.846659 0.459634 -0.572108
O7    O     O_R   0.544460 0.977910 0.661880 -0.592007
O8    O     O_R   0.512510 0.160150 0.379180 -0.592971
O9    O     O_R   0.487490 0.839850 0.620820 -0.608443
O10   O     O_R   0.291160 0.930970 0.479480 -0.546399
O11   O     O_R   0.708840 0.069030 0.520520 -0.539690
O12   O     O_R   0.348130 0.069020 0.520540 -0.586112
O13   O     O_R   0.651870 0.930980 0.479460 -0.594502
O14   O     O_3   0.795617 0.272980 0.761567 -0.584828

loop_
_geom_bond_atom_site_label_1
_geom_bond_atom_site_label_2
_ccdc_geom_bond_type
Cu2   N1    S    
Cu2   O12   S    
C8    C13   A    
C23   C45   A    
C27   C29   A    
C59   H29   S    
C14   C18   A    
C46   H55   S    
C3    C68   A    
C58   H28   S    
C60   O4    S    
C54   H14   S    
C47   C49   A    
C38   C49   A    
C53   C54   S    
C7    C11   A    
C29   C36   A    
C17   C23   S    
C57   H19   S    
C62   O5    S    
C17   O13   A    
C35   C37   A    
C51   C56   A    
C1    O1    A    
C62   H38   S    
Cu1   O13   S    
C63   H42   S    
C33   C36   A    
C52   O6    S    
C53   H11   S    
C53   O14   S    
C55   H18   S    
C3    H4    S    
C16   C34   S    
C15   C19   A    
C11   C15   A    
Cu1   N2    S    
C12   O7    A    
C38   H25   S    
C65   H48   S    
C1    O8    A    
C61   H35   S    
C58   O3    S    
C44   C47   A    
C34   C56   A    
C42   C56   S    
C40   C42   A    
C15   H6    S    
Cu2   O11   S    
C37   H53   S    
C13   C14   A    
Cu2   O8    S    
C59   H30   S    
C41   C43   A    
C41   O4    S    
C16   O12   A    
C58   H27   S    
C42   C44   A    
C48   H2    S    
C60   H32   S    
C46   C48   A    
C20   C29   A    
Cu1   O9    S    
C51   O5    S    
C12   C67   S    
C64   O6    S    
C26   H7    S    
C64   H44   S    
C57   H20   S    
C27   C31   A    
C25   H8    S    
C59   H31   S    
C20   O14   S    
C28   C32   A    
C39   C41   A    
C33   H22   S    
C5    C7    A    
C63   H41   S    
C6    C8    A    
C45   C52   A    
C58   C59   S    
C5    H52   S    
C44   H54   S    
C30   C37   A    
C60   C61   S    
C2    C4    A    
C62   C63   S    
C54   H15   S    
C24   H9    S    
C23   C51   A    
C31   C32   A    
C2    H34   S    
C10   C19   A    
C55   O2    S    
C1    C66   S    
C17   O11   A    
C26   N2    A    
C61   H36   S    
C43   C45   S    
C4    H3    S    
Cu1   O1    S    
C6    C67   A    
C40   O3    S    
C20   C22   A    
C19   H50   S    
C55   C57   S    
Cu2   O7    S    
C65   H46   S    
C31   C35   A    
C3    C66   A    
C2    C10   A    
C21   O2    S    
C50   H12   S    
C47   H56   S    
C54   H16   S    
C35   H24   S    
Cu1   O10   S    
C7    C9    A    
C64   H43   S    
C57   H21   S    
C34   C52   A    
C16   O10   A    
C5    C66   A    
C4    C67   A    
C25   C27   A    
C21   C30   A    
C26   C28   A    
C68   H23   S    
C53   H13   S    
C32   C33   A    
C63   H40   S    
C28   C30   A    
C25   N1    A    
C9    C68   A    
C22   H10   S    
C14   H5    S    
C38   C40   A    
C11   C13   A    
C60   H33   S    
C22   N1    A    
C62   H39   S    
C64   C65   S    
C48   C50   A    
C55   H17   S    
Cu1   Cu2   S    
C61   H37   S    
C43   C46   A    
C39   H26   S    
C9    C18   A    
C39   C50   A    
C8    C10   A    
C49   H1    S    
C21   C24   A    
C24   N2    A    
C65   H47   S    
C12   O9    A    
C6    H51   S    
C36   H45   S    
C18   H49   S    
