data_mof_unit_23897.cif
_audit_creation_date              2013-03-05T16:53:12-0500
_audit_creation_method            fapswitch 2.2
_symmetry_space_group_name_H-M    P1
_symmetry_Int_Tables_number       1
_space_group_crystal_system       triclinic
_cell_length_a                    10.698924
_cell_length_b                    15.844417
_cell_length_c                    15.080611
_cell_angle_alpha                 90.123579
_cell_angle_beta                  90.558175
_cell_angle_gamma                 89.383693
_cell_volume                      2556.16365212

loop_
_atom_site_label
_atom_site_type_symbol
_atom_site_description
_atom_site_fract_x
_atom_site_fract_y
_atom_site_fract_z
_atom_type_partial_charge
O1    O     O_R   0.500000 0.378020 0.573650 -0.606470
O2    O     O_R   0.500000 0.621980 0.426350 -0.599583
O3    O     O_R   0.500060 0.378020 0.426320 -0.612802
O4    O     O_R   0.499940 0.621980 0.573680 -0.609545
C1    C     C_R   0.500900 0.338973 0.499884 0.932532
C2    C     C_R   0.499129 0.661018 0.500111 0.933586
O5    O     O_R   0.316730 0.500010 0.573660 -0.569588
O6    O     O_R   0.683270 0.499990 0.426340 -0.573623
O7    O     O_R   0.316790 0.500010 0.426330 -0.636281
O8    O     O_R   0.683210 0.499990 0.573670 -0.637043
C3    C     C_R   0.259804 0.501178 0.499391 0.969501
C4    C     C_R   0.740176 0.498812 0.500587 0.967468
Zn1   Zn    Zn3+2 0.499960 0.500000 0.598370 1.063236
Zn2   Zn    Zn3+2 0.500040 0.500000 0.401630 1.061702
H1    H     H_    0.256992 0.810568 0.255901 0.219228
H2    H     H_    0.736099 0.188422 0.739399 0.218479
C5    C     C_R   0.180711 0.778265 0.382867 0.199084
C6    C     C_R   0.816598 0.221109 0.613865 0.201314
C7    C     C_R   0.132631 0.712270 0.435426 0.230522
C8    C     C_R   0.866957 0.287213 0.562569 0.230861
C9    C     C_R   0.125832 0.629750 0.400056 -0.080414
C10   C     C_R   0.873667 0.369449 0.598697 -0.080988
C11   C     C_R   0.166031 0.613693 0.313425 -0.155796
C12   C     C_R   0.831363 0.385068 0.684901 -0.149827
H3    H     H_    0.157205 0.550589 0.286442 0.213890
H4    H     H_    0.839796 0.447966 0.712487 0.214643
C13   C     C_R   0.213725 0.678451 0.260910 0.335127
C14   C     C_R   0.780828 0.320294 0.735963 0.326717
C15   C     C_R   0.220677 0.760253 0.296256 -0.310746
C16   C     C_R   0.774118 0.238773 0.699935 -0.314821
C17   C     C_R   0.932126 0.561712 0.451520 0.294244
C18   C     C_R   0.067819 0.437843 0.548079 0.295115
C19   C     C_R   0.872302 0.500207 0.502172 -0.211125
C20   C     C_R   0.127662 0.499581 0.497683 -0.210890
C21   C     C_R   0.938335 0.438169 0.550713 -0.049675
C22   C     C_R   0.061559 0.561423 0.448894 -0.049812
C23   C     C_R   0.449592 0.956159 0.572687 0.451118
C24   C     C_R   0.546668 0.043821 0.426562 0.451006
C25   C     C_R   0.500454 0.912872 0.499858 -0.242046
C26   C     C_R   0.496070 0.087126 0.499480 -0.242097
C27   C     C_R   0.549339 0.955876 0.426756 0.415301
C28   C     C_R   0.446691 0.044109 0.572413 0.416499
C29   C     C_1   0.500851 0.823926 0.500160 0.156389
C30   C     C_1   0.496914 0.176074 0.499555 0.156845
C31   C     C_1   0.498871 0.250800 0.499595 -0.114869
C32   C     C_1   0.500067 0.749191 0.500335 -0.111506
C33   C     C_R   0.439674 0.434242 0.952734 0.213301
C34   C     C_R   0.559785 0.565598 0.047178 0.198167
C35   C     C_R   0.497216 0.500005 0.905065 -0.254621
C36   C     C_R   0.502285 0.499815 0.094985 -0.249994
C37   C     C_R   0.555872 0.565675 0.952748 0.437425
C38   C     C_R   0.446051 0.432889 0.047152 0.430628
C39   C     C_1   0.498983 0.500011 0.807036 0.339897
C40   C     C_1   0.500997 0.499949 0.192978 0.333769
N1    N     N_1   0.499960 0.500020 0.270550 -0.087894
N2    N     N_1   0.500040 0.499980 0.729450 -0.087766
N3    N     N_R   0.372468 0.369432 0.905724 0.258230
O9    O     O_R   0.379844 0.291056 0.930893 -0.308270
O10   O     O_R   0.299414 0.388967 0.839236 -0.306432
N4    N     N_R   0.623492 0.632403 0.093527 0.241769
O11   O     O_R   0.728277 0.661390 0.063601 -0.255368
O12   O     O_R   0.575322 0.666742 0.164004 -0.357874
N5    N     N_R   0.189156 0.863523 0.415833 0.231385
O13   O     O_R   0.193510 0.926652 0.360912 -0.360766
O14   O     O_R   0.200423 0.878703 0.500288 -0.276100
N6    N     N_R   0.807887 0.136167 0.580034 0.232141
O15   O     O_R   0.800561 0.072690 0.634304 -0.362955
O16   O     O_R   0.798807 0.121715 0.495316 -0.272977
N7    N     N_R   0.083899 0.729317 0.522057 0.244871
O17   O     O_R   0.122089 0.685140 0.589907 -0.369589
O18   O     O_R   0.993378 0.783927 0.531940 -0.230738
N8    N     N_R   0.917708 0.270544 0.476455 0.244764
O19   O     O_R   0.881481 0.315236 0.408455 -0.372029
O20   O     O_R   0.007942 0.215599 0.467291 -0.231627
N9    N     N_R   0.251931 0.661688 0.171208 0.233995
O21   O     O_R   0.302226 0.720571 0.123714 -0.366034
O22   O     O_R   0.233280 0.588101 0.135221 -0.363667
N10   N     N_R   0.738801 0.336838 0.824792 0.220273
O23   O     O_R   0.678074 0.279905 0.868519 -0.376497
O24   O     O_R   0.762993 0.408425 0.863447 -0.365869
N11   N     N_R   0.861336 0.625828 0.405062 0.222795
O25   O     O_R   0.785706 0.675552 0.448138 -0.354972
O26   O     O_R   0.873470 0.635270 0.319911 -0.307435
N12   N     N_R   0.138579 0.373288 0.593901 0.223826
O27   O     O_R   0.215366 0.324655 0.550506 -0.358816
O28   O     O_R   0.123463 0.361214 0.678400 -0.289712
O29   O     O_3   0.385865 0.086482 0.640274 -0.517323
C41   C     C_3   0.474275 0.122907 0.698702 -0.123869
H5    H     H_    0.493966 0.188680 0.678549 0.171226
H6    H     H_    0.563543 0.086386 0.704213 0.124016
H7    H     H_    0.433300 0.125777 0.765934 0.226589
O30   O     O_3   0.609630 0.913487 0.358663 -0.518417
C42   C     C_3   0.520723 0.876933 0.300698 -0.118016
H8    H     H_    0.431785 0.913792 0.295007 0.122921
H9    H     H_    0.500452 0.811411 0.321430 0.176974
H10   H     H_    0.561470 0.873356 0.233429 0.224659
O31   O     O_3   0.391945 0.912824 0.640382 -0.506337
C43   C     C_3   0.482668 0.889248 0.704411 -0.169284
H11   H     H_    0.522466 0.945394 0.738013 0.158678
H12   H     H_    0.558888 0.849916 0.675548 0.153849
H13   H     H_    0.436727 0.850763 0.755811 0.189437
O32   O     O_3   0.604410 0.087087 0.358867 -0.506737
C44   C     C_3   0.513652 0.111055 0.295035 -0.172043
H14   H     H_    0.438565 0.151327 0.323964 0.153778
H15   H     H_    0.472341 0.055090 0.262021 0.159825
H16   H     H_    0.560000 0.148704 0.243149 0.187908
O33   O     O_3   0.386712 0.369145 0.092528 -0.544641
C45   C     C_3   0.476917 0.308771 0.120305 -0.140988
H17   H     H_    0.533956 0.332776 0.176658 0.131597
H18   H     H_    0.539268 0.288399 0.065328 0.198577
H19   H     H_    0.427442 0.252009 0.143826 0.189260
O34   O     O_3   0.613139 0.629640 0.906491 -0.547515
C46   C     C_3   0.525919 0.696066 0.894159 -0.160948
H20   H     H_    0.493952 0.722413 0.958666 0.201453
H21   H     H_    0.444277 0.675438 0.853587 0.146145
H22   H     H_    0.572078 0.747630 0.857662 0.185129

loop_
_geom_bond_atom_site_label_1
_geom_bond_atom_site_label_2
_geom_bond_distance
_ccdc_geom_bond_type
N6    O16   1.300359 A    
O29   C41   1.413326 S    
N5    O14   1.300326 A    
C37   O34   1.383436 S    
C13   C15   1.402812 A    
C5    C15   1.406032 A    
O7    Zn2   1.999209 S    
C23   O31   1.385075 S    
N11   O25   1.300669 A    
C33   C35   1.416754 A    
C9    C22   1.488848 S    
O5    C3    1.269756 A    
C10   C21   1.489037 S    
C42   H8    1.113787 S    
O1    C1    1.271803 A    
C7    C9    1.413356 A    
N12   O28   1.300887 A    
N7    O17   1.301026 A    
N10   O24   1.301490 A    
N3    O10   1.301132 A    
H2    C16   1.081599 S    
O31   C43   1.410521 S    
C23   C28   1.393550 A    
C45   H17   1.110306 S    
N4    O12   1.301310 A    
O4    Zn1   1.969027 S    
N7    O18   1.301184 A    
C5    C7    1.417514 A    
C34   C37   1.424278 A    
C38   O33   1.384426 S    
C35   C37   1.412654 A    
C36   C38   1.417312 A    
O33   C45   1.412782 S    
C17   C19   1.403197 A    
H1    C15   1.081781 S    
C6    C16   1.406004 A    
C11   C13   1.401063 A    
C14   N10   1.439821 S    
C20   C22   1.407018 A    
C46   H22   1.109169 S    
C26   C28   1.405591 A    
N6    O15   1.301530 A    
C42   H9    1.109099 S    
O2    C2    1.271653 A    
C13   N9    1.440310 S    
O34   C46   1.410464 S    
N11   O26   1.301054 A    
C34   N4    1.441030 S    
C18   N12   1.439812 S    
C18   C21   1.386249 A    
N12   O27   1.300626 A    
C24   C27   1.393436 A    
N8    O20   1.301166 A    
N10   O23   1.301623 A    
C25   C29   1.409286 S    
C1    C31   1.397438 S    
N4    O11   1.301259 A    
C18   C20   1.403774 A    
N9    O21   1.301606 A    
C33   N3    1.441153 S    
O7    C3    1.264437 A    
C41   H7    1.109175 S    
C26   C30   1.409463 S    
O6    C4    1.269366 A    
C44   H15   1.109846 S    
C36   C40   1.477982 S    
N9    O22   1.301512 A    
O3    Zn2   1.969028 S    
O8    C4    1.264619 A    
O4    C2    1.271313 A    
C8    C10   1.413487 A    
C42   H10   1.109161 S    
C43   H12   1.112485 S    
C9    C11   1.401318 A    
C10   C12   1.401355 A    
C7    N7    1.435378 S    
O1    Zn1   1.967535 S    
C30   C31   1.184402 T    
C46   H20   1.113208 S    
C39   N2    1.170213 T    
C40   N1    1.169992 T    
O6    Zn2   1.991897 S    
C2    C32   1.397190 S    
C3    C20   1.414260 S    
C12   C14   1.400734 A    
C41   H6    1.113862 S    
N8    O19   1.301056 A    
O3    C1    1.271314 A    
O8    Zn1   1.999210 S    
C33   C38   1.425041 A    
C6    N6    1.441923 S    
C43   H13   1.109125 S    
C17   N11   1.439675 S    
C45   H19   1.109120 S    
Zn1   N2    1.976761 S    
C14   C16   1.402471 A    
C24   O32   1.384990 S    
C5    N5    1.441878 S    
C24   C26   1.404776 A    
C12   H4    1.083413 S    
N3    O9    1.300666 A    
C35   C39   1.478630 S    
C34   C36   1.417842 A    
O30   C42   1.413448 S    
C19   C21   1.406868 A    
C45   H18   1.114257 S    
Zn2   N1    1.976761 S    
C44   H16   1.109025 S    
C6    C8    1.417558 A    
C11   H3    1.083389 S    
O32   C44   1.410371 S    
O2    Zn2   1.967534 S    
C29   C32   1.184266 T    
N5    O13   1.301521 A    
O5    Zn1   1.991896 S    
C27   O30   1.386465 S    
C41   H5    1.109104 S    
C25   C27   1.405446 A    
C23   C25   1.404695 A    
C43   H11   1.109724 S    
C44   H14   1.112412 S    
C17   C22   1.385701 A    
C8    N8    1.435361 S    
C28   O29   1.386418 S    
C4    C19   1.413993 S    
C46   H21   1.113113 S    
