data_mof_unit_8864.cif
_audit_creation_date              2012-10-26T19:53:27-0400
_audit_creation_method            fapswitch 2.2
_symmetry_space_group_name_H-M    P1
_symmetry_Int_Tables_number       1
_space_group_crystal_system       triclinic
_cell_length_a                    9.067933
_cell_length_b                    7.895271
_cell_length_c                    10.705209
_cell_angle_alpha                 88.734554
_cell_angle_beta                  90.054792
_cell_angle_gamma                 90.045988
_cell_volume                      766.238960029

loop_
_atom_site_label
_atom_site_type_symbol
_atom_type_description
_atom_site_fract_x
_atom_site_fract_y
_atom_site_fract_z
_atom_type_partial_charge
C1    C     C_R   0.220499 0.499956 0.499985 0.558685
C2    C     C_3   0.623435 0.556277 0.046244 0.009580
C3    C     C_3   0.510791 0.498275 0.877078 -0.065019
C4    C     C_3   0.488453 0.501163 0.123096 -0.036719
C5    C     C_1   0.065530 0.499933 0.500000 0.033569
C6    C     C_1   0.934483 0.500050 0.500026 0.043856
C7    C     C_R   0.779505 0.500039 0.500027 0.572913
C8    C     C_R   0.492996 0.501143 0.259536 0.603760
C9    C     C_R   0.506765 0.498756 0.740534 0.587982
C10   C     C_3   0.386347 0.602160 0.033519 0.148119
C11   C     C_3   0.612355 0.396807 0.966702 0.223224
C12   C     C_3   0.524106 0.658578 0.956168 0.183769
C13   C     C_3   0.474521 0.340611 0.044444 0.226830
C14   C     C_3   0.375767 0.443175 0.953775 -0.018047
Cu1   Cu    Cu3+1 0.500000 0.669080 0.500000 1.182202
Cu2   Cu    Cu3+1 0.500000 0.330920 0.500000 1.154325
H1    H     H_    0.166580 0.347415 0.964271 0.333552
H2    H     H_    0.197103 0.476687 0.840150 0.245723
H3    H     H_    0.827353 0.665415 0.033616 0.336894
H4    H     H_    0.730969 0.720020 0.159625 0.276150
H5    H     H_    0.189864 0.779877 0.893981 0.353809
H6    H     H_    0.946643 0.138969 0.999997 0.402312
H7    H     H_    0.490070 0.067386 0.797400 0.395375
H8    H     H_    0.256348 0.132906 0.276668 0.380997
N1    N     N_1   0.500000 0.076820 0.500000 -0.051038
N2    N     N_1   0.500000 0.923180 0.500000 -0.028164
N3    N     N_3   0.242709 0.378392 0.894423 -0.527395
N4    N     N_3   0.758712 0.617566 0.104218 -0.496389
O1    O     O_R   0.288390 0.642760 0.500000 -0.495888
O2    O     O_2   0.251155 0.813775 0.191825 -0.193493
O3    O     O_3   0.131722 0.802010 0.970122 -0.435300
O4    O     O_2   0.753295 0.185605 0.810253 -0.227374
O5    O     O_2   0.883688 0.440445 0.870818 -0.289919
O6    O     O_3   0.860815 0.197295 0.036700 -0.415972
O7    O     O_2   0.644589 0.960872 0.991964 -0.189492
O8    O     O_2   0.722630 0.812204 0.806995 -0.222108
O9    O     O_3   0.461169 0.946746 0.802474 -0.480723
O10   O     O_2   0.337761 0.046323 0.009332 -0.171885
O11   O     O_2   0.506364 0.056886 0.189699 -0.223806
O12   O     O_R   0.711610 0.357240 0.500000 -0.482295
O13   O     O_3   0.251864 0.208913 0.201943 -0.480310
O14   O     O_R   0.711610 0.642760 0.500000 -0.492997
O15   O     O_R   0.288390 0.357240 0.500000 -0.510720
O16   O     O_R   0.499960 0.642760 0.316850 -0.480831
O17   O     O_R   0.500040 0.357240 0.683150 -0.501187
O18   O     O_R   0.500040 0.642760 0.683150 -0.448530
O19   O     O_R   0.499960 0.357240 0.316850 -0.465853
O20   O     O_2   0.118159 0.559002 0.136024 -0.237910
S1    S     S_3+6 0.218565 0.696484 0.087012 0.095004
S2    S     S_3+6 0.781290 0.302674 0.916207 0.093846
S3    S     S_3+6 0.592970 0.850781 0.889010 0.104178
S4    S     S_3+6 0.395291 0.153341 0.111815 0.122711

loop_
_geom_bond_atom_site_label_1
_geom_bond_atom_site_label_2
_ccdc_geom_bond_type
Cu2   O17   S    
C2    C4    S    
C7    O12   A    
C9    O17   A    
C6    C7    S    
C3    C9    S    
C3    C14   S    
C14   N3    S    
C13   S4    S    
H5    O3    S    
O13   S4    S    
C4    C8    S    
C2    C12   S    
C1    O1    A    
O11   S4    D    
N1    N2    T    
C8    O19   A    
C9    O18   A    
C11   S2    S    
C13   C14   S    
O7    S3    D    
H8    O13   S    
C11   C13   S    
Cu2   O15   S    
O4    S2    D    
O8    S3    D    
C10   C12   S    
O3    S1    S    
C1    C5    S    
C2    C11   S    
Cu2   O19   S    
O20   S1    D    
O2    S1    D    
Cu2   O12   S    
Cu1   O16   S    
Cu1   O1    S    
O9    S3    S    
H3    N4    S    
C5    C6    T    
H6    O6    S    
O6    S2    S    
C3    C11   S    
C4    C10   S    
Cu1   Cu2   S    
H1    N3    S    
C4    C13   S    
C12   S3    S    
O10   S4    D    
C10   C14   S    
C7    O14   A    
Cu2   N1    S    
Cu1   N2    S    
C2    N4    S    
C3    C12   S    
H4    N4    S    
Cu1   O18   S    
O5    S2    D    
H7    O9    S    
C10   S1    S    
C1    O15   A    
H2    N3    S    
C8    O16   A    
Cu1   O14   S    
