data_mof_unit_5542.cif
_audit_creation_date              2012-12-10T18:35:41-0500
_audit_creation_method            fapswitch 2.2
_symmetry_space_group_name_H-M    P1
_symmetry_Int_Tables_number       1
_space_group_crystal_system       triclinic
_cell_length_a                    13.439787
_cell_length_b                    13.867024
_cell_length_c                    15.09627
_cell_angle_alpha                 89.900902
_cell_angle_beta                  90.081444
_cell_angle_gamma                 72.780263
_cell_volume                      2687.36941869

loop_
_atom_site_label
_atom_site_type_symbol
_atom_type_description
_atom_site_fract_x
_atom_site_fract_y
_atom_site_fract_z
_atom_type_partial_charge
C1    C     C_R   0.500930 0.499605 0.670145 0.804924
C2    C     C_R   0.814608 0.413088 0.498496 -0.100410
C3    C     C_R   0.561020 0.403978 0.903466 0.183961
C4    C     C_R   0.700129 0.446106 0.496989 0.786903
C5    C     C_R   0.554519 0.407267 0.810892 -0.224897
C6    C     C_R   0.505071 0.497704 0.766683 -0.056098
C7    C     C_R   0.461470 0.586051 0.814855 -0.192913
C8    C     C_R   0.464373 0.583490 0.906756 -0.213166
C9    C     C_R   0.512592 0.493113 0.951713 0.075992
C10   C     C_R   0.553412 0.559243 0.095324 -0.184269
C11   C     C_R   0.549122 0.562120 0.187373 -0.192674
C12   C     C_R   0.979505 0.454089 0.493681 0.084684
C13   C     C_R   0.501719 0.499590 0.233343 -0.020539
C14   C     C_R   0.456489 0.436014 0.186538 -0.185380
C15   C     C_R   0.458744 0.434917 0.094474 -0.166764
C16   C     C_R   0.500154 0.500025 0.329865 0.781844
C17   C     C_R   0.509486 0.494586 0.048665 0.116891
C18   C     C_R   0.408444 0.920092 0.499197 -0.332574
C19   C     C_R   0.408843 0.818340 0.499294 0.057835
C20   C     C_R   0.592282 0.764239 0.499863 0.021462
C21   C     C_R   0.596576 0.864979 0.498111 0.076692
C22   C     C_R   0.502311 0.945514 0.499615 0.106149
C23   C     C_R   0.873294 0.476505 0.468718 0.090002
C24   C     C_R   0.547903 0.094164 0.569086 -0.284117
C25   C     C_R   0.548346 0.195537 0.566835 0.078403
C26   C     C_R   0.449707 0.223454 0.434528 0.081060
C27   C     C_R   0.448667 0.122109 0.433774 -0.301115
C28   C     C_R   0.300085 0.553754 0.498172 0.801444
C29   C     C_R   0.499715 0.055101 0.500902 0.142273
C30   C     C_R   0.033640 0.688466 0.410940 -0.197463
C31   C     C_R   0.187493 0.583598 0.484535 -0.049939
C32   C     C_R   0.865350 0.320636 0.539338 -0.187414
C33   C     C_R   0.971689 0.293334 0.555118 -0.154326
C34   C     C_R   0.032711 0.526823 0.476397 0.075085
C35   C     C_R   0.028195 0.359592 0.534385 -0.186311
C36   C     C_3   0.702506 0.882347 0.490228 -0.430263
C37   C     C_3   0.719113 0.920117 0.397964 -0.820924
C38   C     C_3   0.623611 0.306406 0.947514 -0.427015
C39   C     C_3   0.726249 0.315128 0.984831 -0.811258
C40   C     C_R   0.982319 0.615700 0.427754 0.171277
C41   C     C_R   0.882283 0.629861 0.394592 -0.264518
C42   C     C_R   0.828944 0.560766 0.413803 -0.233800
C43   C     C_R   0.134519 0.514270 0.506364 -0.252111
C44   C     C_R   0.136137 0.672240 0.438831 -0.201694
Cu1   Cu    Cu3+1 0.500000 0.403570 0.500010 0.936009
Cu2   Cu    Cu3+1 0.500000 0.596430 0.499990 0.933891
H1    H     H_    0.176602 0.726410 0.421099 0.144240
H2    H     H_    0.664566 0.704486 0.499983 0.144696
H3    H     H_    0.584865 0.046682 0.624042 0.121882
H4    H     H_    0.587329 0.223635 0.619108 0.110836
H5    H     H_    0.409391 0.095887 0.380423 0.137380
H6    H     H_    0.995480 0.756459 0.373945 0.132740
H7    H     H_    0.175835 0.450135 0.545827 0.145525
H8    H     H_    0.822208 0.270339 0.561513 0.148917
H9    H     H_    0.110146 0.333370 0.549498 0.128519
H10   H     H_    0.753092 0.573580 0.383725 0.163448
H11   H     H_    0.584484 0.611600 0.222647 0.142638
H12   H     H_    0.590840 0.339822 0.772841 0.131775
H13   H     H_    0.844831 0.694909 0.353832 0.151477
H14   H     H_    0.706987 0.867379 0.346618 0.241316
H15   H     H_    0.664768 0.996428 0.385500 0.263898
H16   H     H_    0.800060 0.924482 0.392424 0.234171
H17   H     H_    0.712975 0.935864 0.541130 0.205984
H18   H     H_    0.765672 0.810965 0.502444 0.200758
H19   H     H_    0.409998 0.273911 0.382381 0.118581
H20   H     H_    0.010129 0.221559 0.586316 0.137129
H21   H     H_    0.772313 0.337082 0.931581 0.249075
H22   H     H_    0.712240 0.371829 0.038705 0.259248
H23   H     H_    0.423274 0.656547 0.781464 0.151895
H24   H     H_    0.772357 0.241067 0.012396 0.237177
H25   H     H_    0.578251 0.283796 0.000595 0.200431
H26   H     H_    0.642486 0.243392 0.898961 0.192705
H27   H     H_    0.427772 0.652089 0.943165 0.143358
H28   H     H_    0.591569 0.606708 0.060395 0.134202
H29   H     H_    0.418101 0.388488 0.221109 0.135385
H30   H     H_    0.420849 0.387731 0.058927 0.120307
H31   H     H_    0.334580 0.979043 0.499533 0.145522
H32   H     H_    0.335168 0.801971 0.499101 0.129155
N1    N     N_R   0.500000 0.741310 0.499980 -0.178605
N2    N     N_R   0.500060 0.258650 0.499980 -0.168348
O1    O     O_R   0.499990 0.418570 0.628550 -0.592912
O2    O     O_R   0.499990 0.581440 0.628540 -0.571679
O3    O     O_R   0.650980 0.378820 0.499990 -0.579473
O4    O     O_R   0.650980 0.541690 0.499970 -0.598654
O5    O     O_R   0.500010 0.418560 0.371460 -0.589563
O6    O     O_R   0.500010 0.581430 0.371450 -0.581083
O7    O     O_R   0.349020 0.458310 0.500030 -0.581882
O8    O     O_R   0.349020 0.621180 0.500010 -0.597002

loop_
_geom_bond_atom_site_label_1
_geom_bond_atom_site_label_2
_ccdc_geom_bond_type
C22   C29   S    
C27   C29   A    
C25   N2    A    
C10   H28   S    
C41   C42   A    
C2    C4    S    
C37   H16   S    
C7    C8    A    
C21   C36   S    
Cu1   Cu2   S    
C12   C23   A    
C26   C27   A    
C23   C42   A    
C31   C43   A    
C5    H12   S    
C34   C40   A    
C36   C37   S    
Cu1   O7    S    
Cu2   N1    S    
C10   C17   A    
C1    O1    A    
C2    C32   A    
C18   C19   A    
C39   H22   S    
C25   H4    S    
C42   H10   S    
Cu2   O2    S    
C43   H7    S    
C3    C38   S    
C8    C9    A    
C28   O8    A    
C36   H17   S    
C44   H1    S    
C15   H30   S    
C13   C14   A    
C16   O6    A    
C30   C44   A    
Cu1   O3    S    
C32   H8    S    
C27   H5    S    
C33   H20   S    
Cu2   O8    S    
C38   C39   S    
C38   H26   S    
C31   C44   A    
C35   H9    S    
C1    C6    S    
C24   C25   A    
C41   H13   S    
C1    O2    A    
C26   N2    A    
C19   H32   S    
Cu1   O5    S    
C3    C9    A    
C4    O4    A    
C28   O7    A    
C30   C40   A    
C12   C35   A    
C19   N1    A    
C20   H2    S    
C11   H11   S    
Cu2   O4    S    
C9    C17   S    
C40   C41   A    
C16   O5    A    
C12   C34   A    
C24   H3    S    
C15   C17   A    
C30   H6    S    
C38   H25   S    
C20   N1    A    
C18   C22   A    
C26   H19   S    
C39   H21   S    
C28   C31   S    
Cu1   O1    S    
C34   C43   A    
C3    C5    A    
C7    H23   S    
C37   H15   S    
C6    C7    A    
C14   H29   S    
C36   H18   S    
C32   C33   A    
C11   C13   A    
C5    C6    A    
C4    O3    A    
C18   H31   S    
C8    H27   S    
C33   C35   A    
C39   H24   S    
Cu1   N2    S    
C37   H14   S    
C10   C11   A    
C24   C29   A    
C20   C21   A    
C13   C16   S    
C2    C23   A    
C14   C15   A    
C21   C22   A    
Cu2   O6    S    
