data_mof_unit_49754.cif
_audit_creation_date              2012-12-10T16:52:03-0500
_audit_creation_method            fapswitch 2.2
_symmetry_space_group_name_H-M    P1
_symmetry_Int_Tables_number       1
_space_group_crystal_system       triclinic
_cell_length_a                    7.833879
_cell_length_b                    8.668936
_cell_length_c                    14.939684
_cell_angle_alpha                 92.652952
_cell_angle_beta                  84.947124
_cell_angle_gamma                 93.270187
_cell_volume                      1008.11747276

loop_
_atom_site_label
_atom_site_type_symbol
_atom_type_description
_atom_site_fract_x
_atom_site_fract_y
_atom_site_fract_z
_atom_type_partial_charge
C1    C     C_R   0.545338 0.793904 0.501673 0.889618
C2    C     C_R   0.604057 0.617421 0.811666 0.464061
C3    C     C_R   0.500621 0.502351 0.231982 -0.343203
C4    C     C_R   0.496122 0.509406 0.769152 -0.329847
C5    C     C_R   0.614805 0.604822 0.185057 0.565830
C6    C     C_R   0.369840 0.420980 0.818126 0.532959
C7    C     C_R   0.613217 0.611131 0.092095 -0.168593
C8    C     C_R   0.362727 0.425307 0.911403 -0.154324
C9    C     C_R   0.491008 0.515036 0.048080 -0.163727
C10   C     C_R   0.487279 0.519085 0.954887 -0.163193
C11   C     C_R   0.373922 0.412972 0.097154 -0.149800
C12   C     C_R   0.455904 0.206270 0.505560 0.849052
C13   C     C_R   0.607856 0.616796 0.905021 -0.168142
C14   C     C_R   0.728786 0.712283 0.042443 0.413978
C15   C     C_R   0.235685 0.336515 0.962031 0.443310
C16   C     C_3   0.381831 0.156338 0.237954 -0.215648
C17   C     C_3   0.602064 0.855746 0.755601 -0.241964
C18   C     C_3   0.790683 0.955150 0.097665 -0.058945
C19   C     C_3   0.959941 0.337992 0.927105 -0.152091
C20   C     C_3   0.842865 0.031432 0.537259 -0.163119
C21   C     C_3   0.248220 0.063148 0.650241 -0.250312
C22   C     C_3   0.944590 0.304876 0.351622 0.007659
C23   C     C_R   0.728663 0.711349 0.949223 0.511982
C24   C     C_3   0.052266 0.679383 0.653054 -0.055803
C25   C     C_R   0.245566 0.326769 0.053901 0.543434
C26   C     C_2   0.572329 0.956394 0.502040 0.180466
C27   C     C_2   0.436963 0.046009 0.523794 0.195003
C28   C     C_R   0.499939 0.501512 0.672975 0.934904
C29   C     C_R   0.499996 0.501114 0.327374 0.981233
C30   C     C_R   0.387593 0.400445 0.188862 0.458676
F1    F     F_    0.724773 0.698548 0.231263 -0.621431
F2    F     F_    0.254271 0.331217 0.774003 -0.679564
F3    F     F_    0.850655 0.800728 0.902573 -0.628077
F4    F     F_    0.126157 0.234674 0.100288 -0.657145
H1    H     H_    0.304379 0.069830 0.278934 0.201885
H2    H     H_    0.857871 0.270742 0.892939 0.173443
H3    H     H_    0.986178 0.448732 0.892213 0.168785
H4    H     H_    0.909536 0.361108 0.998182 0.148955
H5    H     H_    0.857949 0.920760 0.569207 0.199738
H6    H     H_    0.797085 0.118757 0.589474 0.129772
H7    H     H_    0.971709 0.072810 0.508580 0.244024
H8    H     H_    0.172126 0.165183 0.643000 0.245737
H9    H     H_    0.366617 0.096344 0.684500 0.163547
H10   H     H_    0.168495 0.985571 0.695465 0.180889
H11   H     H_    0.948035 0.403176 0.306152 0.182355
H12   H     H_    0.505363 0.179659 0.268954 0.110500
H13   H     H_    0.812618 0.260063 0.369805 0.177771
H14   H     H_    0.007850 0.207572 0.314209 0.196376
H15   H     H_    0.183584 0.727681 0.636322 0.189714
H16   H     H_    0.049784 0.574444 0.693353 0.180082
H17   H     H_    0.986904 0.769787 0.695186 0.195430
H18   H     H_    0.405291 0.104520 0.168742 0.166519
H19   H     H_    0.558094 0.905377 0.823246 0.179382
H20   H     H_    0.490227 0.826214 0.715881 0.120959
H21   H     H_    0.683087 0.946890 0.720315 0.160092
H22   H     H_    0.880006 0.025252 0.138765 0.229522
H23   H     H_    0.661907 0.954006 0.135701 0.098734
H24   H     H_    0.787410 0.012506 0.032800 0.168481
N1    N     N_2   0.950330 0.457950 0.475660 0.179382
N2    N     N_2   0.049670 0.542050 0.524340 0.190098
O1    O     O_R   0.389250 0.738570 0.505970 -0.613369
O2    O     O_3   0.701019 0.726107 0.761644 -0.567214
O3    O     O_3   0.851008 0.804894 0.083803 -0.521927
O4    O     O_3   0.107170 0.250288 0.921682 -0.519653
O5    O     O_3   0.732780 0.013200 0.467050 -0.609284
O6    O     O_3   0.282689 0.986552 0.565500 -0.643517
O7    O     O_3   0.033882 0.346141 0.427175 -0.540648
O8    O     O_3   0.964999 0.649026 0.575938 -0.531965
O9    O     O_R   0.610750 0.261430 0.494030 -0.640175
O10   O     O_R   0.678390 0.711620 0.490370 -0.545948
O11   O     O_R   0.321610 0.288380 0.509630 -0.572667
O12   O     O_R   0.355420 0.513510 0.639950 -0.651297
O13   O     O_R   0.644580 0.486490 0.360050 -0.641716
O14   O     O_R   0.644560 0.486560 0.624350 -0.587032
O15   O     O_R   0.355440 0.513440 0.375650 -0.560954
O16   O     O_3   0.288869 0.291011 0.237717 -0.562512
Zn1   Zn    Zn3+2 0.306940 0.517990 0.510420 1.062646
Zn2   Zn    Zn3+2 0.693060 0.482010 0.489580 1.057824

loop_
_geom_bond_atom_site_label_1
_geom_bond_atom_site_label_2
_ccdc_geom_bond_type
C22   H14   S    
C12   O9    A    
C21   O6    S    
O10   Zn2   S    
C6    F2    S    
C28   O14   A    
C20   H7    S    
C26   C27   D    
C19   H2    S    
C16   H1    S    
C20   H6    S    
C18   O3    S    
C15   C25   A    
C29   O13   A    
C11   C25   A    
C13   C23   A    
C3    C29   S    
C2    C13   A    
C19   H3    S    
N1    O7    S    
C21   H9    S    
C18   H24   S    
C7    C14   A    
C11   C30   A    
O1    Zn1   S    
C23   F3    S    
O13   Zn2   S    
C9    C10   A    
C17   H21   S    
C18   H22   S    
C25   F4    S    
C24   H17   S    
C22   H13   S    
N1    N2    D    
O9    Zn2   S    
C28   O12   A    
N1    Zn2   S    
C4    C28   S    
C24   H16   S    
N2    Zn1   S    
C12   C27   S    
C20   O5    S    
C4    C6    A    
C16   H12   S    
C5    C7    A    
C20   H5    S    
C6    C8    A    
C14   C23   A    
C3    C30   A    
C2    C4    A    
O12   Zn1   S    
C19   H4    S    
C17   O2    S    
C21   H10   S    
C30   O16   S    
C18   H23   S    
C19   O4    S    
C15   O4    S    
O15   Zn1   S    
C12   O11   A    
C8    C15   A    
C9    C11   A    
C1    C26   S    
C17   H19   S    
O11   Zn1   S    
C24   H15   S    
C7    C9    A    
C16   O16   S    
C26   O5    S    
C16   H18   S    
C3    C5    A    
C10   C13   A    
C1    O1    A    
C29   O15   A    
C1    O10   A    
C27   O6    S    
C14   O3    S    
C22   O7    S    
C24   O8    S    
C21   H8    S    
C22   H11   S    
N2    O8    S    
C8    C10   A    
O14   Zn2   S    
C17   H20   S    
C2    O2    S    
C5    F1    S    
