data_mof_unit_30743.cif
_audit_creation_date              2012-12-10T16:46:02-0500
_audit_creation_method            fapswitch 2.2
_symmetry_space_group_name_H-M    P1
_symmetry_Int_Tables_number       1
_space_group_crystal_system       triclinic
_cell_length_a                    10.725428
_cell_length_b                    8.675007
_cell_length_c                    7.461264
_cell_angle_alpha                 102.838533
_cell_angle_beta                  95.054594
_cell_angle_gamma                 92.364975
_cell_volume                      672.907704829

loop_
_atom_site_label
_atom_site_type_symbol
_atom_type_description
_atom_site_fract_x
_atom_site_fract_y
_atom_site_fract_z
_atom_type_partial_charge
C1    C     C_R   0.494961 0.199714 0.453327 0.887810
C2    C     C_3   0.878077 0.493879 0.498062 -0.339214
C3    C     C_3   0.938476 0.664979 0.578615 0.514885
C4    C     C_3   0.915471 0.442273 0.296355 0.369322
C5    C     C_2   0.492624 0.031759 0.426935 -0.251057
C6    C     C_2   0.500823 0.967731 0.572821 -0.341935
C7    C     C_R   0.260033 0.498663 0.500376 0.810632
C8    C     C_R   0.502407 0.800131 0.546654 0.870923
C9    C     C_R   0.739955 0.497068 0.498627 0.905912
C10   C     C_3   0.076377 0.369941 0.599527 -0.488158
C11   C     C_3   0.934585 0.381450 0.621288 0.858177
C12   C     C_3   0.082843 0.661805 0.595583 -0.402305
C13   C     C_3   0.058392 0.451824 0.297533 -0.418936
C14   C     C_3   0.122237 0.496240 0.499207 -0.140444
Cu1   Cu    Cu3+1 0.514070 0.517380 0.684380 1.132867
Cu2   Cu    Cu3+1 0.485930 0.482620 0.315620 1.077286
H1    H     H_    0.129383 0.385522 0.738184 0.215047
H2    H     H_    0.123125 0.754553 0.531678 0.152548
H3    H     H_    0.909266 0.743071 0.484686 0.183821
H4    H     H_    0.485638 0.960554 0.286251 0.197203
H5    H     H_    0.507279 0.038901 0.713471 0.184445
H6    H     H_    0.402099 0.376839 0.947885 0.160234
H7    H     H_    0.096916 0.251627 0.518062 0.181607
H8    H     H_    0.120461 0.690026 0.743831 0.238028
H9    H     H_    0.087465 0.542022 0.221359 0.256759
H10   H     H_    0.088572 0.335606 0.222828 0.179722
H11   H     H_    0.878566 0.319594 0.231261 0.186683
N1    N     N_2   0.464720 0.456420 0.038520 -0.153832
N2    N     N_2   0.535280 0.543580 0.961480 0.221810
O1    O     O_R   0.509140 0.286130 0.619770 -0.591089
O2    O     O_R   0.485380 0.256770 0.308360 -0.600113
O3    O     O_R   0.329570 0.514650 0.655700 -0.633436
O4    O     O_R   0.305810 0.485300 0.344290 -0.610590
O5    O     O_R   0.514620 0.743230 0.691640 -0.567976
O6    O     O_R   0.490860 0.713870 0.380230 -0.538110
O7    O     O_R   0.694190 0.514700 0.655710 -0.447622
O8    O     O_R   0.670430 0.485350 0.344300 -0.494481
F1    F     F_    0.866384 0.539289 0.186205 -0.521628
F2    F     F_    0.616601 0.648770 0.076245 -0.433303
S1    S     S_3+6 0.855873 0.185899 0.580359 0.012428
O9    O     O_2   0.789699 0.134281 0.388962 -0.337690
O10   O     O_2   0.948973 0.066479 0.609185 -0.317943
O11   O     O_3   0.750197 0.191133 0.734986 -0.466877
H12   H     H_    0.752513 0.087728 0.770386 0.387437
F3    F     F_    0.924113 0.450400 0.805497 -0.533574
F4    F     F_    0.899189 0.731189 0.749677 -0.555276

loop_
_geom_bond_atom_site_label_1
_geom_bond_atom_site_label_2
_ccdc_geom_bond_type
Cu2   N1    S    
C9    O7    A    
C2    C4    S    
O11   H12   S    
C3    H3    S    
C7    O3    A    
Cu2   O4    S    
C12   H8    S    
Cu1   O5    S    
Cu2   O8    S    
N2    F2    S    
S1    O10   D    
C2    C3    S    
Cu1   O3    S    
C5    H4    S    
C8    O5    A    
C13   C14   S    
C6    H5    S    
Cu2   O2    S    
C7    O4    A    
C13   H9    S    
C5    C6    D    
C1    C5    S    
C2    C11   S    
C6    C8    S    
C9    O8    A    
C1    O1    A    
C4    F1    S    
Cu1   N2    S    
C7    C14   S    
Cu2   O6    S    
C11   S1    S    
C10   H7    S    
C13   H10   S    
C11   F3    S    
C10   C11   S    
C10   H1    S    
Cu1   Cu2   S    
Cu1   O7    S    
C1    O2    A    
C4    H11   S    
Cu1   O1    S    
C10   C14   S    
C12   H2    S    
C4    C13   S    
S1    O9    D    
N1    N2    D    
H6    N1    S    
C3    C12   S    
C3    F4    S    
C2    C9    S    
S1    O11   S    
C12   C14   S    
C8    O6    A    
