data_mof_unit_14594.cif
_audit_creation_date              2012-12-10T17:05:18-0500
_audit_creation_method            fapswitch 2.2
_symmetry_space_group_name_H-M    P1
_symmetry_Int_Tables_number       1
_space_group_crystal_system       triclinic
_cell_length_a                    10.030314
_cell_length_b                    10.705666
_cell_length_c                    15.351822
_cell_angle_alpha                 89.655974
_cell_angle_beta                  67.699516
_cell_angle_gamma                 89.227959
_cell_volume                      1525.06093615

loop_
_atom_site_label
_atom_site_type_symbol
_atom_type_description
_atom_site_fract_x
_atom_site_fract_y
_atom_site_fract_z
_atom_type_partial_charge
C1    C     C_R   0.496180 0.737222 0.505076 0.917332
C2    C     C_R   0.748431 0.474451 0.024846 -0.018808
C3    C     C_R   0.607024 0.434189 0.079968 0.037116
C4    C     C_R   0.409909 0.497887 0.676456 0.869642
C5    C     C_R   0.841347 0.513969 0.068757 0.486185
C6    C     C_R   0.791747 0.516501 0.167098 -0.300565
C7    C     C_R   0.559488 0.441946 0.177932 -0.261594
C8    C     C_2   0.583782 0.066741 0.527801 -0.280103
C9    C     C_2   0.518167 0.131099 0.479877 0.342417
C10   C     C_2   0.594948 0.932788 0.522722 -0.147443
C11   C     C_2   0.483477 0.868103 0.521506 -0.255026
C12   C     C_R   0.438950 0.427329 0.903712 0.074544
C13   C     C_2   0.102099 0.417810 0.455207 -0.115008
C14   C     C_2   0.949484 0.413671 0.459883 -0.151932
C15   C     C_R   0.503611 0.262901 0.495672 0.773867
C16   C     C_R   0.590433 0.497617 0.323579 0.882963
C17   C     C_R   0.357322 0.471544 0.777113 -0.115472
C18   C     C_R   0.649179 0.485439 0.221275 -0.134702
C19   C     C_R   0.204677 0.353913 0.912320 -0.110782
C20   C     C_R   0.231391 0.403849 0.823050 -0.194224
C21   C     C_R   0.453008 0.491177 0.821494 -0.236778
C22   C     C_3   0.993512 0.677915 0.015075 0.064138
C23   C     C_R   0.307635 0.365872 0.953289 0.165363
C24   C     C_3   0.143544 0.714002 0.946249 -0.292875
C25   C     C_3   0.164357 0.855091 0.943773 -0.989290
C26   C     C_3   0.505389 0.140555 0.332092 0.112819
C27   C     C_3   0.489948 0.056733 0.256948 -0.831959
C28   C     C_3   0.767822 0.339342 0.747636 0.093607
C29   C     C_3   0.923046 0.293720 0.723618 -0.369587
C30   C     C_3   0.954137 0.173042 0.666611 -0.934666
C31   C     C_R   0.549613 0.428128 0.939808 -0.067348
C32   C     C_R   0.512184 0.398860 0.035966 0.042719
C33   C     C_R   0.379976 0.338047 0.085108 -0.205651
C34   C     C_R   0.281382 0.318267 0.042857 -0.221036
C35   C     C_R   0.696472 0.455097 0.883760 0.442662
C36   C     C_R   0.793113 0.478213 0.927001 -0.297303
H1    H     H_    0.182081 0.269969 0.081766 0.144291
H2    H     H_    0.863263 0.546583 0.200702 0.169721
H3    H     H_    0.902409 0.503639 0.883202 0.200496
H4    H     H_    0.105576 0.303840 0.948278 0.141403
H5    H     H_    0.156676 0.386681 0.789056 0.146283
H6    H     H_    0.540842 0.554714 0.789106 0.209830
H7    H     H_    0.352676 0.301039 0.155266 0.137567
H8    H     H_    0.978903 0.712218 0.086502 0.143341
H9    H     H_    0.911850 0.723626 0.991900 0.137777
H10   H     H_    0.226380 0.667686 0.967530 0.237616
H11   H     H_    0.158715 0.681357 0.874485 0.225636
H12   H     H_    0.632199 0.113399 0.571149 0.136112
H13   H     H_    0.084181 0.903212 0.921025 0.265544
H14   H     H_    0.274152 0.877856 0.893021 0.267851
H15   H     H_    0.152282 0.889715 0.014470 0.266513
H16   H     H_    0.619152 0.172906 0.306370 0.122680
H17   H     H_    0.431760 0.222221 0.341260 0.149228
H18   H     H_    0.376936 0.024712 0.279314 0.256258
H19   H     H_    0.518745 0.109331 0.189819 0.206221
H20   H     H_    0.562799 0.974098 0.245324 0.259079
H21   H     H_    0.747034 0.345131 0.681600 0.194222
H22   H     H_    0.690399 0.269844 0.793497 0.122274
H23   H     H_    0.694569 0.888390 0.519872 0.169237
H24   H     H_    0.999023 0.366572 0.682196 0.244296
H25   H     H_    0.941092 0.276890 0.789802 0.206180
H26   H     H_    0.880761 0.098177 0.707176 0.257485
H27   H     H_    0.067176 0.142492 0.650789 0.272419
H28   H     H_    0.939717 0.188129 0.599040 0.263638
H29   H     H_    0.379973 0.912394 0.533001 0.191749
H30   H     H_    0.176902 0.346901 0.413368 0.154412
H31   H     H_    0.076238 0.561457 0.542996 0.165155
H32   H     H_    0.920429 0.335150 0.426657 0.158240
H33   H     H_    0.881346 0.576224 0.526407 0.174068
H34   H     H_    0.449608 0.420586 0.221945 0.160727
N1    N     N_2   0.148330 0.498670 0.499030 -0.190479
N2    N     N_2   0.852680 0.498640 0.499000 -0.186605
O1    O     O_R   0.386950 0.680940 0.500010 -0.606090
O2    O     O_3   0.467712 0.072784 0.417356 -0.612133
O3    O     O_3   0.749144 0.461020 0.786404 -0.665937
O4    O     O_R   0.613110 0.680900 0.499990 -0.613805
O5    O     O_R   0.322330 0.500030 0.632270 -0.611629
O6    O     O_R   0.548480 0.499990 0.632240 -0.600265
O7    O     O_R   0.386890 0.319100 0.500010 -0.604486
O8    O     O_R   0.613050 0.319060 0.499990 -0.636614
O9    O     O_R   0.451520 0.500010 0.367760 -0.609206
O10   O     O_R   0.677670 0.499970 0.367730 -0.603151
O11   O     O_3   0.981856 0.546641 0.015460 -0.657716
Zn1   Zn    Zn3+2 0.349000 0.500030 0.500020 0.935964
Zn2   Zn    Zn3+2 0.651000 0.499970 0.499980 0.931380

loop_
_geom_bond_atom_site_label_1
_geom_bond_atom_site_label_2
_ccdc_geom_bond_type
C30   H28   S    
C34   H1    S    
C19   C20   A    
C1    C11   S    
C7    H34   S    
C25   H15   S    
N2    Zn2   S    
C27   H18   S    
C28   H21   S    
C12   C23   A    
C35   O3    S    
C26   C27   S    
C29   C30   S    
C28   C29   S    
C3    C7    A    
O7    Zn1   S    
C5    O11   S    
C27   H19   S    
C17   C20   A    
C25   H14   S    
C15   O7    A    
C31   C32   A    
C8    C9    D    
C6    H2    S    
O1    Zn1   S    
C23   C34   A    
C13   C14   S    
C24   H11   S    
C20   H5    S    
C13   H30   S    
C6    C18   A    
C29   H25   S    
C33   H7    S    
C24   C25   S    
C10   C11   D    
C27   H20   S    
C13   N1    D    
O5    Zn1   S    
C12   C21   A    
C17   C21   A    
C35   C36   A    
H33   N2    S    
C19   C23   A    
C8    H12   S    
C4    O6    A    
O8    Zn2   S    
C26   H16   S    
C15   O8    A    
C29   H24   S    
C7    C18   A    
C16   O10   A    
C33   C34   A    
C4    C17   S    
O6    Zn2   S    
C16   C18   S    
C30   H26   S    
C12   C31   A    
C22   C24   S    
C2    C5    A    
C9    O2    S    
C26   H17   S    
O9    Zn1   S    
N1    Zn1   S    
C2    C36   A    
C22   H8    S    
C1    O4    A    
C14   N2    D    
C36   H3    S    
C28   H22   S    
O10   Zn2   S    
C24   H10   S    
C22   O11   S    
C2    C3    A    
C9    C15   S    
C1    O1    A    
C4    O5    A    
C32   C33   A    
C5    C6    A    
C31   C35   A    
C16   O9    A    
C26   O2    S    
C10   H23   S    
H31   N1    S    
C3    C32   A    
C25   H13   S    
C19   H4    S    
C21   H6    S    
C22   H9    S    
C8    C10   S    
C14   H32   S    
C30   H27   S    
C28   O3    S    
O4    Zn2   S    
C11   H29   S    
