data_mof_unit_61130.cif
_audit_creation_date              2013-03-05T15:52:10-0500
_audit_creation_method            fapswitch 2.2
_symmetry_space_group_name_H-M    P1
_symmetry_Int_Tables_number       1
_space_group_crystal_system       triclinic
_cell_length_a                    11.661826
_cell_length_b                    11.856934
_cell_length_c                    18.762417
_cell_angle_alpha                 89.335174
_cell_angle_beta                  91.055822
_cell_angle_gamma                 119.35939
_cell_volume                      2260.73766166

loop_
_atom_site_label
_atom_site_type_symbol
_atom_site_description
_atom_site_fract_x
_atom_site_fract_y
_atom_site_fract_z
_atom_type_partial_charge
O1    O     O_R   0.911480 0.572650 0.170990 -0.474479
O2    O     O_R   0.427350 0.338830 0.170990 -0.481013
O3    O     O_R   0.661170 0.088520 0.170990 -0.491376
O4    O     O_R   0.572650 0.911480 0.829010 -0.467927
O5    O     O_R   0.338830 0.427350 0.829010 -0.462368
O6    O     O_R   0.088520 0.661170 0.829010 -0.490372
O7    O     O_R   0.640340 0.528970 0.175680 -0.508122
O8    O     O_R   0.471030 0.111370 0.175680 -0.485489
O9    O     O_R   0.888630 0.359660 0.175680 -0.494455
O10   O     O_R   0.528970 0.640340 0.824320 -0.476633
O11   O     O_R   0.111370 0.471030 0.824320 -0.504664
O12   O     O_R   0.359660 0.888630 0.824320 -0.465770
C1    C     C_R   0.512783 0.451133 0.149536 0.554013
C2    C     C_R   0.547851 0.065111 0.148433 0.562549
C3    C     C_R   0.919070 0.476725 0.143581 0.564440
C4    C     C_R   0.420321 0.540983 0.858999 0.534018
C5    C     C_R   0.064138 0.546302 0.850061 0.538879
C6    C     C_R   0.464047 0.889603 0.859287 0.526514
O13   O     O_R   0.909980 0.572450 0.331530 -0.465626
O14   O     O_R   0.427550 0.337530 0.331530 -0.501636
O15   O     O_R   0.662470 0.090020 0.331530 -0.471876
O16   O     O_R   0.572450 0.909980 0.668470 -0.437414
O17   O     O_R   0.337530 0.427550 0.668470 -0.439254
O18   O     O_R   0.090020 0.662470 0.668470 -0.459589
O19   O     O_R   0.638950 0.528780 0.324500 -0.409497
O20   O     O_R   0.471220 0.110170 0.324500 -0.434888
O21   O     O_R   0.889830 0.361050 0.324500 -0.442416
O22   O     O_R   0.528780 0.638950 0.675500 -0.445319
O23   O     O_R   0.110170 0.471220 0.675500 -0.463750
O24   O     O_R   0.361050 0.889830 0.675500 -0.461021
C7    C     C_R   0.518543 0.450279 0.353417 0.575072
C8    C     C_R   0.545174 0.060732 0.350871 0.573037
C9    C     C_R   0.938180 0.482528 0.351870 0.580499
C10   C     C_R   0.455585 0.520205 0.647363 0.581514
C11   C     C_R   0.075025 0.552737 0.644549 0.550806
C12   C     C_R   0.475231 0.926966 0.644783 0.569810
Cr1   Cr    Cr6+3 0.769160 0.541570 0.250690 1.150559
Cr2   Cr    Cr6+3 0.458430 0.227590 0.250690 1.146646
Cr3   Cr    Cr6+3 0.772410 0.230840 0.250690 1.158374
Cr4   Cr    Cr6+3 0.541570 0.769160 0.749310 1.159004
Cr5   Cr    Cr6+3 0.227590 0.458430 0.749310 1.142555
Cr6   Cr    Cr6+3 0.230840 0.772410 0.749310 1.151732
O25   O     O_3   0.666667 0.333333 0.250560 -0.351213
O26   O     O_3   0.333333 0.666667 0.749440 -0.397665
C13   C     C_R   0.494070 0.931364 0.933238 0.005659
C14   C     C_R   0.998749 0.516692 0.918190 0.024119
C15   C     C_R   0.414534 0.520612 0.938446 -0.005593
C16   C     C_R   0.964200 0.509232 0.068065 0.024859
C17   C     C_R   0.525753 0.998653 0.079427 0.037010
C18   C     C_R   0.445188 0.475883 0.086654 0.041524
C19   C     C_R   0.399440 0.939174 0.971747 0.019474
C20   C     C_R   0.010189 0.428324 0.960566 -0.027918
C21   C     C_R   0.493070 0.619704 0.985481 -0.050926
C22   C     C_R   0.991005 0.425389 0.032937 -0.010776
C23   C     C_R   0.414252 0.972245 0.042058 0.005679
C24   C     C_R   0.491353 0.600009 0.060126 0.021035
C25   C     C_R   0.627704 0.985838 0.042564 0.091083
C26   C     C_R   0.960861 0.609682 0.025063 0.097242
C27   C     C_R   0.357799 0.371827 0.040369 0.144460
C28   C     C_R   0.961381 0.602102 0.948963 0.131257
C29   C     C_R   0.614636 0.957896 0.968776 0.080147
C30   C     C_R   0.330363 0.396661 0.970073 0.119456
C31   C     C_3   0.259317 0.845950 0.976424 -0.005468
C32   C     C_3   0.916539 0.287290 0.960407 -0.035049
C33   C     C_3   0.635207 0.666833 0.998520 -0.070454
C34   C     C_3   0.920373 0.287690 0.041036 0.013858
C35   C     C_3   0.276200 0.872794 0.056234 -0.038552
C36   C     C_3   0.625314 0.696044 0.076575 -0.010673
H1    H     H_    0.236482 0.747065 0.960583 0.107971
H2    H     H_    0.954792 0.231197 0.936721 0.208704
H3    H     H_    0.702642 0.746924 0.966498 0.211751
H4    H     H_    0.821207 0.251265 0.063840 0.166207
H5    H     H_    0.220840 0.916367 0.078105 0.212345
H6    H     H_    0.699685 0.676415 0.097681 0.215011
C37   C     C_R   0.486238 0.967408 0.570363 0.105761
C38   C     C_R   0.040698 0.537791 0.569133 0.003515
C39   C     C_R   0.499223 0.495239 0.578569 0.019454
C40   C     C_R   0.015140 0.521854 0.419167 0.000318
C41   C     C_R   0.524375 0.004183 0.422031 0.075207
C42   C     C_R   0.488237 0.465395 0.427159 0.029593
C43   C     C_R   0.611233 0.044837 0.542419 -0.011529
C44   C     C_R   0.058861 0.645787 0.529575 -0.061917
C45   C     C_R   0.439922 0.375441 0.546670 -0.009937
C46   C     C_R   0.035972 0.632536 0.456860 -0.049630
C47   C     C_R   0.631289 0.068356 0.469786 0.030131
C48   C     C_R   0.445704 0.360688 0.474091 0.054324
C49   C     C_R   0.404969 0.903956 0.447535 -0.068461
C50   C     C_R   0.038226 0.436119 0.457755 -0.065218
C51   C     C_R   0.531674 0.583168 0.458350 -0.062248
C52   C     C_R   0.026464 0.431905 0.531935 -0.042325
C53   C     C_R   0.385099 0.889430 0.521614 -0.022080
C54   C     C_R   0.567355 0.595377 0.530725 -0.009504
C55   C     C_3   0.728083 0.027063 0.553578 0.287700
C56   C     C_3   0.992645 0.725899 0.538853 0.276315
C57   C     C_3   0.312331 0.257121 0.556079 0.300980
C58   C     C_3   0.962459 0.704635 0.459325 0.301660
C59   C     C_3   0.749228 0.049500 0.474370 0.283718
C60   C     C_3   0.322796 0.233498 0.477217 0.304672
H7    H     H_    0.324851 0.845740 0.411074 0.140933
H8    H     H_    0.062596 0.373208 0.430337 0.232179
H9    H     H_    0.557724 0.663689 0.424379 0.183718
H10   H     H_    0.019627 0.352638 0.561634 0.252947
H11   H     H_    0.294597 0.812562 0.541300 0.139861
H12   H     H_    0.654744 0.677652 0.547269 0.250495
I1    I     I_    0.803168 0.997632 0.091727 -0.189226
I2    I     I_    0.954280 0.772909 0.067628 -0.234017
I3    I     I_    0.297111 0.171925 0.061946 -0.171474
I4    I     I_    0.878431 0.693134 0.875593 -0.108833
I5    I     I_    0.789444 0.975592 0.912658 -0.190157
I6    I     I_    0.173100 0.233006 0.914033 -0.135121
I7    I     I_    0.180900 0.943388 0.915119 -0.112017
I8    I     I_    0.732483 0.252390 0.909855 -0.257434
I9    I     I_    0.657309 0.489134 0.989084 -0.323981
I10   I     I_    0.074957 0.285493 0.105472 -0.193394
I11   I     I_    0.262147 0.717611 0.121413 -0.343430
I12   I     I_    0.571513 0.748594 0.178905 -0.217397
N1    N     N_R   0.695203 0.895725 0.568771 0.073185
O27   O     O_R   0.575260 0.806218 0.554878 -0.449890
O28   O     O_R   0.770938 0.872512 0.611040 -0.249983
N2    N     N_R   0.081439 0.860859 0.556258 0.073410
O29   O     O_R   0.049371 0.947312 0.536311 -0.223478
O30   O     O_R   0.155437 0.885042 0.612481 -0.279786
N3    N     N_R   0.208716 0.287564 0.566109 0.101553
O31   O     O_R   0.227537 0.398163 0.541568 -0.428151
O32   O     O_R   0.121665 0.226862 0.614886 -0.229187
N4    N     N_R   0.824247 0.623744 0.447775 0.070579
O33   O     O_R   0.760473 0.501166 0.464333 -0.366053
O34   O     O_R   0.767186 0.677562 0.414380 -0.328664
N5    N     N_R   0.872386 0.158565 0.459152 0.024330
O35   O     O_R   0.968792 0.166611 0.498138 -0.293596
O36   O     O_R   0.894412 0.187369 0.392161 -0.299330
N6    N     N_R   0.357916 0.135772 0.470063 0.074318
O37   O     O_R   0.469831 0.159203 0.497582 -0.401972
O38   O     O_R   0.304024 0.052784 0.419551 -0.317390
I13   I     I_    0.832957 0.158024 0.640686 -0.070557
I14   I     I_    0.837555 0.639804 0.617607 -0.103088
I15   I     I_    0.346233 0.160655 0.645586 -0.013118
I16   I     I_    0.043280 0.855337 0.379282 -0.024789
I17   I     I_    0.736823 0.903981 0.403755 -0.076552
I18   I     I_    0.175041 0.214799 0.398908 -0.015572

loop_
_geom_bond_atom_site_label_1
_geom_bond_atom_site_label_2
_geom_bond_distance
_ccdc_geom_bond_type
O19   C7    1.366448 A    
C25   I1    2.170319 S    
C39   C54   1.386852 A    
O20   C8    1.343684 A    
N4    O33   1.303882 A    
C44   C56   1.502300 S    
C49   C53   1.407968 A    
O18   Cr6   2.133453 S    
C29   I5    2.227777 S    
C15   C30   1.436045 A    
C41   C49   1.403197 A    
C57   C60   1.527253 S    
C17   C25   1.457701 A    
C7    C42   1.468736 S    
O21   C9    1.366159 A    
C16   C22   1.359371 A    
C25   C29   1.415299 A    
O8    Cr2   2.037738 S    
C18   C27   1.440231 A    
C60   N6    1.414003 S    
N1    O28   1.300864 A    
C10   C39   1.481015 S    
C58   I16   2.162188 S    
C9    C40   1.476062 S    
N3    O32   1.299478 A    
C2    C17   1.475102 S    
C13   C19   1.370983 A    
C36   H6    1.070659 S    
C14   C20   1.364411 A    
O9    Cr3   2.034964 S    
C43   C55   1.488368 S    
N4    O34   1.278415 A    
O10   Cr4   2.018149 S    
C46   C58   1.479507 S    
C42   C51   1.365096 A    
O2    C1    1.276401 A    
C35   I11   2.137157 S    
C52   H10   1.056513 S    
O5    C4    1.333190 A    
C42   C48   1.396290 A    
O13   Cr1   2.112573 S    
O19   Cr1   2.023225 S    
C40   C50   1.368997 A    
C56   N2    1.454104 S    
C34   H4    1.109584 S    
O4    Cr4   2.157292 S    
N2    O30   1.292491 A    
N6    O37   1.292319 A    
O15   Cr3   2.155450 S    
C56   I14   2.179361 S    
O1    C3    1.296110 A    
C32   H2    1.069554 S    
C21   C33   1.483115 S    
C28   I4    2.221741 S    
C47   C59   1.498589 S    
C37   C53   1.411774 A    
C15   C21   1.391817 A    
O23   Cr5   1.986139 S    
C33   C36   1.528155 S    
O16   Cr4   2.142394 S    
Cr6   O26   2.114229 S    
C3    C16   1.499644 S    
C4    C15   1.504715 S    
C20   C22   1.377493 A    
C49   H7    1.082776 S    
O15   C8    1.293428 A    
C31   C35   1.523521 S    
C11   C38   1.452320 S    
C57   I15   2.158521 S    
O18   C11   1.308593 A    
O12   Cr6   2.018314 S    
C31   H1    1.110379 S    
N3    O31   1.298973 A    
C19   C31   1.460012 S    
C5    C14   1.449712 S    
C20   C32   1.482663 S    
C38   C44   1.397563 A    
O3    Cr3   2.146412 S    
C37   C43   1.395450 A    
Cr3   O25   2.113492 S    
C33   H3    1.073833 S    
C27   I3    2.150840 S    
C60   I18   2.171765 S    
C26   I2    2.138491 S    
C32   C34   1.512631 S    
Cr1   O25   2.151991 S    
O22   Cr4   2.034666 S    
C12   C37   1.458344 S    
O14   Cr2   2.157728 S    
O2    Cr2   2.123718 S    
C30   I6    2.172797 S    
O7    C1    1.393766 A    
O17   C10   1.336439 A    
C45   C57   1.473204 S    
O7    Cr1   1.991665 S    
C58   N4    1.428581 S    
C51   C54   1.400980 A    
C56   C58   1.521949 S    
C50   H8    1.060177 S    
O3    C2    1.274742 A    
C36   I12   2.218909 S    
C35   H5    1.092639 S    
C50   C52   1.398969 A    
C44   C46   1.381198 A    
O13   C9    1.311620 A    
Cr5   O26   2.152055 S    
C14   C28   1.415777 A    
C6    C13   1.456354 S    
C55   C59   1.510027 S    
C41   C47   1.407380 A    
N2    O29   1.300963 A    
N5    O35   1.293934 A    
C21   C24   1.416076 A    
C57   N3    1.436470 S    
O6    C5    1.305282 A    
O5    Cr5   2.106963 S    
O11   C5    1.354639 A    
C27   C30   1.412962 A    
O8    C2    1.367478 A    
C34   I10   2.162673 S    
C51   H9    1.057673 S    
C33   I9    2.253869 S    
O20   Cr2   2.007405 S    
C53   H11   1.069732 S    
C55   I13   2.168196 S    
C17   C23   1.361120 A    
O17   Cr5   2.150172 S    
C23   C35   1.483277 S    
C16   C26   1.446733 A    
C22   C34   1.430865 S    
O1    Cr1   2.146040 S    
O16   C12   1.314047 A    
O23   C11   1.343896 A    
C55   N1    1.435815 S    
O24   C12   1.321577 A    
O9    C3    1.385887 A    
O4    C6    1.301914 A    
Cr2   O25   2.117496 S    
C24   C36   1.441689 S    
N1    O27   1.299286 A    
C8    C41   1.456942 S    
O21   Cr3   2.020691 S    
C13   C29   1.434235 A    
O11   Cr5   2.028220 S    
C19   C23   1.364229 A    
O22   C10   1.346039 A    
C31   I7    2.111981 S    
C48   C60   1.487841 S    
C18   C24   1.385484 A    
C32   I8    2.177412 S    
C54   H12   1.052185 S    
C59   N5    1.414905 S    
C1    C18   1.511297 S    
C40   C46   1.408545 A    
Cr4   O26   2.116696 S    
C45   C48   1.382042 A    
N6    O38   1.286351 A    
O6    Cr6   2.151639 S    
O12   C6    1.367281 A    
C39   C45   1.376710 A    
O24   Cr6   2.030192 S    
O10   C4    1.401981 A    
C26   C28   1.431989 A    
C59   I17   2.134152 S    
C43   C47   1.388731 A    
C38   C52   1.379355 A    
N5    O36   1.295526 A    
O14   C7    1.299041 A    
