data_mof_unit_20400.cif
_audit_creation_date              2012-12-11T16:08:49-0500
_audit_creation_method            fapswitch 2.2
_symmetry_space_group_name_H-M    P1
_symmetry_Int_Tables_number       1
_space_group_crystal_system       triclinic
_cell_length_a                    12.961413
_cell_length_b                    13.262172
_cell_length_c                    27.720912
_cell_angle_alpha                 94.753568
_cell_angle_beta                  90.354149
_cell_angle_gamma                 119.426325
_cell_volume                      4130.05277857

loop_
_atom_site_label
_atom_site_type_symbol
_atom_type_description
_atom_site_fract_x
_atom_site_fract_y
_atom_site_fract_z
_atom_type_partial_charge
C1    C     C_R   0.628965 0.894379 0.427626 0.581849
C2    C     C_R   0.576050 0.324805 0.228120 0.234147
C3    C     C_R   0.569387 0.311506 0.277670 -0.042995
C4    C     C_R   0.667334 0.326593 0.305286 -0.035415
C5    C     C_R   0.684003 0.353377 0.205631 0.059396
C6    C     C_1   0.695510 0.373240 0.154977 -0.028431
C7    C     C_1   0.653710 0.302145 0.355180 -0.045977
C8    C     C_1   0.704699 0.397729 0.113737 -0.006363
C9    C     C_R   0.170982 0.746662 0.350887 0.223310
C10   C     C_R   0.175674 0.746736 0.300126 0.042002
C11   C     C_R   0.181728 0.750738 0.198684 -0.019456
C12   C     C_R   0.601276 0.222508 0.440727 0.542759
C13   C     C_R   0.192190 0.664625 0.220894 -0.129268
C14   C     C_R   0.186583 0.659990 0.271105 0.233469
C15   C     C_R   0.172780 0.746776 0.147952 0.048344
C16   C     C_R   0.133156 0.816098 0.127067 0.071275
C17   C     C_R   0.190305 0.939492 0.358298 0.174387
C18   C     C_R   0.181965 0.935455 0.307639 -0.003883
C19   C     C_R   0.178655 0.841148 0.278492 -0.069718
C20   C     C_R   0.185739 0.028598 0.285694 -0.030223
C21   C     C_R   0.183587 0.028716 0.235526 0.210158
C22   C     C_R   0.167376 0.928861 0.205815 0.001162
C23   C     C_R   0.265868 0.874864 0.426250 0.561758
C24   C     C_R   0.176003 0.840293 0.227642 -0.030512
C25   C     C_R   0.134836 0.910501 0.155658 0.184606
C26   C     C_R   0.199311 0.850473 0.379373 0.008191
C27   C     C_R   0.756587 0.933640 0.357371 0.064961
C28   C     C_R   0.754173 0.926835 0.306686 0.001431
C29   C     C_R   0.744046 0.921247 0.204945 0.094323
C30   C     C_R   0.831824 0.020722 0.233565 0.119026
C31   C     C_R   0.838380 0.020292 0.283435 -0.123377
C32   C     C_R   0.741234 0.914919 0.154037 0.092072
C33   C     C_R   0.674247 0.806032 0.127052 -0.030987
C34   C     C_R   0.627660 0.898165 0.564640 0.545918
C35   C     C_R   0.571489 0.749634 0.354059 0.076062
C36   C     C_R   0.576448 0.733965 0.302816 0.029584
C37   C     C_R   0.663121 0.827975 0.279109 -0.047712
C38   C     C_R   0.495456 0.629978 0.274599 0.240210
C39   C     C_R   0.489498 0.626203 0.223472 0.267090
C40   C     C_R   0.574605 0.721210 0.199855 0.043022
C41   C     C_R   0.661178 0.822851 0.227941 -0.078004
C42   C     C_R   0.580086 0.714374 0.148783 0.085425
C43   C     C_R   0.655867 0.854768 0.380191 0.059683
C44   C     C_R   0.731680 0.279345 0.651635 -0.145317
C45   C     C_R   0.605035 0.229378 0.577706 0.532513
C46   C     C_R   0.748053 0.307430 0.701531 0.030255
C47   C     C_R   0.759679 0.341738 0.803032 0.009154
C48   C     C_R   0.826883 0.298099 0.779823 -0.105592
C49   C     C_R   0.821116 0.279953 0.729261 0.106216
C50   C     C_R   0.764214 0.358228 0.853667 -0.122641
C51   C     C_R   0.695325 0.400607 0.876378 0.003753
C52   C     C_R   0.602155 0.363387 0.645969 0.249083
C53   C     C_R   0.612066 0.387300 0.696793 0.085717
C54   C     C_R   0.683434 0.356201 0.724460 -0.052852
C55   C     C_R   0.549299 0.436991 0.721148 0.122785
C56   C     C_R   0.271734 0.879248 0.563388 0.543845
C57   C     C_R   0.553940 0.449790 0.771640 -0.147987
C58   C     C_R   0.620827 0.415562 0.798444 -0.016335
C59   C     C_R   0.688195 0.371361 0.775255 0.032664
C60   C     C_R   0.622626 0.427229 0.848497 -0.125882
C61   C     C_R   0.651761 0.297815 0.624678 -0.046607
C62   C     C_1   0.222356 0.862331 0.610087 0.011935
C63   C     C_R   0.082889 0.742301 0.718135 -0.100124
C64   C     C_R   0.067712 0.731494 0.767955 0.085713
C65   C     C_R   0.231935 0.930310 0.785863 0.092858
C66   C     C_R   0.245318 0.939262 0.735853 -0.089609
C67   C     C_1   0.634503 0.272369 0.395576 0.006590
C68   C     C_R   0.171318 0.845625 0.702185 -0.003684
C69   C     C_R   0.142941 0.825851 0.801897 0.093899
C70   C     C_1   0.125679 0.814772 0.853028 0.007652
C71   C     C_1   0.193857 0.853035 0.651477 -0.035140
C72   C     C_1   0.101576 0.798083 0.894578 0.005125
C73   C     C_1   0.646606 0.860411 0.609085 0.022414
C74   C     C_R   0.757538 0.793955 0.713462 -0.167977
C75   C     C_R   0.769493 0.778056 0.761829 -0.143031
C76   C     C_R   0.590281 0.787720 0.779093 0.098348
C77   C     C_R   0.578388 0.804425 0.729960 0.295996
C78   C     C_R   0.774112 0.355879 0.283454 -0.109755
C79   C     C_R   0.663387 0.808335 0.697625 0.046001
C80   C     C_R   0.687386 0.776119 0.794812 0.006902
C81   C     C_1   0.706423 0.766945 0.845121 -0.063936
C82   C     C_1   0.656760 0.833991 0.648635 0.020554
C83   C     C_1   0.724107 0.761109 0.887224 -0.020147
C84   C     C_R   0.066162 0.773531 0.079366 0.593565
C85   C     C_R   0.717132 0.441574 0.067369 0.549739
C86   C     C_R   0.718426 0.783256 0.080561 0.542891
C87   C     C_R   0.056860 0.766570 0.941343 0.534892
C88   C     C_R   0.711433 0.438266 0.928045 0.537282
C89   C     C_R   0.783807 0.370684 0.233693 0.094748
C90   C     C_R   0.748600 0.754308 0.936918 0.556545
Cr1   Cr    Cr6+3 0.416430 0.829200 0.492370 1.090995
Cr2   Cr    Cr6+3 0.674630 0.087020 0.504170 1.045853
Cr3   Cr    Cr6+3 0.408920 0.083740 0.503490 1.067639
Cr4   Cr    Cr6+3 0.914010 0.832750 0.013970 1.063801
Cr5   Cr    Cr6+3 0.922310 0.578600 0.003000 1.043393
Cr6   Cr    Cr6+3 0.656280 0.574630 0.003870 1.019221
H1    H     H_    0.849423 0.366590 0.305087 0.119889
H2    H     H_    0.195288 0.104739 0.307463 0.196974
H3    H     H_    0.908728 0.097080 0.303671 0.115022
H4    H     H_    0.822169 0.340112 0.875260 0.123075
H5    H     H_    0.773146 0.233155 0.634277 0.192942
H6    H     H_    0.882667 0.276293 0.800889 0.114367
H7    H     H_    0.571740 0.463782 0.865696 0.141584
H8    H     H_    0.504043 0.486131 0.789918 0.111763
H9    H     H_    0.027051 0.669687 0.691829 0.118580
H10   H     H_    0.314825 0.018524 0.723139 0.126656
H11   H     H_    0.823155 0.797436 0.688602 0.128303
H12   H     H_    0.844374 0.769631 0.773759 0.127296
H13   H     H_    0.486329 0.287807 0.294606 0.162727
H14   H     H_    0.201213 0.597790 0.199437 0.119345
O1    O     O_R   0.296680 0.802170 0.437540 -0.441120
O2    O     O_R   0.662610 0.183990 0.557860 -0.510165
O3    O     O_R   0.500730 0.201280 0.562180 -0.480691
O4    O     O_R   0.312500 0.978850 0.548170 -0.495805
O5    O     O_3   0.499990 0.999990 0.500010 -0.267431
O6    O     O_R   0.820790 0.857990 0.068830 -0.501258
O7    O     O_R   0.016700 0.827330 0.062850 -0.440839
O8    O     O_R   0.041970 0.673520 0.060040 -0.488586
O9    O     O_R   0.817980 0.483660 0.048840 -0.487232
O10   O     O_R   0.637200 0.461990 0.052510 -0.514250
O11   O     O_R   0.664790 0.681920 0.057970 -0.508811
O12   O     O_R   0.525380 0.838530 0.443500 -0.474020
O13   O     O_R   0.815840 0.852920 0.961840 -0.498584
O14   O     O_R   0.012100 0.822630 0.963670 -0.511702
O15   O     O_R   0.037010 0.668460 0.953040 -0.500138
O16   O     O_R   0.813390 0.478970 0.949660 -0.498782
O17   O     O_R   0.632250 0.456930 0.945520 -0.522904
O18   O     O_R   0.660200 0.677230 0.958780 -0.496821
O19   O     O_3   0.830870 0.661990 0.006950 -0.280052
O20   O     O_R   0.702130 0.995190 0.446810 -0.483347
O21   O     O_R   0.661770 0.181390 0.458760 -0.499930
O22   O     O_R   0.499820 0.198480 0.455280 -0.484588
O23   O     O_R   0.311660 0.976250 0.449080 -0.495173
O24   O     O_R   0.297580 0.804960 0.544440 -0.496925
O25   O     O_R   0.526220 0.841130 0.542590 -0.486359
O26   O     O_R   0.703030 0.997990 0.553710 -0.509092
O27   O     O_3   0.204149 0.130373 0.217403 -0.695359
H15   H     H_    0.244300 0.136720 0.186611 0.387998
O28   O     O_3   0.193167 0.032321 0.386096 -0.698907
H16   H     H_    0.157080 0.004823 0.417158 0.335776
N1    N     N_3   0.803613 0.019014 0.129858 -0.559835
H17   H     H_    0.886858 0.031126 0.120921 0.285572
H18   H     H_    0.754822 0.012545 0.098425 0.237522
N2    N     N_3   0.858155 0.023192 0.386106 -0.595206
H19   H     H_    0.867520 0.104428 0.380951 0.241851
H20   H     H_    0.933957 0.020334 0.375350 0.243974
N3    N     N_3   0.918502 0.121903 0.212608 -0.586023
H21   H     H_    0.002806 0.136583 0.222938 0.265736
H22   H     H_    0.911108 0.193278 0.227088 0.250442
N4    N     N_3   0.490284 0.614667 0.119355 -0.536031
H23   H     H_    0.521620 0.557287 0.109360 0.283769
H24   H     H_    0.465542 0.640933 0.088865 0.232022
O29   O     O_3   0.401593 0.529127 0.196245 -0.658355
H25   H     H_    0.330468 0.491211 0.215404 0.334542
O30   O     O_3   0.425764 0.530840 0.297017 -0.721039
H26   H     H_    0.415638 0.462132 0.275920 0.362916
N5    N     N_3   0.894428 0.403294 0.211448 -0.614622
H27   H     H_    0.957461 0.407975 0.236598 0.226504
H28   H     H_    0.926787 0.487459 0.201349 0.232745
N6    N     N_3   0.479087 0.663768 0.380192 -0.567140
H29   H     H_    0.396189 0.643257 0.365032 0.327185
H30   H     H_    0.489079 0.590217 0.379949 0.278013
N7    N     N_3   0.888061 0.231655 0.706241 -0.638971
H31   H     H_    0.861447 0.150903 0.719056 0.239285
H32   H     H_    0.977590 0.286386 0.716893 0.239244
N8    N     N_3   0.476991 0.470913 0.695282 -0.522378
H33   H     H_    0.389950 0.423416 0.705939 0.232862
H34   H     H_    0.507021 0.558862 0.705617 0.235847
O31   O     O_3   0.540199 0.399710 0.618058 -0.637700
H35   H     H_    0.570787 0.408643 0.585091 0.328062
O32   O     O_3   0.475331 0.309699 0.203719 -0.681118
H36   H     H_    0.488790 0.318505 0.168899 0.341073
N9    N     N_3   0.978158 0.624203 0.784359 -0.618668
H37   H     H_    0.934493 0.561956 0.754883 0.234905
H38   H     H_    0.914355 0.639967 0.800745 0.223287
N10   N     N_3   0.308270 0.026365 0.820422 -0.620399
H39   H     H_    0.364940 0.098774 0.802655 0.233060
H40   H     H_    0.362330 0.002156 0.838661 0.237752
N11   N     N_3   0.504926 0.784264 0.812624 -0.652157
H41   H     H_    0.549034 0.851239 0.840461 0.242963
H42   H     H_    0.467863 0.704827 0.827698 0.237992
O33   O     O_3   0.486654 0.818785 0.712404 -0.691175
H43   H     H_    0.433801 0.814715 0.738671 0.359733
N12   N     N_3   0.195733 0.667740 0.117355 -0.596489
H44   H     H_    0.281037 0.682998 0.126333 0.248362
H45   H     H_    0.133523 0.582228 0.122998 0.248797
O34   O     O_3   0.143934 0.648772 0.373813 -0.633087
H46   H     H_    0.077129 0.581611 0.354645 0.348650
O35   O     O_3   0.199029 0.575615 0.292396 -0.677025
H47   H     H_    0.198875 0.518543 0.266927 0.325107
O36   O     O_3   0.093443 0.975898 0.134891 -0.681401
H48   H     H_    0.045633 0.992402 0.158722 0.348399

loop_
_geom_bond_atom_site_label_1
_geom_bond_atom_site_label_2
_ccdc_geom_bond_type
C66   C68   A    
O32   H36   S    
N5    H27   S    
C12   O21   A    
C90   O13   A    
C35   C36   A    
Cr5   O16   S    
C21   O27   S    
C76   N11   S    
C45   O2    A    
C30   N3    S    
C53   C54   A    
N7    H32   S    
C46   C49   A    
C29   C30   A    
Cr6   O11   S    
C39   O29   S    
C33   C42   A    
C34   O25   A    
C36   C37   A    
N3    H22   S    
C8    C85   S    
C29   C32   A    
Cr3   O23   S    
C52   C61   A    
N1    H18   S    
Cr3   O5    S    
C5    C6    S    
Cr4   O7    S    
C86   O11   A    
C58   C60   A    
C15   C16   A    
C11   C24   A    
C16   C84   S    
N12   H44   S    
Cr6   O18   S    
C86   O6    A    
C18   C19   A    
O31   H35   S    
C23   C26   S    
Cr1   O1    S    
C85   O9    A    
C35   N6    S    
C88   O16   A    
N3    H21   S    
C74   H11   S    
O33   H43   S    
C14   O35   S    
C11   C15   A    
C1    C43   S    
N7    H31   S    
N12   H45   S    
C84   O7    A    
Cr1   O12   S    
N10   H39   S    
C77   O33   S    
C31   H3    S    
C63   H9    S    
C60   H7    S    
C35   C43   A    
C75   C80   A    
C18   C20   A    
C2    O32   S    
Cr4   O13   S    
C40   C42   A    
C75   H12   S    
N5    H28   S    
C21   C22   A    
N8    H34   S    
Cr2   O26   S    
C38   O30   S    
C66   H10   S    
C4    C7    S    
C81   C83   T    
C44   C46   A    
C9    C26   A    
C50   C51   A    
C47   C50   A    
C54   C59   A    
C53   C55   A    
C78   C89   A    
N10   H40   S    
C38   C39   A    
C12   C67   S    
C83   C90   S    
O30   H26   S    
Cr4   O19   S    
C74   C75   A    
C23   O23   A    
O36   H48   S    
Cr2   O21   S    
C76   C77   A    
N2    H20   S    
C1    O20   A    
C10   C14   A    
C39   C40   A    
Cr4   O6    S    
Cr2   O2    S    
C6    C8    T    
Cr5   O9    S    
C58   C59   A    
N9    H37   S    
C47   C59   A    
C22   C25   A    
N11   H41   S    
Cr6   O17   S    
N6    H30   S    
C52   O31   S    
C85   O10   A    
Cr2   O20   S    
C33   C86   S    
C4    C78   A    
C13   H14   S    
N4    H24   S    
C27   C43   A    
Cr5   O15   S    
C47   C48   A    
C34   O26   A    
C10   C19   A    
O28   H16   S    
C48   H6    S    
C15   N12   S    
C46   C54   A    
C78   H1    S    
C17   C18   A    
C77   C79   A    
C20   H2    S    
C17   O28   S    
Cr3   O3    S    
C64   C69   A    
C32   N1    S    
N9    H38   S    
C40   C41   A    
C74   C79   A    
C55   C57   A    
C65   N10   S    
C25   O36   S    
N8    H33   S    
C56   C62   S    
C2    C5    A    
C17   C26   A    
C3    C4    A    
Cr3   O22   S    
C73   C82   T    
C87   O15   A    
C72   C87   S    
C52   C53   A    
C9    C10   A    
C16   C25   A    
C57   H8    S    
C63   C68   A    
C48   C49   A    
C90   O18   A    
C12   O22   A    
C29   C41   A    
Cr5   O8    S    
Cr6   O10   S    
C28   C31   A    
C76   C80   A    
C80   C81   S    
C9    O34   S    
C51   C88   S    
C79   C82   S    
C56   O24   A    
C44   H5    S    
C89   N5    S    
C44   C61   A    
C88   O17   A    
C23   O1    A    
O27   H15   S    
C50   H4    S    
N2    H19   S    
N6    H29   S    
C36   C38   A    
C19   C24   A    
C64   N9    S    
O34   H46   S    
N1    H17   S    
C32   C33   A    
C11   C13   A    
C30   C31   A    
C27   N2    S    
C57   C58   A    
C87   O14   A    
Cr1   O24   S    
C28   C37   A    
C3    H13   S    
C68   C71   S    
C65   C69   A    
C45   C61   S    
Cr1   O5    S    
C62   C71   T    
C2    C3    A    
C22   C24   A    
Cr3   O4    S    
C37   C41   A    
O35   H47   S    
C42   N4    S    
Cr2   O5    S    
C69   C70   S    
C49   N7    S    
C34   C73   S    
C7    C67   T    
C63   C64   A    
C45   O3    A    
Cr1   O25   S    
C20   C21   A    
C84   O8    A    
C65   C66   A    
C27   C28   A    
Cr5   O19   S    
C56   O4    A    
N4    H23   S    
C70   C72   T    
C51   C60   A    
C55   N8    S    
O29   H25   S    
C13   C14   A    
C5    C89   A    
C1    O12   A    
Cr6   O19   S    
N11   H42   S    
Cr4   O14   S    
