data_mof_unit_7782.cif
_audit_creation_date              2012-12-10T17:01:38-0500
_audit_creation_method            fapswitch 2.2
_symmetry_space_group_name_H-M    P1
_symmetry_Int_Tables_number       1
_space_group_crystal_system       triclinic
_cell_length_a                    10.026297
_cell_length_b                    11.032904
_cell_length_c                    12.978687
_cell_angle_alpha                 86.448293
_cell_angle_beta                  75.526476
_cell_angle_gamma                 110.101527
_cell_volume                      1288.07555917

loop_
_atom_site_label
_atom_site_type_symbol
_atom_type_description
_atom_site_fract_x
_atom_site_fract_y
_atom_site_fract_z
_atom_type_partial_charge
C1    C     C_R   0.440054 0.254924 0.508741 0.859229
C2    C     C_R   0.559945 0.745075 0.491264 0.859239
C3    C     C_2   0.082163 0.514980 0.490501 0.170628
C4    C     C_2   0.917841 0.485028 0.509502 0.170643
C5    C     C_R   0.472758 0.495657 0.702479 0.794957
C6    C     C_R   0.527242 0.504344 0.297521 0.794967
C7    C     C_R   0.542327 0.505363 0.182757 -0.047109
C8    C     C_R   0.457674 0.494639 0.817243 -0.047110
C9    C     C_R   0.311388 0.488678 0.998099 -0.209604
C10   C     C_R   0.688613 0.511325 0.001900 -0.209602
C11   C     C_R   0.323828 0.487634 0.889104 -0.171663
C12   C     C_R   0.676173 0.512369 0.110896 -0.171661
C13   C     C_R   0.578936 0.502193 0.855226 -0.264445
C14   C     C_R   0.421065 0.497810 0.144773 -0.264445
C15   C     C_R   0.567396 0.503370 0.964016 0.172760
C16   C     C_R   0.432605 0.496633 0.035984 0.172760
C17   C     C_2   0.406565 0.115441 0.528233 -0.395950
C18   C     C_2   0.593432 0.884559 0.471782 -0.396009
C19   C     C_2   0.502056 0.063701 0.476319 -0.023130
C20   C     C_2   0.497930 0.936292 0.523690 -0.023075
Cu1   Cu    Cu3+1 0.647370 0.522180 0.481340 0.930623
Cu2   Cu    Cu3+1 0.352630 0.477820 0.518660 0.930625
H1    H     H_    0.317364 0.492746 0.199610 0.151164
H2    H     H_    0.682637 0.507256 0.800389 0.151165
H3    H     H_    0.770908 0.517868 0.138854 0.165254
H4    H     H_    0.229093 0.482136 0.861145 0.165256
H5    H     H_    0.207452 0.483514 0.052568 0.138775
H6    H     H_    0.792550 0.516491 0.947431 0.138776
H7    H     H_    0.686935 0.940638 0.402693 0.151682
H8    H     H_    0.313068 0.059368 0.597329 0.151676
H9    H     H_    0.939005 0.621934 0.386233 0.196906
H10   H     H_    0.060996 0.378063 0.613766 0.196931
N1    N     N_2   0.131210 0.444490 0.546730 -0.314878
N2    N     N_2   0.868790 0.555510 0.453270 -0.314871
O1    O     O_R   0.578710 0.332530 0.490040 -0.577788
O2    O     O_R   0.421290 0.667470 0.509960 -0.577776
O3    O     O_R   0.329810 0.295070 0.521560 -0.569317
O4    O     O_R   0.670190 0.704930 0.478440 -0.569321
O5    O     O_R   0.604230 0.515670 0.637800 -0.605869
O6    O     O_R   0.395770 0.484330 0.362200 -0.605873
O7    O     O_R   0.355330 0.478200 0.669330 -0.575433
O8    O     O_R   0.644670 0.521800 0.330670 -0.575429
C21   C     C_1   0.395457 0.869681 0.629346 0.246354
N3    N     N_1   0.314315 0.816725 0.713204 -0.301647
C22   C     C_1   0.604515 0.130304 0.370656 0.246301
N4    N     N_1   0.685643 0.183250 0.286791 -0.301625
C23   C     C_3   0.812759 0.369983 0.597873 -0.347540
C24   C     C_3   0.812864 0.237501 0.566661 -0.385836
C25   C     C_3   0.722282 0.126569 0.661549 -0.823943
H11   H     H_    0.770209 0.143472 0.730237 0.250311
H12   H     H_    0.605312 0.119779 0.687828 0.257717
H13   H     H_    0.724422 0.032421 0.637185 0.255225
H14   H     H_    0.765667 0.218896 0.498559 0.251184
H15   H     H_    0.925560 0.235462 0.537883 0.218035
H16   H     H_    0.842891 0.385042 0.674133 0.144852
H17   H     H_    0.698013 0.361631 0.619514 0.258463
C26   C     C_3   0.187249 0.630021 0.402126 -0.347546
C27   C     C_3   0.187157 0.762512 0.433324 -0.385829
C28   C     C_3   0.277860 0.873446 0.338455 -0.823884
H18   H     H_    0.394838 0.880240 0.312275 0.257713
H19   H     H_    0.230057 0.856546 0.269706 0.250310
H20   H     H_    0.275670 0.967593 0.362792 0.255212
H21   H     H_    0.074469 0.764586 0.462024 0.218013
H22   H     H_    0.234255 0.781082 0.501476 0.251173
H23   H     H_    0.301992 0.638367 0.380490 0.258496
H24   H     H_    0.157119 0.614960 0.325865 0.144834

loop_
_geom_bond_atom_site_label_1
_geom_bond_atom_site_label_2
_ccdc_geom_bond_type
C14   H1    S    
C5    C8    S    
C21   N3    T    
C19   C22   S    
C8    C13   A    
Cu1   O1    S    
C14   C16   A    
C24   H14   S    
C2    C18   S    
Cu2   O2    S    
C2    O4    A    
C1    C17   S    
C19   C20   S    
Cu1   O5    S    
C1    O3    A    
C12   H3    S    
C25   H13   S    
Cu2   O6    S    
H10   N1    S    
C5    O5    A    
H9    N2    S    
C28   H18   S    
C18   H7    S    
C22   N4    T    
C24   H15   S    
C17   H8    S    
C9    C11   A    
C9    H5    S    
C26   C27   S    
C6    C7    S    
C10   C12   A    
C8    C11   A    
C3    C26   S    
C24   C25   S    
C17   C19   D    
C9    C16   A    
C18   C20   D    
C10   C15   A    
C13   C15   A    
C4    N2    D    
C27   H22   S    
C7    C12   A    
C6    O6    A    
C28   H19   S    
Cu2   O7    S    
C3    N1    D    
C10   H6    S    
C15   C16   A    
C26   H24   S    
C23   C24   S    
C20   C21   S    
C1    O1    A    
C23   H16   S    
C25   H11   S    
C6    O8    A    
C2    O2    A    
C27   H21   S    
Cu2   N1    S    
C5    O7    A    
C28   H20   S    
Cu1   N2    S    
C11   H4    S    
C27   C28   S    
Cu1   Cu2   S    
Cu2   O3    S    
Cu1   O8    S    
C7    C14   A    
Cu1   O4    S    
C3    C4    S    
C13   H2    S    
C26   H23   S    
C23   H17   S    
C25   H12   S    
C4    C23   S    
