data_mof_unit_28291.cif
_audit_creation_date              2012-12-10T17:05:19-0500
_audit_creation_method            fapswitch 2.2
_symmetry_space_group_name_H-M    P1
_symmetry_Int_Tables_number       1
_space_group_crystal_system       triclinic
_cell_length_a                    10.059821
_cell_length_b                    10.749345
_cell_length_c                    15.424213
_cell_angle_alpha                 89.955105
_cell_angle_beta                  67.510975
_cell_angle_gamma                 90.029109
_cell_volume                      1541.07850959

loop_
_atom_site_label
_atom_site_type_symbol
_atom_type_description
_atom_site_fract_x
_atom_site_fract_y
_atom_site_fract_z
_atom_type_partial_charge
C1    C     C_R   0.501227 0.737216 0.498216 0.924832
C2    C     C_R   0.434329 0.555044 0.904708 0.120443
C3    C     C_R   0.308168 0.624848 0.952864 0.155954
C4    C     C_R   0.544235 0.546013 0.940885 0.034887
C5    C     C_R   0.509513 0.579226 0.035640 0.026557
C6    C     C_R   0.381475 0.647305 0.083363 -0.208808
C7    C     C_R   0.284504 0.672502 0.041307 -0.238482
C8    C     C_R   0.688335 0.510496 0.885155 0.017082
C9    C     C_R   0.785878 0.483219 0.928202 0.016710
C10   C     C_R   0.743222 0.497471 0.025495 0.141272
C11   C     C_R   0.604217 0.544324 0.079491 0.048344
C12   C     C_R   0.409690 0.501981 0.676110 0.858000
C13   C     C_R   0.836776 0.464698 0.070434 -0.168300
C14   C     C_R   0.790000 0.469660 0.167817 -0.221119
C15   C     C_R   0.558870 0.545471 0.177245 -0.244260
C16   C     C_2   0.612355 0.066951 0.499687 -0.160659
C17   C     C_2   0.493215 0.131278 0.511512 -0.331426
C18   C     C_2   0.608775 0.933058 0.505301 -0.152187
C19   C     C_2   0.506205 0.868815 0.490075 -0.329914
C20   C     C_2   0.112239 0.453319 0.433388 0.042138
C21   C     C_2   0.968042 0.472793 0.427250 -0.114506
C22   C     C_R   0.498731 0.262794 0.502224 0.921753
C23   C     C_R   0.590513 0.500901 0.323749 0.854008
C24   C     C_R   0.355225 0.525461 0.776616 -0.072894
C25   C     C_R   0.648988 0.506157 0.221402 -0.051386
C26   C     C_R   0.208944 0.647373 0.910729 -0.201592
C27   C     C_R   0.236624 0.602943 0.820493 -0.186826
C28   C     C_R   0.444310 0.493137 0.823067 -0.216622
H1    H     H_    0.189308 0.727143 0.078971 0.150275
H2    H     H_    0.945051 0.432152 0.030964 0.172577
H3    H     H_    0.714731 0.112571 0.486410 0.175357
H4    H     H_    0.388160 0.088623 0.530671 0.154450
H5    H     H_    0.693385 0.887287 0.520887 0.186743
H6    H     H_    0.425695 0.911556 0.468980 0.156232
H7    H     H_    0.191715 0.400424 0.377692 0.076702
H8    H     H_    0.959665 0.457724 0.360002 0.131141
H9    H     H_    0.858491 0.494530 0.564032 0.240848
H10   H     H_    0.449919 0.570226 0.220968 0.155409
H11   H     H_    0.861994 0.440473 0.201200 0.152855
H12   H     H_    0.114677 0.704440 0.945343 0.146234
H13   H     H_    0.169690 0.633145 0.783790 0.162542
H14   H     H_    0.525323 0.422909 0.791909 0.166746
H15   H     H_    0.356901 0.687406 0.151869 0.149472
N1    N     N_2   0.148330 0.498670 0.499030 0.148303
N2    N     N_2   0.852680 0.498640 0.499000 -0.169524
O1    O     O_R   0.386950 0.680940 0.500010 -0.570745
O2    O     O_R   0.613110 0.680900 0.499990 -0.601683
O3    O     O_R   0.322330 0.500030 0.632270 -0.590915
O4    O     O_R   0.548480 0.499990 0.632240 -0.607650
O5    O     O_R   0.386890 0.319100 0.500010 -0.628205
O6    O     O_R   0.613050 0.319060 0.499990 -0.617380
O7    O     O_R   0.451520 0.500010 0.367760 -0.630479
O8    O     O_R   0.677670 0.499970 0.367730 -0.617613
Zn1   Zn    Zn3+2 0.349000 0.500030 0.500020 1.022100
Zn2   Zn    Zn3+2 0.651000 0.499970 0.499980 0.954419
F1    F     F_    0.064442 0.588621 0.551991 -0.601729
N3    N     N_3   0.926513 0.435499 0.873770 -0.470506
H16   H     H_    0.978948 0.497305 0.819215 0.199610
H17   H     H_    0.914659 0.350613 0.844490 0.191024
N4    N     N_3   0.740478 0.516295 0.784520 -0.452708
H18   H     H_    0.784974 0.430381 0.756552 0.180071
H19   H     H_    0.820330 0.584586 0.760584 0.223025

loop_
_geom_bond_atom_site_label_1
_geom_bond_atom_site_label_2
_ccdc_geom_bond_type
C8    C9    A    
C2    C4    A    
C15   H10   S    
C23   O8    A    
C6    C7    A    
C7    H1    S    
C12   C24   S    
C22   O6    A    
C9    C10   A    
N1    F1    S    
C3    C7    A    
C17   C22   S    
C24   C27   A    
C12   O3    A    
C4    C8    A    
C20   C21   S    
O1    Zn1   S    
O8    Zn2   S    
C2    C3    A    
C26   C27   A    
C21   H8    S    
C13   C14   A    
C8    N4    S    
C16   H3    S    
O3    Zn1   S    
C20   H7    S    
C26   H12   S    
C23   O7    A    
O5    Zn1   S    
C28   H14   S    
C20   N1    D    
O7    Zn1   S    
C5    C11   A    
C21   N2    D    
C6    H15   S    
C23   C25   S    
C14   C25   A    
N4    H19   S    
C5    C6    A    
C14   H11   S    
C18   H5    S    
C1    O1    A    
N3    H17   S    
C12   O4    A    
C15   C25   A    
C10   C11   A    
H9    N2    S    
N1    Zn1   S    
C22   O5    A    
C13   H2    S    
N2    Zn2   S    
C9    N3    S    
O2    Zn2   S    
C18   C19   D    
C3    C26   A    
C17   H4    S    
C27   H13   S    
C4    C5    A    
C2    C28   A    
O6    Zn2   S    
N3    H16   S    
O4    Zn2   S    
C1    C19   S    
C11   C15   A    
C10   C13   A    
C16   C18   S    
C1    O2    A    
C24   C28   A    
C16   C17   D    
N4    H18   S    
C19   H6    S    
