data_mof_unit_56040.cif
_audit_creation_date              2012-12-10T19:56:31-0500
_audit_creation_method            fapswitch 2.2
_symmetry_space_group_name_H-M    P1
_symmetry_Int_Tables_number       1
_space_group_crystal_system       triclinic
_cell_length_a                    14.964304
_cell_length_b                    14.140492
_cell_length_c                    23.413591
_cell_angle_alpha                 90.234754
_cell_angle_beta                  89.408372
_cell_angle_gamma                 90.037605
_cell_volume                      4954.07058181

loop_
_atom_site_label
_atom_site_type_symbol
_atom_type_description
_atom_site_fract_x
_atom_site_fract_y
_atom_site_fract_z
_atom_type_partial_charge
C1    C     C_R   0.327802 0.500010 0.500028 0.818043
C2    C     C_R   0.538265 0.581314 0.702547 0.364232
C3    C     C_R   0.466172 0.579207 0.237666 0.349153
C4    C     C_R   0.531457 0.583111 0.762121 0.343077
C5    C     C_R   0.484664 0.494358 0.208473 0.033619
C6    C     C_R   0.506782 0.500702 0.791223 0.066876
C7    C     C_R   0.094313 0.577880 0.479015 -0.186477
C8    C     C_R   0.906899 0.420037 0.483446 -0.191742
C9    C     C_R   0.905481 0.580956 0.520866 -0.173418
C10   C     C_R   0.094022 0.423823 0.525164 -0.187297
C11   C     C_R   0.186462 0.577705 0.478394 -0.223680
C12   C     C_R   0.672293 0.500064 0.500181 0.816725
C13   C     C_R   0.814783 0.419731 0.482890 -0.200971
C14   C     C_R   0.813358 0.581010 0.519786 -0.219608
C15   C     C_R   0.186160 0.423176 0.523958 -0.203588
C16   C     C_R   0.232160 0.500167 0.500637 -0.000012
C17   C     C_R   0.768100 0.500287 0.500936 -0.013024
C18   C     C_R   0.048244 0.500986 0.502483 0.122689
C19   C     C_R   0.952097 0.500579 0.502498 0.123769
C20   C     C_R   0.497766 0.499809 0.389315 0.935184
C21   C     C_R   0.501819 0.500223 0.610644 0.927438
C22   C     C_R   0.463817 0.104071 0.454261 -0.393433
C23   C     C_R   0.501858 0.410813 0.238453 0.481680
C24   C     C_R   0.464526 0.895836 0.546671 -0.392324
C25   C     C_R   0.534024 0.104410 0.546075 -0.389420
C26   C     C_R   0.532743 0.895970 0.453426 -0.365589
C27   C     C_R   0.462355 0.203948 0.455542 0.525510
C28   C     C_R   0.462867 0.795911 0.545183 0.532751
C29   C     C_R   0.536752 0.204247 0.544646 0.524124
C30   C     C_R   0.535772 0.796400 0.454701 0.533387
C31   C     C_R   0.498615 0.053100 0.500208 0.082508
C32   C     C_R   0.498494 0.947059 0.500114 0.063568
C33   C     C_R   0.579883 0.480965 0.880758 0.605765
C34   C     C_R   0.485672 0.417527 0.761836 0.464942
C35   C     C_R   0.410505 0.510002 0.118424 0.622011
C36   C     C_R   0.424808 0.520152 0.878778 0.604253
C37   C     C_R   0.567272 0.478095 0.120515 0.608800
C38   C     C_R   0.420389 0.523188 0.938559 -0.191755
C39   C     C_R   0.572623 0.477765 0.060693 -0.193443
C40   C     C_R   0.497366 0.498294 0.969566 -0.133808
C41   C     C_R   0.493934 0.496493 0.029649 -0.141312
C42   C     C_R   0.577762 0.475164 0.940487 -0.190454
C43   C     C_R   0.411855 0.513541 0.058556 -0.192677
C44   C     C_R   0.341275 0.549363 0.968005 0.406114
C45   C     C_R   0.508364 0.414611 0.297695 -0.395301
C46   C     C_R   0.653600 0.457846 0.031155 0.399143
C47   C     C_R   0.334472 0.535793 0.026981 0.395827
C48   C     C_R   0.653551 0.447609 0.971770 0.402419
C49   C     C_3   0.282502 0.683141 0.928104 0.140427
C50   C     C_3   0.247159 0.744819 0.977319 -0.346789
C51   C     C_3   0.253911 0.849709 0.962847 -0.982993
C52   C     C_3   0.779605 0.523384 0.069965 0.157106
C53   C     C_3   0.847680 0.541871 0.021913 -0.347240
C54   C     C_3   0.913669 0.619411 0.038363 -0.975501
C55   C     C_3   0.334220 0.245810 0.410078 0.089098
C56   C     C_R   0.482987 0.418806 0.702518 -0.388613
C57   C     C_3   0.296523 0.320553 0.369900 -0.298983
C58   C     C_3   0.194695 0.316993 0.368264 -0.976202
C59   C     C_3   0.334589 0.753681 0.591810 0.084959
C60   C     C_3   0.296647 0.679965 0.633054 -0.276009
C61   C     C_3   0.194781 0.683703 0.635719 -0.970296
C62   C     C_3   0.663996 0.245283 0.591724 0.086790
C63   C     C_3   0.701081 0.320150 0.632445 -0.294452
C64   C     C_3   0.802588 0.314208 0.636530 -0.974097
C65   C     C_3   0.664593 0.737733 0.414549 0.151001
C66   C     C_3   0.714084 0.800041 0.371347 -0.396352
C67   C     C_R   0.489675 0.498715 0.327316 -0.305185
C68   C     C_3   0.814692 0.782644 0.372990 -0.950641
C69   C     C_3   0.203750 0.469881 0.060107 0.159002
C70   C     C_3   0.137670 0.457625 0.011061 -0.343386
C71   C     C_3   0.070625 0.378808 0.023516 -0.977075
C72   C     C_3   0.718339 0.316928 0.930394 0.144032
C73   C     C_3   0.749905 0.252788 0.978735 -0.347345
C74   C     C_3   0.746051 0.148805 0.961251 -0.981303
C75   C     C_3   0.454171 0.260422 0.219909 0.061796
C76   C     C_3   0.468931 0.175498 0.180360 -0.299987
C77   C     C_3   0.400027 0.097961 0.191571 -0.979044
C78   C     C_R   0.507741 0.500550 0.672645 -0.305675
C79   C     C_3   0.530684 0.269987 0.787037 0.064782
C80   C     C_3   0.513176 0.190378 0.829650 -0.316209
C81   C     C_3   0.586777 0.115778 0.826847 -0.990303
C82   C     C_3   0.347483 0.651789 0.346837 0.148433
C83   C     C_3   0.278494 0.679135 0.301932 -0.335141
C84   C     C_3   0.183815 0.675911 0.326728 -0.986000
C85   C     C_3   0.658148 0.643382 0.653319 0.149254
C86   C     C_3   0.728106 0.664081 0.699024 -0.346716
C87   C     C_3   0.822672 0.652882 0.674882 -0.966729
C88   C     C_3   0.523333 0.715678 0.201991 0.107835
C89   C     C_R   0.461943 0.579813 0.297239 0.369522
C90   C     C_3   0.500329 0.805762 0.169498 -0.318570
C91   C     C_3   0.581628 0.870155 0.162954 -0.979919
C92   C     C_3   0.484857 0.728803 0.791227 0.100499
C93   C     C_3   0.502348 0.806838 0.835027 -0.338140
C94   C     C_3   0.428801 0.881556 0.834485 -0.991667
H1    H     H_    0.529054 0.351859 0.320373 0.229410
H2    H     H_    0.558928 0.933160 0.416552 0.170054
H3    H     H_    0.562678 0.934705 0.139107 0.270281
H4    H     H_    0.635725 0.833190 0.138912 0.264842
H5    H     H_    0.419437 0.695076 0.802009 0.146117
H6    H     H_    0.480805 0.761134 0.748069 0.190636
H7    H     H_    0.505668 0.775239 0.878360 0.220256
H8    H     H_    0.567572 0.841209 0.825342 0.237434
H9    H     H_    0.426928 0.916914 0.792233 0.274840
H10   H     H_    0.442142 0.935743 0.867776 0.270445
H11   H     H_    0.362761 0.848689 0.843578 0.264878
H12   H     H_    0.221872 0.637341 0.460086 0.140185
H13   H     H_    0.244711 0.700600 0.888940 0.177792
H14   H     H_    0.780256 0.357216 0.467805 0.149565
H15   H     H_    0.777691 0.643463 0.534199 0.137544
H16   H     H_    0.221334 0.363344 0.541734 0.148719
H17   H     H_    0.353829 0.700871 0.918620 0.113388
H18   H     H_    0.176164 0.726543 0.986379 0.245338
H19   H     H_    0.286705 0.731467 0.016340 0.243017
H20   H     H_    0.324785 0.869835 0.955185 0.270390
H21   H     H_    0.227294 0.892440 0.999086 0.276377
H22   H     H_    0.214359 0.865770 0.924191 0.268243
H23   H     H_    0.816325 0.514264 0.110577 0.187493
H24   H     H_    0.735497 0.586381 0.076243 0.103484
H25   H     H_    0.460829 0.356058 0.680036 0.227013
H26   H     H_    0.885252 0.475888 0.012211 0.255295
H27   H     H_    0.812126 0.564257 0.982836 0.249066
H28   H     H_    0.877490 0.685902 0.048901 0.267198
H29   H     H_    0.960057 0.633102 0.002006 0.274890
H30   H     H_    0.953532 0.597161 0.075747 0.270149
H31   H     H_    0.305239 0.257895 0.453627 0.140728
H32   H     H_    0.314036 0.174525 0.394532 0.122689
H33   H     H_    0.317530 0.392009 0.384420 0.221881
H34   H     H_    0.323651 0.308876 0.326069 0.207087
H35   H     H_    0.171948 0.247020 0.352305 0.263106
H36   H     H_    0.059034 0.637195 0.460708 0.136541
H37   H     H_    0.169823 0.372726 0.339185 0.270089
H38   H     H_    0.165994 0.329665 0.411536 0.274727
H39   H     H_    0.306057 0.740345 0.548645 0.133388
H40   H     H_    0.314106 0.825304 0.606846 0.120175
H41   H     H_    0.317679 0.608169 0.618887 0.227529
H42   H     H_    0.323647 0.692739 0.676482 0.216025
H43   H     H_    0.172035 0.754244 0.650972 0.260506
H44   H     H_    0.169567 0.629129 0.665802 0.277301
H45   H     H_    0.166355 0.669475 0.592917 0.274040
H46   H     H_    0.694528 0.256525 0.548581 0.137347
H47   H     H_    0.942886 0.358107 0.468465 0.133490
H48   H     H_    0.682789 0.173972 0.607536 0.123862
H49   H     H_    0.682570 0.391635 0.617036 0.220214
H50   H     H_    0.671152 0.310360 0.675683 0.212782
H51   H     H_    0.822741 0.244279 0.653551 0.263279
H52   H     H_    0.827046 0.370337 0.665778 0.272707
H53   H     H_    0.834049 0.324641 0.593871 0.272353
H54   H     H_    0.681247 0.662770 0.404869 0.176224
H55   H     H_    0.689574 0.752684 0.458546 0.102356
H56   H     H_    0.689492 0.784452 0.327653 0.233972
H57   H     H_    0.700910 0.875684 0.381117 0.214945
H58   H     H_    0.940332 0.643069 0.536271 0.131225
H59   H     H_    0.840905 0.798947 0.416153 0.260833
H60   H     H_    0.848866 0.828974 0.341420 0.268556
H61   H     H_    0.829893 0.707772 0.362114 0.269020
H62   H     H_    0.165224 0.475862 0.100785 0.186458
H63   H     H_    0.246305 0.405370 0.064051 0.106734
H64   H     H_    0.100841 0.524845 0.004441 0.250981
H65   H     H_    0.174744 0.439687 0.971156 0.253494
H66   H     H_    0.106007 0.310830 0.030385 0.268525
H67   H     H_    0.025086 0.370400 0.986693 0.276446
H68   H     H_    0.029964 0.396369 0.062081 0.269486
H69   H     H_    0.058472 0.364637 0.543931 0.133958
H70   H     H_    0.760048 0.302457 0.891815 0.178333
H71   H     H_    0.648279 0.298752 0.918610 0.114284
H72   H     H_    0.819692 0.271488 0.990086 0.245332
H73   H     H_    0.706540 0.263186 0.017019 0.245689
H74   H     H_    0.676327 0.128243 0.951068 0.270300
H75   H     H_    0.769618 0.104198 0.996981 0.276986
H76   H     H_    0.789617 0.135697 0.923344 0.267566
H77   H     H_    0.386415 0.290108 0.211771 0.134591
H78   H     H_    0.457701 0.235698 0.264909 0.155235
H79   H     H_    0.464117 0.198727 0.135189 0.222814
H80   H     H_    0.436562 0.066702 0.417911 0.166304
H81   H     H_    0.536942 0.146264 0.187103 0.235553
H82   H     H_    0.405219 0.072077 0.236148 0.268596
H83   H     H_    0.412327 0.037714 0.161961 0.268645
H84   H     H_    0.331456 0.125216 0.184450 0.266697
H85   H     H_    0.597006 0.302097 0.796799 0.154723
H86   H     H_    0.532569 0.239524 0.743101 0.154082
H87   H     H_    0.509750 0.220330 0.873596 0.218670
H88   H     H_    0.447974 0.156339 0.820177 0.236025
H89   H     H_    0.589479 0.082718 0.783742 0.272992
H90   H     H_    0.572864 0.059832 0.858865 0.270522
H91   H     H_    0.437849 0.933013 0.583607 0.169441
H92   H     H_    0.652612 0.148213 0.836410 0.265070
H93   H     H_    0.340366 0.700552 0.383940 0.161110
H94   H     H_    0.332930 0.579405 0.363328 0.088786
H95   H     H_    0.292883 0.751694 0.286221 0.242433
H96   H     H_    0.282670 0.629309 0.265198 0.259240
H97   H     H_    0.167815 0.603509 0.342036 0.273362
H98   H     H_    0.135282 0.695417 0.293224 0.279540
H99   H     H_    0.176926 0.726675 0.362838 0.257369
H100  H     H_    0.669692 0.691990 0.616817 0.160097
H101  H     H_    0.667512 0.570353 0.636160 0.091902
H102  H     H_    0.560647 0.067304 0.582518 0.166720
H103  H     H_    0.719176 0.737455 0.715299 0.241390
H104  H     H_    0.719259 0.614359 0.735264 0.252544
H105  H     H_    0.833105 0.579610 0.658824 0.274646
H106  H     H_    0.871933 0.667389 0.708958 0.278332
H107  H     H_    0.834316 0.703503 0.639416 0.256587
H108  H     H_    0.575993 0.676459 0.177593 0.127553
H109  H     H_    0.549580 0.735940 0.244738 0.171660
H110  H     H_    0.475201 0.786653 0.126436 0.226263
H111  H     H_    0.446685 0.844660 0.192907 0.234053
H112  H     H_    0.606680 0.891708 0.205574 0.269401
N1    N     N_R   0.503861 0.501126 0.851854 -0.304842
N2    N     N_R   0.487364 0.493545 0.147530 -0.319059
N3    N     N_R   0.500000 0.252470 0.500000 -0.159574
N4    N     N_R   0.500000 0.747530 0.500000 -0.181715
O1    O     O_R   0.369060 0.579480 0.500000 -0.639340
O2    O     O_2   0.333599 0.523533 0.147899 -0.542156
O3    O     O_2   0.350919 0.534437 0.847398 -0.544557
O4    O     O_2   0.640875 0.463031 0.152002 -0.523556
O5    O     O_3   0.268238 0.585901 0.939667 -0.602947
O6    O     O_3   0.731840 0.438398 0.059948 -0.599328
O7    O     O_3   0.428315 0.253397 0.409977 -0.626284
O8    O     O_3   0.428679 0.746358 0.591089 -0.583017
O9    O     O_3   0.570071 0.254028 0.590552 -0.623346
O10   O     O_3   0.571118 0.748345 0.408350 -0.591900
O11   O     O_3   0.253376 0.554687 0.053714 -0.601828
O12   O     O_R   0.630940 0.420520 0.500000 -0.620733
O13   O     O_3   0.730065 0.413549 0.944952 -0.604349
O14   O     O_3   0.521258 0.328374 0.208731 -0.599208
O15   O     O_3   0.461373 0.337435 0.791940 -0.617801
O16   O     O_3   0.435666 0.662092 0.325016 -0.584286
O17   O     O_3   0.570563 0.660641 0.674511 -0.596192
O18   O     O_3   0.445438 0.660063 0.207600 -0.606126
O19   O     O_3   0.555609 0.662763 0.792793 -0.623657
O20   O     O_R   0.630940 0.579480 0.500000 -0.654806
O21   O     O_R   0.369060 0.420520 0.500000 -0.624786
O22   O     O_R   0.499970 0.579500 0.416160 -0.550847
O23   O     O_R   0.500030 0.420500 0.583840 -0.576825
O24   O     O_R   0.500030 0.579500 0.583840 -0.540779
O25   O     O_R   0.499970 0.420500 0.416160 -0.577703
O26   O     O_2   0.656958 0.467689 0.851377 -0.555900
Zn1   Zn    Zn3+2 0.500000 0.606140 0.500000 0.986197
Zn2   Zn    Zn3+2 0.500000 0.393860 0.500000 0.988162

loop_
_geom_bond_atom_site_label_1
_geom_bond_atom_site_label_2
_ccdc_geom_bond_type
C25   C31   A    
C14   H15   S    
C66   C68   S    
C54   H29   S    
C9    H58   S    
C26   C32   A    
C8    C13   A    
C23   C45   A    
C71   H68   S    
C64   H51   S    
C1    O1    A    
C44   O5    S    
C73   C74   S    
C81   H92   S    
C83   H96   S    
C15   H16   S    
C87   H105  S    
C89   O16   S    
C73   H73   S    
C68   H61   S    
C57   H34   S    
C74   H74   S    
C57   C58   S    
C53   H26   S    
C39   C41   A    
C31   C32   S    
C53   C54   S    
C7    C11   A    
C71   H66   S    
C82   O16   S    
C93   C94   S    
O21   Zn2   S    
C20   O22   A    
C33   C42   A    
C76   H79   S    
C57   H33   S    
C66   H56   S    
C68   H60   S    
C10   C15   A    
C67   C89   A    
C85   H100  S    
C58   H35   S    
C28   N4    A    
C15   C16   A    
C52   O6    S    
C94   H11   S    
C56   C78   A    
C8    C19   A    
C84   H97   S    
C70   H65   S    
C72   H71   S    
C35   N2    A    
C7    H36   S    
C75   C76   S    
C20   C67   S    
C9    C19   A    
C21   O23   A    
C21   O24   A    
C58   H38   S    
C74   H75   S    
C21   C78   S    
C45   C67   A    
C69   H63   S    
C63   H50   S    
O1    Zn1   S    
C70   C71   S    
C85   O17   S    
C80   H88   S    
C35   C43   A    
C60   H42   S    
C44   C47   A    
C34   C56   A    
C49   H17   S    
C52   H23   S    
C7    C18   A    
C40   C42   A    
C54   H28   S    
C94   H10   S    
C59   C60   S    
C88   H109  S    
C87   H107  S    
C26   H2    S    
C41   C43   A    
C14   C17   A    
C87   H106  S    
C62   H48   S    
C13   H14   S    
C22   H80   S    
C2    O17   S    
C90   H110  S    
C76   H81   S    
C25   C29   A    
C46   C48   A    
C51   H20   S    
C22   C31   A    
C63   C64   S    
C69   H62   S    
N4    Zn1   S    
C55   H31   S    
C34   O15   S    
C76   C77   S    
C72   C73   S    
C49   H13   S    
C68   H59   S    
C93   H7    S    
C9    C14   A    
C86   C87   S    
C85   H101  S    
C85   C86   S    
C72   O13   S    
O12   Zn2   S    
C51   H21   S    
C6    C34   A    
C82   H94   S    
C60   C61   S    
C70   H64   S    
C36   N1    A    
C12   C17   S    
C2    C4    A    
O23   Zn2   S    
C24   C32   A    
C38   C44   A    
C62   C63   S    
C2    C78   A    
C36   O3    S    
C90   H111  S    
C11   C16   A    
C1    O21   A    
C83   C84   S    
C5    C23   A    
C55   H32   S    
C58   H37   S    
C20   O25   A    
C11   H12   S    
C50   H18   S    
C50   C51   S    
C72   H70   S    
C1    C16   S    
C42   C48   A    
C80   H87   S    
C91   H3    S    
C65   H54   S    
C29   N3    A    
C33   O26   S    
C60   H41   S    
C12   O12   A    
C6    N1    S    
C8    H47   S    
C25   H102  S    
C86   H104  S    
C39   C46   A    
C4    C6    A    
C40   C41   A    
C55   O7    S    
C88   C90   S    
C75   O14   S    
C26   C30   A    
C77   H82   S    
C46   O6    S    
C22   C27   A    
C55   C57   S    
C64   H53   S    
C75   H77   S    
O22   Zn1   S    
O25   Zn2   S    
C79   H85   S    
C56   H25   S    
C81   H89   S    
C45   H1    S    
C37   O4    S    
C91   H112  S    
C52   C53   S    
C92   H6    S    
C30   O10   S    
C54   H30   S    
C33   N1    A    
C28   O8    S    
C71   H67   S    
C64   H52   S    
C94   H9    S    
C83   H95   S    
C27   N3    A    
C61   H45   S    
C24   C28   A    
C80   C81   S    
C3    C5    A    
C59   O8    S    
C93   H8    S    
C30   N4    A    
C65   O10   S    
C12   O20   A    
C48   O13   S    
C49   O5    S    
C59   H40   S    
C51   H22   S    
C35   O2    S    
C13   C17   A    
C82   H93   S    
C3    C89   A    
C50   H19   S    
C62   H46   S    
C4    O19   S    
C36   C38   A    
C66   H57   S    
C37   C39   A    
C53   H27   S    
C82   C83   S    
C62   O9    S    
C5    N2    S    
C38   C40   A    
C61   H43   S    
C90   C91   S    
C88   O18   S    
C61   H44   S    
C92   O19   S    
C10   C18   A    
N3    Zn2   S    
C79   O15   S    
C92   C93   S    
C37   N2    A    
C59   H39   S    
C84   H98   S    
C69   O11   S    
C65   C66   S    
C91   H4    S    
C65   H55   S    
C69   C70   S    
C73   H72   S    
C77   H83   S    
C74   H76   S    
C27   O7    S    
C86   H103  S    
C77   H84   S    
C79   C80   S    
C84   H99   S    
C29   O9    S    
C23   O14   S    
C49   C50   S    
C75   H78   S    
C18   C19   S    
C63   H49   S    
C79   H86   S    
C24   H91   S    
O20   Zn1   S    
C81   H90   S    
C88   H108  S    
C43   C47   A    
C3    O18   S    
O24   Zn1   S    
C47   O11   S    
C92   H5    S    
C10   H69   S    
C52   H24   S    
