data_mof_unit_57331.cif
_audit_creation_date              2012-12-10T18:09:05-0500
_audit_creation_method            fapswitch 2.2
_symmetry_space_group_name_H-M    P1
_symmetry_Int_Tables_number       1
_space_group_crystal_system       triclinic
_cell_length_a                    12.645642
_cell_length_b                    13.169088
_cell_length_c                    13.653276
_cell_angle_alpha                 90.780779
_cell_angle_beta                  95.500689
_cell_angle_gamma                 95.149057
_cell_volume                      2253.53141632

loop_
_atom_site_label
_atom_site_type_symbol
_atom_type_description
_atom_site_fract_x
_atom_site_fract_y
_atom_site_fract_z
_atom_type_partial_charge
C1    C     C_R   0.557139 0.691915 0.508035 0.861398
C2    C     C_1   0.530035 0.494390 0.217488 -0.179976
C3    C     C_R   0.335504 0.089183 0.318002 0.562760
C4    C     C_R   0.420449 0.206464 0.445961 -0.128906
C5    C     C_R   0.692002 0.835825 0.548910 -0.191443
C6    C     C_R   0.734370 0.935576 0.539476 -0.187495
C7    C     C_R   0.673589 0.005762 0.490826 0.041626
C8    C     C_R   0.566389 0.976047 0.453458 0.004112
C9    C     C_R   0.525090 0.872935 0.455251 -0.122841
C10   C     C_R   0.493998 0.046635 0.420986 -0.075280
C11   C     C_R   0.406059 0.016351 0.351279 -0.136782
C12   C     C_R   0.517520 0.496683 0.318310 0.885655
C13   C     C_R   0.382720 0.911827 0.330915 0.390139
C14   C     C_R   0.420539 0.848028 0.405583 0.326517
C15   C     C_R   0.496087 0.138877 0.471049 -0.192498
C16   C     C_R   0.341010 0.182657 0.368690 -0.308887
C17   C     C_R   0.589205 0.802033 0.505843 -0.084099
C18   C     C_R   0.900073 0.347980 0.634817 -0.397284
C19   C     C_R   0.209309 0.607834 0.367980 0.102976
C20   C     C_R   0.106356 0.615518 0.326346 -0.265134
C21   C     C_R   0.021725 0.568675 0.371440 -0.191512
C22   C     C_R   0.039231 0.518273 0.461601 0.030374
C23   C     C_R   0.443332 0.309525 0.484573 0.881009
C24   C     C_R   0.146240 0.504696 0.495422 0.195603
C25   C     C_R   0.955620 0.473256 0.514534 -0.044078
C26   C     C_R   0.980516 0.400520 0.587199 0.122178
C27   C     C_R   0.085863 0.380934 0.612386 -0.236565
C28   C     C_R   0.167620 0.434527 0.569155 -0.194119
C29   C     C_R   0.848836 0.498603 0.501790 -0.029796
C30   C     C_R   0.795006 0.371860 0.615179 0.634180
C31   C     C_R   0.482379 0.502939 0.681681 0.878070
C32   C     C_1   0.469636 0.502395 0.782505 -0.190815
C33   C     C_2   0.458664 0.499217 0.971508 -0.239229
C34   C     C_2   0.548169 0.491252 0.029794 0.038176
C35   C     C_1   0.540871 0.492442 0.132152 -0.047839
C36   C     C_1   0.461004 0.501222 0.868248 0.016774
H1    H     H_    0.105499 0.325369 0.667542 0.150440
H2    H     H_    0.918666 0.288628 0.686167 0.151814
H3    H     H_    0.275629 0.638228 0.330337 0.153794
H4    H     H_    0.944842 0.565984 0.329840 0.165373
H5    H     H_    0.092393 0.653391 0.257049 0.159717
H6    H     H_    0.246571 0.415796 0.591557 0.209861
H7    H     H_    0.382874 0.505328 0.001659 0.152956
H8    H     H_    0.285305 0.237579 0.345595 0.177703
H9    H     H_    0.554541 0.157231 0.533565 0.186993
H10   H     H_    0.742161 0.783629 0.587301 0.165484
H11   H     H_    0.816011 0.957595 0.568952 0.145242
N1    N     N_R   0.773270 0.445590 0.549770 -0.153377
N2    N     N_R   0.227520 0.553880 0.450750 -0.140316
O1    O     O_R   0.631100 0.627590 0.523760 -0.622040
O2    O     O_R   0.455900 0.662370 0.491970 -0.559547
O3    O     O_R   0.600200 0.480080 0.377830 -0.600277
O4    O     O_R   0.425000 0.514870 0.346040 -0.635951
O5    O     O_R   0.544100 0.337630 0.508030 -0.563181
O6    O     O_R   0.368900 0.372410 0.476240 -0.640759
O7    O     O_R   0.575000 0.485130 0.653960 -0.592614
O8    O     O_R   0.399800 0.519920 0.622170 -0.640504
Zn1   Zn    Zn3+2 0.616980 0.476780 0.521230 0.992105
Zn2   Zn    Zn3+2 0.383020 0.523220 0.478770 0.936428
C37   C     C_1   0.651299 0.483833 0.993771 0.192517
N3    N     N_1   0.733820 0.478049 0.965149 -0.240392
O9    O     O_3   0.341510 0.789225 0.447673 -0.610158
C38   C     C_3   0.314717 0.840229 0.532538 0.129943
H12   H     H_    0.286372 0.915838 0.513098 0.142027
H13   H     H_    0.384580 0.851240 0.589118 0.133753
C39   C     C_3   0.225417 0.775811 0.576841 -0.306217
H14   H     H_    0.155696 0.761443 0.520778 0.236084
H15   H     H_    0.253934 0.701371 0.599207 0.237481
C40   C     C_3   0.190509 0.828909 0.666763 -0.987726
H16   H     H_    0.258587 0.842498 0.724572 0.265939
H17   H     H_    0.125908 0.779924 0.697148 0.271480
H18   H     H_    0.159833 0.902903 0.646075 0.268383
O10   O     O_3   0.710964 0.316257 0.653639 -0.626433
C41   C     C_3   0.723834 0.316283 0.757850 0.077283
H19   H     H_    0.654450 0.350330 0.784768 0.185712
H20   H     H_    0.796623 0.362526 0.792207 0.127099
C42   C     C_3   0.723173 0.206394 0.792651 -0.373179
H21   H     H_    0.649019 0.161691 0.760191 0.230085
H22   H     H_    0.792524 0.171061 0.767144 0.217041
C43   C     C_3   0.728343 0.201947 0.904630 -0.923331
H23   H     H_    0.802750 0.244832 0.938685 0.272150
H24   H     H_    0.727742 0.121330 0.927511 0.263123
H25   H     H_    0.658346 0.234984 0.931525 0.265420
C44   C     C_1   0.817880 0.585904 0.447228 0.245227
N4    N     N_1   0.794103 0.656200 0.403027 -0.212845
O11   O     O_3   0.296352 0.877032 0.265001 -0.582353
C45   C     C_3   0.325066 0.798263 0.203529 0.106511
H26   H     H_    0.250973 0.750155 0.176897 0.152953
H27   H     H_    0.379364 0.746544 0.242493 0.118474
C46   C     C_3   0.375970 0.842226 0.113990 -0.399386
H28   H     H_    0.317703 0.885332 0.069582 0.221497
H29   H     H_    0.447378 0.894944 0.138847 0.209694
C47   C     C_3   0.409676 0.757759 0.049264 -0.927733
H30   H     H_    0.470081 0.714823 0.091246 0.269796
H31   H     H_    0.445259 0.791696 0.984586 0.267140
H32   H     H_    0.339497 0.704332 0.022617 0.260234
O12   O     O_3   0.254832 0.067485 0.242965 -0.597622
C48   C     C_3   0.294525 0.090704 0.151513 0.118427
H33   H     H_    0.243225 0.044036 0.093995 0.171766
H34   H     H_    0.377563 0.069492 0.147671 0.110010
C49   C     C_3   0.287943 0.203590 0.127135 -0.398160
H35   H     H_    0.205701 0.224413 0.134112 0.239805
H36   H     H_    0.344267 0.252246 0.179258 0.215422
C50   C     C_3   0.316617 0.225250 0.022902 -0.939911
H37   H     H_    0.399568 0.207145 0.015051 0.265532
H38   H     H_    0.310804 0.307221 0.007499 0.268698
H39   H     H_    0.260809 0.179118 0.968238 0.260533
C51   C     C_1   0.726761 0.104253 0.471379 0.160840
N5    N     N_1   0.769425 0.182852 0.455336 -0.178946

loop_
_geom_bond_atom_site_label_1
_geom_bond_atom_site_label_2
_ccdc_geom_bond_type
C2    C35   T    
C39   H15   S    
C45   H26   S    
C38   H13   S    
C47   H30   S    
O6    Zn2   S    
O10   C41   S    
C19   C20   A    
C18   C26   A    
C2    C12   S    
C50   H38   S    
C20   H5    S    
O4    Zn2   S    
C7    C8    A    
C42   H21   S    
C26   C27   A    
C49   H35   S    
C41   H20   S    
C46   C47   S    
C32   C36   T    
C30   N1    A    
C10   C15   A    
C5    C6    A    
O8    Zn2   S    
C39   C40   S    
C5    C17   A    
C14   O9    S    
C33   C36   S    
C51   N5    T    
C34   C35   S    
C40   H17   S    
C3    O12   S    
C8    C9    A    
C22   C25   A    
C13   O11   S    
C18   C30   A    
C31   O7    A    
C1    O1    A    
C16   H8    S    
C12   O4    A    
C39   H14   S    
C38   C39   S    
C49   H36   S    
C21   C22   A    
C34   C37   S    
C43   H25   S    
C50   H37   S    
C12   O3    A    
O12   C48   S    
C42   H22   S    
C25   C29   A    
C6    H11   S    
C29   N1    A    
C33   H7    S    
C44   N4    T    
C29   C44   S    
C43   H24   S    
C41   H19   S    
C30   O10   S    
O11   C45   S    
C25   C26   A    
C41   C42   S    
C37   N3    T    
O1    Zn1   S    
C4    C16   A    
C40   H18   S    
C9    C14   A    
O9    C38   S    
C19   N2    A    
C46   H29   S    
C31   C32   S    
C33   C34   D    
N1    Zn1   S    
C1    O2    A    
O3    Zn1   S    
C9    C17   A    
C49   C50   S    
C48   H34   S    
C45   H27   S    
C22   C24   A    
O2    Zn2   S    
C15   H9    S    
C23   O5    A    
O5    Zn1   S    
C42   C43   S    
C24   N2    A    
C4    C23   S    
C8    C10   A    
C24   C28   A    
C43   H23   S    
C23   O6    A    
C6    C7    A    
C47   H32   S    
C48   C49   S    
C5    H10   S    
C1    C17   S    
N2    Zn2   S    
C31   O8    A    
C4    C15   A    
C18   H2    S    
C11   C13   A    
C46   H28   S    
C47   H31   S    
C21   H4    S    
C27   H1    S    
C28   H6    S    
O7    Zn1   S    
C40   H16   S    
C3    C11   A    
C10   C11   A    
C38   H12   S    
C20   C21   A    
C19   H3    S    
C48   H33   S    
C45   C46   S    
C27   C28   A    
C7    C51   S    
C13   C14   A    
C50   H39   S    
C3    C16   A    
