data_mof_unit_18413.cif
_audit_creation_date              2012-12-11T15:17:56-0500
_audit_creation_method            fapswitch 2.2
_symmetry_space_group_name_H-M    P1
_symmetry_Int_Tables_number       1
_space_group_crystal_system       triclinic
_cell_length_a                    15.730791
_cell_length_b                    15.730763
_cell_length_c                    34.656999
_cell_angle_alpha                 89.980647
_cell_angle_beta                  89.980907
_cell_angle_gamma                 119.985032
_cell_volume                      7428.26383737

loop_
_atom_site_label
_atom_site_type_symbol
_atom_type_description
_atom_site_fract_x
_atom_site_fract_y
_atom_site_fract_z
_atom_type_partial_charge
C1    C     C_R   0.579290 0.441457 0.555368 0.607647
C2    C     C_R   0.558481 0.137828 0.555363 0.608968
C3    C     C_R   0.862103 0.420604 0.555375 0.609919
C4    C     C_R   0.441456 0.579289 0.055367 0.607613
C5    C     C_R   0.137828 0.558481 0.055363 0.608972
C6    C     C_R   0.420603 0.862102 0.055375 0.609928
C7    C     C_R   0.961450 0.511332 0.714403 0.358094
C8    C     C_R   0.486367 0.449309 0.714292 0.358633
C9    C     C_R   0.549958 0.037930 0.714314 0.358364
C10   C     C_R   0.511352 0.961475 0.214400 0.358100
C11   C     C_R   0.449310 0.486262 0.214281 0.358667
C12   C     C_R   0.037872 0.549937 0.214307 0.358386
C13   C     C_R   0.052956 0.464495 0.845279 0.043231
C14   C     C_R   0.526625 0.590195 0.843661 0.043013
C15   C     C_R   0.411506 0.946443 0.845146 0.042469
C16   C     C_R   0.464529 0.052998 0.345273 0.043240
C17   C     C_R   0.590294 0.526182 0.343587 0.043005
C18   C     C_R   0.946353 0.411477 0.345134 0.042450
C19   C     C_R   0.078221 0.468527 0.884139 -0.139222
C20   C     C_R   0.524485 0.612576 0.882511 -0.138718
C21   C     C_R   0.390233 0.921380 0.884029 -0.138701
C22   C     C_R   0.468550 0.078252 0.384133 -0.139237
C23   C     C_R   0.612709 0.524131 0.382439 -0.138767
C24   C     C_R   0.921316 0.390210 0.384019 -0.138724
C25   C     C_R   0.048788 0.604675 0.895167 0.034643
C26   C     C_R   0.399773 0.443198 0.896073 0.033708
C27   C     C_R   0.555890 0.951164 0.895164 0.034160
C28   C     C_R   0.604677 0.048790 0.395167 0.034644
C29   C     C_R   0.443192 0.399941 0.396097 0.033671
C30   C     C_R   0.951146 0.555881 0.395160 0.034138
C31   C     C_R   0.023863 0.600909 0.856133 -0.130167
C32   C     C_R   0.401565 0.420819 0.857040 -0.126392
C33   C     C_R   0.577074 0.975840 0.856106 -0.128618
C34   C     C_R   0.600922 0.023876 0.356132 -0.130178
C35   C     C_R   0.420771 0.401654 0.357062 -0.126400
C36   C     C_R   0.975797 0.577061 0.356100 -0.128522
C37   C     C_R   0.026611 0.532526 0.831217 -0.008483
C38   C     C_R   0.463427 0.493168 0.830910 -0.009094
C39   C     C_R   0.505929 0.972820 0.831133 -0.008758
C40   C     C_R   0.532554 0.026643 0.331213 -0.008474
C41   C     C_R   0.493168 0.463216 0.330887 -0.009064
C42   C     C_R   0.972743 0.505907 0.331123 -0.008761
C43   C     C_R   0.081025 0.540480 0.908936 -0.016870
C44   C     C_R   0.459114 0.541698 0.908616 -0.021666
C45   C     C_R   0.459418 0.918873 0.908895 -0.017367
C46   C     C_R   0.540486 0.081035 0.408934 -0.016857
C47   C     C_R   0.541759 0.459072 0.408595 -0.021640
C48   C     C_R   0.918848 0.459407 0.408890 -0.017389
C49   C     C_R   0.577527 0.442202 0.445609 0.579120
C50   C     C_R   0.557838 0.135187 0.445635 0.582296
C51   C     C_R   0.864823 0.422646 0.445631 0.583040
C52   C     C_R   0.442205 0.577520 0.945611 0.578995
C53   C     C_R   0.135186 0.557838 0.945636 0.582290
C54   C     C_R   0.422647 0.864826 0.945631 0.583041
C55   C     C_R   0.910329 0.449430 0.593646 0.012836
C56   C     C_R   0.549932 0.460740 0.593574 0.011328
C57   C     C_R   0.539009 0.089378 0.593603 0.012526
C58   C     C_R   0.449431 0.910329 0.093645 0.012849
C59   C     C_R   0.460739 0.549915 0.093570 0.011340
C60   C     C_R   0.089373 0.539007 0.093601 0.012535
C61   C     C_R   0.892921 0.374870 0.620839 0.134634
C62   C     C_R   0.624101 0.517738 0.620880 0.135179
C63   C     C_R   0.481897 0.106733 0.620826 0.134210
C64   C     C_R   0.374872 0.892911 0.120841 0.134641
C65   C     C_R   0.517714 0.624070 0.120883 0.135184
C66   C     C_R   0.106738 0.481908 0.120828 0.134214
C67   C     C_R   0.911834 0.397789 0.659556 -0.077627
C68   C     C_R   0.600656 0.513614 0.659563 -0.077548
C69   C     C_R   0.485919 0.087660 0.659530 -0.077753
C70   C     C_R   0.397797 0.911835 0.159557 -0.077617
C71   C     C_R   0.513595 0.600598 0.159563 -0.077547
C72   C     C_R   0.087643 0.485919 0.159529 -0.077746
C73   C     C_R   0.949630 0.493771 0.672617 -0.021722
C74   C     C_R   0.504501 0.455367 0.672499 -0.021526
C75   C     C_R   0.544087 0.049762 0.672540 -0.021705
C76   C     C_R   0.493785 0.949649 0.172615 -0.021711
C77   C     C_R   0.455368 0.504430 0.172490 -0.021526
C78   C     C_R   0.049719 0.544069 0.172534 -0.021697
C79   C     C_R   0.977410 0.569782 0.645817 -0.097496
C80   C     C_R   0.428874 0.407255 0.645567 -0.097584
C81   C     C_R   0.592211 0.021960 0.645708 -0.097751
C82   C     C_R   0.569791 0.977434 0.145813 -0.097478
C83   C     C_R   0.407272 0.428820 0.145549 -0.097570
C84   C     C_R   0.021915 0.592184 0.145699 -0.097750
C85   C     C_R   0.959768 0.549013 0.606131 0.031845
C86   C     C_R   0.450155 0.410532 0.605905 0.026590
C87   C     C_R   0.589056 0.039757 0.606033 0.031805
C88   C     C_R   0.549016 0.959783 0.106128 0.031857
C89   C     C_R   0.410549 0.450129 0.105889 0.026594
C90   C     C_R   0.039732 0.589037 0.106026 0.031810
C91   C     C_R   0.997188 0.529800 0.791082 0.378030
C92   C     C_R   0.466345 0.465311 0.790977 0.377541
C93   C     C_R   0.532716 0.002195 0.791000 0.378887
C94   C     C_R   0.529830 0.997218 0.291079 0.378024
C95   C     C_R   0.465272 0.466156 0.290963 0.377547
C96   C     C_R   0.002122 0.532697 0.290992 0.378925
Cr1   Cr    Cr6+3 0.522350 0.263930 0.500020 1.144250
Cr2   Cr    Cr6+3 0.736070 0.258420 0.500020 1.135670
Cr3   Cr    Cr6+3 0.741580 0.477650 0.500020 1.135617
Cr4   Cr    Cr6+3 0.263930 0.522350 0.000020 1.144313
Cr5   Cr    Cr6+3 0.258420 0.736070 0.000020 1.135690
Cr6   Cr    Cr6+3 0.477650 0.741580 0.000020 1.135601
H1    H     H_    0.103285 0.419604 0.894319 0.187288
H2    H     H_    0.569294 0.688135 0.891772 0.190343
H3    H     H_    0.316215 0.896249 0.894186 0.191408
H4    H     H_    0.419631 0.103323 0.394311 0.187194
H5    H     H_    0.688321 0.568751 0.391667 0.190261
H6    H     H_    0.896175 0.316189 0.394175 0.191406
H7    H     H_    0.895192 0.338954 0.679799 0.185157
H8    H     H_    0.659248 0.555705 0.679879 0.185212
H9    H     H_    0.443785 0.104286 0.679805 0.185020
H10   H     H_    0.338965 0.895186 0.179801 0.185161
H11   H     H_    0.555670 0.659182 0.179884 0.185228
H12   H     H_    0.104276 0.443793 0.179807 0.185022
H13   H     H_    0.011930 0.644922 0.655930 0.195114
H14   H     H_    0.353612 0.366546 0.655567 0.195410
H15   H     H_    0.632793 0.987340 0.655790 0.194879
H16   H     H_    0.644934 0.011966 0.155924 0.195107
H17   H     H_    0.366578 0.353550 0.155540 0.195408
H18   H     H_    0.987280 0.632754 0.155778 0.194863
H19   H     H_    0.999957 0.650113 0.845136 0.177742
H20   H     H_    0.356366 0.346021 0.846964 0.184020
H21   H     H_    0.650214 0.999794 0.845134 0.179803
H22   H     H_    0.650120 0.999962 0.345137 0.177720
H23   H     H_    0.345913 0.356642 0.347021 0.184022
H24   H     H_    0.999761 0.650205 0.345130 0.179890
N1    N     N_R   0.923307 0.445356 0.776510 -0.172275
N2    N     N_R   0.551653 0.477754 0.776503 -0.174178
N3    N     N_R   0.522596 0.076380 0.776421 -0.172444
N4    N     N_R   0.445388 0.923329 0.276509 -0.172283
N5    N     N_R   0.477787 0.551501 0.276500 -0.174261
N6    N     N_R   0.076318 0.522590 0.276418 -0.172463
N7    N     N_R   0.905760 0.436450 0.738880 -0.198920
N8    N     N_R   0.561279 0.469599 0.738886 -0.199374
N9    N     N_R   0.531231 0.093930 0.738786 -0.198905
N10   N     N_R   0.436478 0.905780 0.238880 -0.198919
N11   N     N_R   0.469647 0.561167 0.238885 -0.199396
N12   N     N_R   0.093876 0.531224 0.238783 -0.198903
N13   N     N_R   0.032890 0.597584 0.729194 -0.188940
N14   N     N_R   0.399379 0.432894 0.728974 -0.187853
N15   N     N_R   0.564322 0.966157 0.729109 -0.190151
N16   N     N_R   0.597602 0.032925 0.229190 -0.188944
N17   N     N_R   0.432835 0.399242 0.228951 -0.187816
N18   N     N_R   0.966087 0.564286 0.229098 -0.190217
N19   N     N_R   0.050556 0.606609 0.767022 -0.172185
N20   N     N_R   0.389619 0.441026 0.766797 -0.167258
N21   N     N_R   0.555692 0.948490 0.766944 -0.172295
N22   N     N_R   0.606631 0.050594 0.267017 -0.172174
N23   N     N_R   0.440951 0.389442 0.266773 -0.167067
N24   N     N_R   0.948411 0.555656 0.266932 -0.172277
O1    O     O_R   0.498680 0.159540 0.541860 -0.461273
O2    O     O_R   0.840460 0.339140 0.541860 -0.461352
O3    O     O_R   0.660860 0.501320 0.541860 -0.461669
O4    O     O_R   0.159540 0.498680 0.041860 -0.461278
O5    O     O_R   0.339140 0.840460 0.041860 -0.461355
O6    O     O_R   0.501320 0.660860 0.041860 -0.461688
O7    O     O_R   0.532760 0.358060 0.540030 -0.460646
O8    O     O_R   0.641940 0.174700 0.540030 -0.462707
O9    O     O_R   0.825300 0.467240 0.540030 -0.462497
O10   O     O_R   0.358060 0.532760 0.040030 -0.460638
O11   O     O_R   0.174700 0.641940 0.040030 -0.462704
O12   O     O_R   0.467240 0.825300 0.040030 -0.462490
O13   O     O_R   0.498590 0.161190 0.456930 -0.514586
O14   O     O_R   0.838810 0.337400 0.456930 -0.512182
O15   O     O_R   0.662600 0.501410 0.456930 -0.511082
O16   O     O_R   0.161190 0.498590 0.956930 -0.514571
O17   O     O_R   0.337400 0.838810 0.956930 -0.512184
O18   O     O_R   0.501410 0.662600 0.956930 -0.511141
O19   O     O_R   0.532680 0.359580 0.461300 -0.472063
O20   O     O_R   0.640420 0.173100 0.461300 -0.471316
O21   O     O_R   0.826900 0.467320 0.461300 -0.471948
O22   O     O_R   0.359580 0.532680 0.961300 -0.472004
O23   O     O_R   0.173100 0.640420 0.961300 -0.471311
O24   O     O_R   0.467320 0.826900 0.961300 -0.471914
O25   O     O_3   0.666667 0.333333 0.499990 -0.311605
O26   O     O_3   0.333333 0.666667 0.999990 -0.311589
Br1   Br    Br    0.838027 0.237586 0.609248 -0.420935
Br2   Br    Br    0.761547 0.599913 0.609482 -0.421631
Br3   Br    Br    0.399588 0.161793 0.609296 -0.420374
Br4   Br    Br    0.237582 0.837984 0.109254 -0.420931
Br5   Br    Br    0.599841 0.761531 0.109499 -0.421670
Br6   Br    Br    0.161850 0.399639 0.109304 -0.420395
C97   C     C_2   0.996251 0.632705 0.578696 0.618952
O27   O     O_2   0.015059 0.623035 0.545306 -0.473363
O28   O     O_R   0.012897 0.724131 0.591454 -0.645274
H25   H     H_    0.038559 0.775406 0.570240 0.360985
C98   C     C_2   0.366734 0.363132 0.578359 0.623010
O29   O     O_2   0.376841 0.390934 0.544850 -0.448514
O30   O     O_R   0.275044 0.288842 0.591142 -0.644688
H26   H     H_    0.223992 0.263022 0.569870 0.366751
C99   C     C_2   0.636148 0.003269 0.578550 0.618891
O31   O     O_2   0.607704 0.984728 0.545158 -0.473380
O32   O     O_R   0.710775 0.986316 0.591263 -0.645316
H27   H     H_    0.736317 0.960685 0.570018 0.361150
C100  C     C_2   0.632702 0.996265 0.078691 0.618935
O33   O     O_2   0.623026 0.015070 0.045301 -0.473358
O34   O     O_R   0.724132 0.012913 0.091447 -0.645283
H28   H     H_    0.775402 0.038574 0.070231 0.360974
C101  C     C_2   0.363161 0.366726 0.078334 0.623014
O35   O     O_2   0.390970 0.376860 0.044825 -0.448600
O36   O     O_R   0.288872 0.275026 0.091108 -0.644682
H29   H     H_    0.263060 0.223988 0.069830 0.366776
C102  C     C_2   0.003247 0.636125 0.078540 0.618872
O37   O     O_2   0.984714 0.607678 0.045148 -0.473379
O38   O     O_R   0.986290 0.710753 0.091248 -0.645323
H30   H     H_    0.960663 0.736292 0.070001 0.361141
C103  C     C_2   0.062097 0.393237 0.819813 0.606410
O39   O     O_2   0.047283 0.314763 0.832927 -0.463963
O40   O     O_R   0.090853 0.416732 0.781283 -0.653491
H31   H     H_    0.095093 0.362459 0.767226 0.363739
C104  C     C_2   0.591030 0.671383 0.816929 0.605346
O41   O     O_2   0.666896 0.741317 0.828967 -0.462027
O42   O     O_R   0.563917 0.669960 0.778399 -0.653977
H32   H     H_    0.613557 0.729734 0.763446 0.363562
C105  C     C_2   0.331142 0.937143 0.819619 0.606175
O43   O     O_2   0.267216 0.951617 0.832686 -0.461266
O44   O     O_R   0.326235 0.908649 0.781083 -0.654249
H33   H     H_    0.267721 0.904283 0.766984 0.363322
C106  C     C_2   0.393286 0.062156 0.319803 0.606379
O45   O     O_2   0.314816 0.047360 0.332914 -0.464056
O46   O     O_R   0.416791 0.090907 0.281273 -0.653473
H34   H     H_    0.362528 0.095160 0.267214 0.363751
C107  C     C_2   0.671518 0.590260 0.316805 0.605314
O47   O     O_2   0.741740 0.665959 0.328802 -0.462155
O48   O     O_R   0.669790 0.563022 0.278273 -0.653963
H35   H     H_    0.729623 0.612429 0.263286 0.363585
C108  C     C_2   0.937017 0.331107 0.319602 0.606168
O49   O     O_2   0.951449 0.267150 0.332666 -0.461271
O50   O     O_R   0.908540 0.326229 0.281065 -0.654252
H36   H     H_    0.904147 0.267706 0.266963 0.363324
C109  C     C_2   0.037912 0.674497 0.920635 0.600529
O51   O     O_2   0.054073 0.753849 0.908009 -0.475720
O52   O     O_R   0.005701 0.648264 0.958665 -0.627439
H37   H     H_    0.000487 0.701738 0.972932 0.362274
C110  C     C_2   0.337203 0.361568 0.922696 0.599853
O53   O     O_2   0.362435 0.362907 0.956164 -0.441942
O54   O     O_R   0.250834 0.281004 0.909031 -0.663882
H38   H     H_    0.214991 0.229678 0.929715 0.363535
C111  C     C_2   0.636593 0.962351 0.920696 0.600566
O55   O     O_2   0.699992 0.946394 0.908153 -0.473210
O56   O     O_R   0.642323 0.994611 0.958691 -0.627660
H39   H     H_    0.701045 0.000054 0.973005 0.362132
C112  C     C_2   0.674481 0.037893 0.420639 0.600513
O57   O     O_2   0.753831 0.054040 0.408016 -0.475741
O58   O     O_R   0.648233 0.005681 0.458668 -0.627443
H40   H     H_    0.701696 0.000452 0.472937 0.362286
C113  C     C_2   0.361544 0.337701 0.422770 0.599853
O59   O     O_2   0.363158 0.363052 0.456239 -0.441919
O60   O     O_R   0.280662 0.251520 0.409155 -0.663862
H41   H     H_    0.229359 0.215907 0.429870 0.363554
C114  C     C_2   0.962367 0.636592 0.420696 0.600571
O61   O     O_2   0.946427 0.700007 0.408158 -0.473095
O62   O     O_R   0.994639 0.642309 0.458688 -0.627674
H42   H     H_    0.000106 0.701038 0.473005 0.362153

loop_
_geom_bond_atom_site_label_1
_geom_bond_atom_site_label_2
_ccdc_geom_bond_type
C26   C110  S    
C25   C31   A    
C95   N5    A    
C102  O37   D    
C61   Br1   S    
Cr1   O25   S    
Cr3   O9    S    
Cr4   O22   S    
C110  O54   S    
O36   H29   S    
C6    C58   S    
Cr5   O23   S    
C111  O55   D    
C51   O21   A    
C91   N19   A    
C54   O17   A    
C105  O43   D    
C16   C22   A    
C25   C43   A    
C2    C57   S    
C27   C111  S    
C114  O61   D    
C7    C73   S    
C65   Br5   S    
O42   H32   S    
C27   C33   A    
C26   C32   A    
C102  O38   S    
C28   C46   A    
O60   H41   S    
C17   C23   A    
C91   N1    A    
C14   C104  S    
C29   C47   A    
C42   C96   S    
C30   C48   A    
C1    C56   S    
C10   N10   A    
C7    N7    A    
N2    N8    A    
C18   C42   A    
C10   N16   A    
O62   H42   S    
C64   Br4   S    
Cr3   O3    S    
C114  O62   S    
Cr3   O21   S    
C27   C45   A    
Cr5   O5    S    
C68   C74   A    
C112  O57   D    
C81   H15   S    
C2    O1    A    
C72   H12   S    
C63   Br3   S    
C30   C114  S    
C71   H11   S    
C16   C106  S    
Cr4   O16   S    
O56   H39   S    
C59   C89   A    
C83   H17   S    
C35   H23   S    
Cr4   O10   S    
C39   C93   S    
C83   C89   A    
N18   N24   A    
C11   C77   S    
N3    N9    A    
Cr1   O7    S    
C10   C76   S    
C43   C53   S    
C48   C51   S    
C66   C72   A    
C63   C69   A    
C112  O58   S    
C12   C78   S    
Cr4   O26   S    
C80   C86   A    
C110  O53   D    
C13   C103  S    
C57   C63   A    
C67   C73   A    
C28   C112  S    
C32   C38   A    
C3    O2    A    
O52   H37   S    
C13   C37   A    
C6    O5    A    
C92   N20   A    
C84   H18   S    
C96   N6    A    
C56   C62   A    
C44   C52   S    
C66   Br6   S    
C28   C34   A    
C101  O35   D    
C85   C97   S    
C74   C80   A    
O58   H40   S    
C3    O9    A    
C29   C113  S    
C88   C100  S    
C52   O22   A    
C41   C95   S    
C84   C90   A    
C93   N3    A    
C79   H13   S    
C92   N2    A    
C20   C44   A    
C19   C43   A    
C46   C50   S    
O48   H35   S    
C21   C45   A    
C113  O60   S    
C58   C64   A    
C89   C101  S    
N4    N10   A    
C23   C47   A    
C37   C91   S    
N15   N21   A    
C26   C44   A    
C103  O39   D    
C24   C48   A    
Cr2   O8    S    
C31   H19   S    
C107  O47   D    
C47   C49   S    
C68   H8    S    
C76   C82   A    
C106  O45   D    
C9    N15   A    
C75   C81   A    
C13   C19   A    
Cr2   O2    S    
C94   N22   A    
Cr1   O13   S    
O44   H33   S    
C22   H4    S    
C19   H1    S    
O30   H26   S    
C57   C87   A    
C31   C37   A    
C5    O11   A    
C55   C85   A    
C97   O27   D    
C99   O32   S    
C104  O41   D    
C49   O15   A    
O50   H36   S    
C17   C107  S    
C14   C20   A    
C106  O46   S    
O46   H34   S    
C61   C67   A    
C87   C99   S    
C56   C86   A    
C108  O49   D    
C8    N8    A    
N17   N23   A    
C2    O8    A    
C23   H5    S    
C8    C74   S    
O40   H31   S    
Cr1   O1    S    
C51   O14   A    
C111  O56   S    
C33   C39   A    
C1    O3    A    
N16   N22   A    
C15   C39   A    
C53   O23   A    
C35   C41   A    
C70   H10   S    
C16   C40   A    
C24   H6    S    
C9    N9    A    
C15   C105  S    
C22   C46   A    
C45   C54   S    
C64   C70   A    
C50   O20   A    
C70   C76   A    
C18   C24   A    
C7    N13   A    
C82   H16   S    
C69   C75   A    
N14   N20   A    
C14   C38   A    
C94   N4    A    
Cr6   O6    S    
C71   C77   A    
C34   H22   S    
Cr6   O12   S    
C32   H20   S    
C101  O36   S    
C90   C102  S    
N6    N12   A    
Cr4   O4    S    
C99   O31   D    
O38   H30   S    
C25   C109  S    
Cr6   O18   S    
C5    C60   S    
C104  O42   S    
C50   O13   A    
C6    O12   A    
C36   H24   S    
N1    N7    A    
C40   C94   S    
C73   C79   A    
C58   C88   A    
C36   C42   A    
C62   Br2   S    
Cr2   O14   S    
C113  O59   D    
C107  O48   S    
C95   N23   A    
C20   H2    S    
C60   C90   A    
Cr6   O24   S    
Cr5   O17   S    
C29   C35   A    
C3    C55   S    
C30   C36   A    
C8    N14   A    
C54   O24   A    
Cr5   O11   S    
C11   N11   A    
Cr1   O19   S    
C98   O29   D    
C108  O50   S    
C65   C71   A    
C52   O18   A    
C49   O19   A    
Cr2   O25   S    
C81   C87   A    
C67   H7    S    
O28   H25   S    
C4    O10   A    
C15   C21   A    
C11   N17   A    
C33   H21   S    
C82   C88   A    
C96   N24   A    
C55   C61   A    
C4    C59   S    
C1    O7    A    
C79   C85   A    
C21   H3    S    
C93   N21   A    
C12   N12   A    
C62   C68   A    
O34   H28   S    
C69   H9    S    
C17   C41   A    
C78   C84   A    
C98   O30   S    
C105  O44   S    
C18   C108  S    
C109  O52   S    
C60   C66   A    
C100  O33   D    
Cr2   O20   S    
C12   N18   A    
C53   O16   A    
C86   C98   S    
C4    O6    A    
Cr3   O25   S    
C97   O28   S    
O32   H27   S    
C72   C78   A    
C109  O51   D    
C103  O40   S    
C77   C83   A    
C34   C40   A    
Cr5   O26   S    
C9    C75   S    
C80   H14   S    
C100  O34   S    
O54   H38   S    
Cr6   O26   S    
C59   C65   A    
C5    O4    A    
C38   C92   S    
N13   N19   A    
N5    N11   A    
Cr3   O15   S    
