data_mof_unit_41231.cif
_audit_creation_date              2012-10-26T19:34:04-0400
_audit_creation_method            fapswitch 2.2
_symmetry_space_group_name_H-M    P1
_symmetry_Int_Tables_number       1
_space_group_crystal_system       triclinic
_cell_length_a                    8.790568
_cell_length_b                    19.385838
_cell_length_c                    18.165188
_cell_angle_alpha                 90.000244
_cell_angle_beta                  97.721146
_cell_angle_gamma                 90.00309
_cell_volume                      3067.51011725

loop_
_atom_site_label
_atom_site_type_symbol
_atom_type_description
_atom_site_fract_x
_atom_site_fract_y
_atom_site_fract_z
_atom_type_partial_charge
C1    C     C_R   0.499630 0.367914 0.499986 0.531045
C2    C     C_R   0.602160 0.540133 0.285676 0.082812
C3    C     C_R   0.396108 0.458993 0.791511 -0.134242
C4    C     C_R   0.604085 0.540912 0.208496 -0.131825
C5    C     C_R   0.499756 0.500139 0.838417 0.016450
C6    C     C_R   0.500055 0.499967 0.161570 0.016137
C7    C     C_R   0.603405 0.541284 0.804986 -0.138990
C8    C     C_R   0.396075 0.458991 0.194972 -0.136691
C9    C     C_R   0.601584 0.540453 0.727559 0.054222
C10   C     C_R   0.397972 0.459780 0.272406 0.057314
C11   C     C_R   0.530055 0.560845 0.963312 -0.106700
C12   C     C_R   0.497424 0.632199 0.499837 0.530736
C13   C     C_R   0.469702 0.439280 0.036687 -0.106297
C14   C     C_R   0.530167 0.560796 0.040680 -0.105876
C15   C     C_R   0.469631 0.439324 0.959323 -0.106415
C16   C     C_R   0.204067 0.498293 0.481295 0.555014
C17   C     C_R   0.795937 0.501683 0.518710 0.572916
C18   C     C_R   0.499982 0.500014 0.078720 0.032009
C19   C     C_R   0.499796 0.500107 0.921274 0.032063
C20   C     C_2   0.039034 0.490374 0.472004 0.233908
C21   C     C_2   0.961004 0.509479 0.528042 0.237534
C22   C     C_R   0.375422 0.744502 0.454908 0.234905
C23   C     C_R   0.463213 0.964281 0.563920 0.294415
C24   C     C_R   0.357237 0.256419 0.504824 0.223844
C25   C     C_R   0.380218 0.816340 0.455498 -0.098706
C26   C     C_R   0.360696 0.184599 0.505265 -0.108761
C27   C     C_R   0.496598 0.851702 0.500452 -0.043363
C28   C     C_R   0.497252 0.148798 0.500391 -0.039709
C29   C     C_R   0.610463 0.815377 0.546540 0.271467
C30   C     C_R   0.633888 0.184647 0.494226 0.271412
C31   C     C_R   0.608018 0.742921 0.545065 -0.156006
C32   C     C_R   0.631656 0.257178 0.494847 -0.151931
C33   C     C_R   0.492064 0.707436 0.499796 -0.022575
C34   C     C_R   0.519424 0.036189 0.435188 0.292868
C35   C     C_R   0.494868 0.292913 0.499603 -0.017716
C36   C     C_3   0.753743 0.830001 0.661883 -0.001637
C37   C     C_3   0.833881 0.887284 0.709463 -0.326001
C38   C     C_3   0.856100 0.171451 0.439552 0.004171
C39   C     C_3   0.954723 0.112723 0.416797 -0.333448
C40   C     C_R   0.469946 0.036236 0.565055 0.268838
C41   C     C_R   0.526549 0.964246 0.436314 0.270525
C42   C     C_R   0.495371 0.072795 0.500235 -0.059096
C43   C     C_R   0.495760 0.927689 0.500257 -0.056316
C44   C     C_R   0.398131 0.459717 0.714337 0.079188
Cu1   Cu    Cu3+1 0.499960 0.500000 0.573360 0.973737
Cu2   Cu    Cu3+1 0.500040 0.500000 0.426640 0.977922
H1    H     H_    0.687009 0.573207 0.838388 0.094066
H2    H     H_    0.256097 0.156329 0.509640 0.155597
H3    H     H_    0.698656 0.713913 0.577546 0.110288
H4    H     H_    0.736618 0.286031 0.493023 0.126113
H5    H     H_    0.317744 0.427968 0.678902 0.145903
H6    H     H_    0.682848 0.571728 0.321122 0.144582
H7    H     H_    0.312388 0.427134 0.814035 0.101348
H8    H     H_    0.688019 0.572652 0.185974 0.102656
H9    H     H_    0.040473 0.444001 0.376220 0.327188
H10   H     H_    0.959679 0.555624 0.623979 0.323091
H11   H     H_    0.248663 0.664076 0.424077 0.341746
H12   H     H_    0.312170 0.427238 0.161537 0.097701
H13   H     H_    0.228110 0.338642 0.505504 0.327598
H14   H     H_    0.829476 0.783855 0.667282 0.128168
H15   H     H_    0.644155 0.817918 0.683866 0.137145
H16   H     H_    0.760708 0.934214 0.705468 0.206746
H17   H     H_    0.855273 0.870479 0.768387 0.101370
H18   H     H_    0.945409 0.899851 0.690272 0.178504
H19   H     H_    0.933216 0.213634 0.463273 0.180809
H20   H     H_    0.783024 0.190244 0.388472 0.133142
H21   H     H_    0.880334 0.071450 0.389016 0.208056
H22   H     H_    0.031867 0.132083 0.377737 0.105765
H23   H     H_    0.681911 0.572227 0.702564 0.112522
H24   H     H_    0.025426 0.090649 0.466468 0.167493
H25   H     H_    0.395469 0.883644 0.615788 0.315967
H26   H     H_    0.502826 0.116788 0.369555 0.315311
H27   H     H_    0.484381 0.116929 0.630587 0.331822
H28   H     H_    0.591989 0.883460 0.383807 0.331860
H29   H     H_    0.317339 0.428164 0.297375 0.120845
H30   H     H_    0.551148 0.608993 0.936259 0.108570
H31   H     H_    0.448581 0.391139 0.063749 0.110969
H32   H     H_    0.551356 0.608904 0.070545 0.113686
H33   H     H_    0.448487 0.391205 0.929475 0.112611
H34   H     H_    0.291465 0.845000 0.421188 0.171906
N1    N     N_R   0.499980 0.500020 0.683620 -0.219093
N2    N     N_R   0.500020 0.499980 0.316380 -0.219789
O1    O     O_R   0.499930 0.400180 0.561970 -0.501125
O2    O     O_3   0.035877 0.539836 0.592119 -0.717624
O3    O     O_3   0.254124 0.713416 0.410902 -0.676399
O4    O     O_3   0.217813 0.288033 0.509356 -0.710954
O5    O     O_3   0.728961 0.852177 0.587106 -0.529281
O6    O     O_3   0.768489 0.147019 0.493950 -0.529623
O7    O     O_3   0.426405 0.931919 0.627112 -0.633491
O8    O     O_3   0.539094 0.068536 0.369198 -0.631561
O9    O     O_3   0.448824 0.068570 0.630857 -0.627185
O10   O     O_3   0.561995 0.931902 0.372843 -0.625766
O11   O     O_R   0.500070 0.599820 0.438030 -0.500156
O12   O     O_R   0.500010 0.400190 0.438070 -0.502024
O13   O     O_R   0.499990 0.599810 0.561930 -0.504130
O14   O     O_R   0.274810 0.500000 0.547650 -0.455086
O15   O     O_R   0.725190 0.500000 0.452350 -0.452869
O16   O     O_R   0.274880 0.500000 0.423750 -0.537204
O17   O     O_R   0.725120 0.500000 0.576250 -0.532560
O18   O     O_3   0.964209 0.459894 0.407993 -0.718374

loop_
_geom_bond_atom_site_label_1
_geom_bond_atom_site_label_2
_ccdc_geom_bond_type
C27   C29   A    
C25   H34   S    
C39   H22   S    
C14   C18   A    
C34   C42   A    
C37   H16   S    
Cu1   Cu2   S    
C15   C19   A    
C11   C19   A    
C13   C18   A    
C36   C37   S    
C24   C26   A    
C11   H30   S    
C38   C39   S    
C11   C14   A    
C23   C40   A    
C23   C43   A    
C22   O3    S    
H28   O10   S    
C8    H12   S    
Cu2   N2    S    
C15   H33   S    
C38   H20   S    
C1    O12   A    
C22   C25   A    
Cu2   O12   S    
H9    O18   S    
C23   O7    S    
C12   O13   A    
Cu1   O14   S    
C26   H2    S    
C40   C42   A    
Cu2   O16   S    
C41   C43   A    
Cu1   O1    S    
C34   C41   A    
C31   H3    S    
C37   H17   S    
H10   O2    S    
C36   O5    S    
C6    C18   S    
C13   H31   S    
C3    C44   A    
C16   O14   A    
C24   C35   A    
C32   C35   A    
H27   O9    S    
C4    C6    A    
C44   N1    A    
Cu1   O17   S    
C5    C7    A    
C6    C8    A    
C36   H14   S    
C10   N2    A    
C17   C21   S    
C38   O6    S    
C7    H1    S    
C2    C4    A    
C34   O8    S    
H26   O8    S    
C10   H29   S    
H25   O7    S    
C21   O2    S    
C16   C20   S    
C31   C33   A    
C17   O17   A    
C32   H4    S    
C2    H6    S    
C44   H5    S    
Cu2   O15   S    
C13   C15   A    
C12   O11   A    
C2    N2    A    
C1    O1    A    
C30   O6    S    
C36   H15   S    
Cu1   O13   S    
C37   H18   S    
C1    C35   S    
C7    C9    A    
C22   C33   A    
C4    H8    S    
C39   H21   S    
Cu1   N1    S    
C9    H23   S    
C3    C5    A    
C5    C19   S    
C25   C27   A    
C26   C28   A    
C28   C30   A    
H13   O4    S    
C20   O18   S    
C29   C31   A    
C30   C32   A    
C3    H7    S    
C16   O16   A    
Cu2   O11   S    
C17   O15   A    
C28   C42   S    
C39   H24   S    
H11   O3    S    
C14   H32   S    
C40   O9    S    
C29   O5    S    
C27   C43   S    
C41   O10   S    
C20   C21   D    
C8    C10   A    
C12   C33   S    
C38   H19   S    
C24   O4    S    
C9    N1    A    
