data_mof_unit_14590.cif
_audit_creation_date              2012-12-10T17:14:44-0500
_audit_creation_method            fapswitch 2.2
_symmetry_space_group_name_H-M    P1
_symmetry_Int_Tables_number       1
_space_group_crystal_system       triclinic
_cell_length_a                    10.644979
_cell_length_b                    13.052806
_cell_length_c                    11.664629
_cell_angle_alpha                 101.282454
_cell_angle_beta                  93.811528
_cell_angle_gamma                 90.249396
_cell_volume                      1585.67631219

loop_
_atom_site_label
_atom_site_type_symbol
_atom_type_description
_atom_site_fract_x
_atom_site_fract_y
_atom_site_fract_z
_atom_type_partial_charge
C1    C     C_R   0.497997 0.298437 0.476689 0.859439
C2    C     C_R   0.501999 0.701563 0.523313 0.859415
C3    C     C_R   0.512275 0.141135 0.560808 -0.186737
C4    C     C_R   0.487784 0.858866 0.439199 -0.186759
C5    C     C_R   0.507969 0.033654 0.555547 0.081336
C6    C     C_R   0.492125 0.966346 0.444459 0.081336
C7    C     C_R   0.361075 0.421557 0.023067 0.027289
C8    C     C_R   0.638913 0.578460 0.976935 0.027272
C9    C     C_R   0.377562 0.426907 0.144809 0.064020
C10   C     C_R   0.622417 0.573121 0.855195 0.064156
C11   C     C_R   0.562266 0.530811 0.156833 0.081214
C12   C     C_R   0.437740 0.469182 0.843165 0.081247
C13   C     C_R   0.551237 0.527770 0.034005 -0.016053
C14   C     C_R   0.448763 0.472232 0.965995 -0.016036
C15   C     C_R   0.259348 0.499224 0.500097 0.895562
C16   C     C_R   0.740652 0.500776 0.499903 0.895463
C17   C     C_3   0.042065 0.416881 0.540316 -0.071602
C18   C     C_3   0.957933 0.583118 0.459682 -0.071640
C19   C     C_3   0.951780 0.412517 0.430681 0.134325
C20   C     C_3   0.048219 0.587481 0.569318 0.134311
C21   C     C_3   0.876951 0.501302 0.499776 -0.137031
C22   C     C_3   0.123048 0.498697 0.500222 -0.137040
C23   C     C_3   0.965955 0.505177 0.610478 -0.234928
C24   C     C_3   0.034044 0.494822 0.389520 -0.234872
C25   C     C_R   0.503984 0.816327 0.539841 -0.132279
C26   C     C_R   0.496032 0.183673 0.460167 -0.132297
C27   C     C_R   0.478726 0.007543 0.340572 -0.066927
C28   C     C_R   0.521366 0.992455 0.659433 -0.066880
C29   C     C_R   0.478617 0.116648 0.348612 -0.071783
C30   C     C_R   0.521419 0.883350 0.651398 -0.071785
Cu1   Cu    Cu3+1 0.509400 0.507730 0.615930 1.016310
Cu2   Cu    Cu3+1 0.490600 0.492270 0.384070 1.016277
H1    H     H_    0.936664 0.509369 0.700877 0.196414
H2    H     H_    0.063335 0.490630 0.299121 0.196403
H3    H     H_    0.470636 0.806676 0.355416 0.189775
H4    H     H_    0.529410 0.193328 0.644593 0.189736
H5    H     H_    0.361634 0.425889 0.788822 0.179432
H6    H     H_    0.638379 0.574096 0.211174 0.179468
H7    H     H_    0.690399 0.611308 0.812066 0.161990
H8    H     H_    0.309556 0.388752 0.187943 0.162115
N1    N     N_R   0.523540 0.519360 0.790140 -0.203874
N2    N     N_R   0.476460 0.480640 0.209860 -0.203907
O1    O     O_R   0.506670 0.354460 0.582000 -0.575330
O2    O     O_R   0.493330 0.645540 0.418000 -0.575320
O3    O     O_R   0.490800 0.341410 0.386200 -0.577258
O4    O     O_R   0.509200 0.658590 0.613800 -0.577187
O5    O     O_R   0.324790 0.506500 0.597880 -0.561011
O6    O     O_R   0.675210 0.493500 0.402120 -0.561045
O7    O     O_R   0.308910 0.493440 0.402080 -0.600254
O8    O     O_R   0.691090 0.506560 0.597920 -0.600295
I1    I     I_    0.873690 0.274151 0.318867 -0.145148
I2    I     I_    0.126291 0.725848 0.681141 -0.145027
C31   C     C_2   0.086516 0.322617 0.586003 0.907011
O9    O     O_2   0.010142 0.267212 0.620166 -0.526079
O10   O     O_R   0.214116 0.298065 0.588836 -0.772287
H9    H     H_    0.232034 0.232770 0.621593 0.361806
C32   C     C_2   0.913484 0.677387 0.414002 0.907011
O11   O     O_2   0.989860 0.732814 0.379893 -0.526093
O12   O     O_R   0.785883 0.701919 0.411122 -0.772326
H10   H     H_    0.767967 0.767227 0.378389 0.361822
C33   C     C_2   0.536809 0.841777 0.760750 0.913093
O13   O     O_2   0.443951 0.819778 0.807974 -0.539679
O14   O     O_R   0.657652 0.830341 0.810605 -0.702087
H11   H     H_    0.656142 0.805488 0.887556 0.342451
C34   C     C_2   0.463141 0.158216 0.239270 0.913486
O15   O     O_2   0.555948 0.179809 0.191726 -0.539702
O16   O     O_R   0.342260 0.170066 0.189767 -0.702363
H12   H     H_    0.343676 0.194779 0.112731 0.342429
C35   C     C_2   0.468506 0.937342 0.222983 0.854608
O17   O     O_2   0.375727 0.940288 0.156097 -0.502058
O18   O     O_R   0.565673 0.868556 0.189167 -0.736944
H13   H     H_    0.547798 0.824775 0.107705 0.352338
C36   C     C_2   0.531569 0.062659 0.777022 0.854497
O19   O     O_2   0.624384 0.059774 0.843886 -0.501709
O20   O     O_R   0.434348 0.131387 0.810855 -0.736966
H14   H     H_    0.452218 0.175180 0.892311 0.352404
I3    I     I_    0.199776 0.338189 0.934089 -0.259336
I4    I     I_    0.800201 0.661844 0.065915 -0.259325

loop_
_geom_bond_atom_site_label_1
_geom_bond_atom_site_label_2
_ccdc_geom_bond_type
O10   H9    S    
C16   C21   S    
C27   C29   A    
C18   C21   S    
C36   O20   S    
C36   O19   D    
C15   O5    A    
C16   O6    A    
C4    C25   A    
C31   O9    D    
C2    O4    A    
C9    N2    A    
C17   C23   S    
Cu1   O1    S    
C18   C24   S    
C19   C21   S    
C16   O8    A    
C5    C6    A    
C32   O12   S    
C11   N2    A    
C33   O14   S    
Cu2   O3    S    
C12   H5    S    
C35   O18   S    
C1    O1    A    
C15   C22   S    
Cu1   Cu2   S    
C2    O2    A    
C34   O16   S    
Cu1   O4    S    
C7    C14   A    
C27   C35   S    
C7    I3    S    
C4    H3    S    
O12   H10   S    
Cu1   O5    S    
C13   C14   A    
C10   N1    A    
C8    I4    S    
Cu2   O6    S    
C33   O13   D    
C28   C36   S    
C31   O10   S    
O16   H12   S    
C4    C6    A    
C23   H1    S    
C9    H8    S    
C24   H2    S    
C10   H7    S    
C11   H6    S    
O20   H14   S    
C12   N1    A    
C5    C28   A    
C18   C32   S    
C6    C27   A    
C20   C23   S    
Cu2   O2    S    
C29   C34   S    
C20   C22   S    
C21   C23   S    
C1    C26   S    
C22   C24   S    
Cu1   O8    S    
C17   C31   S    
C25   C30   A    
C7    C9    A    
Cu1   N1    S    
C3    C26   A    
C12   C14   A    
C3    C5    A    
C17   C22   S    
C28   C30   A    
C19   C24   S    
O18   H13   S    
C20   I2    S    
C11   C13   A    
C1    O3    A    
C32   O11   D    
C3    H4    S    
C17   C19   S    
C2    C25   S    
C18   C20   S    
C15   O7    A    
C35   O17   D    
Cu2   O7    S    
O14   H11   S    
C8    C13   A    
C19   I1    S    
C26   C29   A    
C8    C10   A    
C34   O15   D    
C30   C33   S    
Cu2   N2    S    
