data_mof_unit_24598.cif
_audit_creation_date              2012-12-10T18:46:12-0500
_audit_creation_method            fapswitch 2.2
_symmetry_space_group_name_H-M    P1
_symmetry_Int_Tables_number       1
_space_group_crystal_system       triclinic
_cell_length_a                    9.960182
_cell_length_b                    10.655171
_cell_length_c                    13.293744
_cell_angle_alpha                 90.439917
_cell_angle_beta                  71.983131
_cell_angle_gamma                 91.854985
_cell_volume                      1340.9445203

loop_
_atom_site_label
_atom_site_type_symbol
_atom_type_description
_atom_site_fract_x
_atom_site_fract_y
_atom_site_fract_z
_atom_type_partial_charge
C1    C     C_R   0.499780 0.740953 0.506398 0.853220
C2    C     C_R   0.445973 0.535388 0.978962 0.065426
C3    C     C_R   0.479106 0.487123 0.875042 0.080385
C4    C     C_R   0.550292 0.534708 0.031094 0.072291
C5    C     C_R   0.688437 0.495308 0.976673 0.138958
C6    C     C_R   0.717148 0.442258 0.877233 -0.259087
C7    C     C_R   0.611790 0.431934 0.829957 -0.162663
C8    C     C_R   0.520066 0.563947 0.138049 -0.297414
C9    C     C_R   0.765508 0.560065 0.125281 0.084645
C10   C     C_R   0.379752 0.498584 0.818608 -0.089934
C11   C     C_R   0.611040 0.946051 0.540805 -0.111023
C12   C     C_R   0.423279 0.494323 0.702996 0.844160
C13   C     C_R   0.594192 0.073024 0.564497 0.016974
C14   C     C_R   0.478140 0.131111 0.549007 -0.132217
C15   C     C_R   0.355436 0.059743 0.558670 -0.206841
C16   C     C_R   0.362269 0.930454 0.555756 -0.206553
C17   C     C_R   0.493854 0.874218 0.530975 -0.085070
C18   C     C_R   0.954811 0.430088 0.427409 -0.013451
C19   C     C_R   0.098201 0.429339 0.427939 -0.020689
C20   C     C_R   0.042996 0.564459 0.574612 -0.102198
C21   C     C_R   0.899839 0.563288 0.575225 -0.089399
C22   C     C_R   0.491446 0.262040 0.517023 0.889546
C23   C     C_R   0.577361 0.519201 0.299457 0.912653
C24   C     C_R   0.796796 0.513095 0.022294 -0.232563
C25   C     C_R   0.623279 0.553307 0.187388 -0.121021
C26   C     C_R   0.243197 0.537482 0.871215 -0.214017
C27   C     C_R   0.209771 0.579614 0.974061 -0.119143
C28   C     C_R   0.310934 0.584632 0.026000 -0.187579
H1    H     H_    0.256066 0.102873 0.568195 0.156489
H2    H     H_    0.266235 0.874734 0.568979 0.157207
H3    H     H_    0.073338 0.615982 0.634984 0.124594
H4    H     H_    0.822881 0.612809 0.636790 0.143650
H5    H     H_    0.820468 0.406197 0.836735 0.152530
H6    H     H_    0.905920 0.505057 0.973971 0.136923
H7    H     H_    0.415079 0.583542 0.186916 0.155329
H8    H     H_    0.164670 0.544486 0.830619 0.151202
H9    H     H_    0.281366 0.629997 0.101794 0.131471
H10   H     H_    0.106989 0.615350 0.011101 0.176625
H11   H     H_    0.638458 0.380961 0.757033 0.224891
N1    N     N_R   0.142790 0.500030 0.500030 -0.099040
N2    N     N_R   0.857180 0.499940 0.500010 -0.130389
O1    O     O_R   0.385370 0.683250 0.500010 -0.629385
O2    O     O_R   0.614700 0.683220 0.500010 -0.620582
O3    O     O_R   0.328400 0.499990 0.653620 -0.625453
O4    O     O_R   0.557730 0.499960 0.653620 -0.639635
O5    O     O_R   0.385300 0.316780 0.499990 -0.615979
O6    O     O_R   0.614630 0.316750 0.499990 -0.583379
O7    O     O_R   0.442270 0.500040 0.346380 -0.610274
O8    O     O_R   0.671600 0.500010 0.346380 -0.616915
Zn1   Zn    Zn3+2 0.346870 0.500020 0.500000 0.940273
Zn2   Zn    Zn3+2 0.653130 0.499980 0.500000 0.967980
C29   C     C_R   0.856109 0.667898 0.139254 0.084472
C30   C     C_R   0.933015 0.665110 0.211357 -0.100763
C31   C     C_R   0.041438 0.753917 0.204691 -0.211503
C32   C     C_R   0.066391 0.852840 0.132122 -0.124995
C33   C     C_R   0.981986 0.863224 0.066404 -0.128087
C34   C     C_R   0.878029 0.770901 0.069262 -0.193015
H12   H     H_    0.913944 0.593511 0.270375 0.191217
H13   H     H_    0.107074 0.745127 0.255539 0.136285
H14   H     H_    0.150580 0.921641 0.127215 0.134473
H15   H     H_    0.000113 0.940422 0.010854 0.142550
H16   H     H_    0.818197 0.776992 0.013960 0.143578
C35   C     C_2   0.678204 0.136292 0.625881 0.936279
O9    O     O_2   0.618813 0.164035 0.717842 -0.687251
O10   O     O_R   0.823933 0.157109 0.582325 -0.760562
H17   H     H_    0.867793 0.199806 0.633544 0.320882
C36   C     C_2   0.910939 0.347524 0.351739 0.962776
O11   O     O_2   0.939314 0.378015 0.258971 -0.685650
O12   O     O_R   0.852649 0.228245 0.383099 -0.752561
H18   H     H_    0.828422 0.181425 0.324040 0.323292
C37   C     C_R   0.194130 0.342306 0.354896 0.150253
C38   C     C_R   0.247822 0.370362 0.246792 -0.103477
C39   C     C_R   0.328623 0.283538 0.175899 -0.098407
C40   C     C_R   0.353616 0.166872 0.212470 -0.139899
C41   C     C_R   0.292500 0.135142 0.318898 -0.173603
C42   C     C_R   0.208281 0.220936 0.388845 -0.047732
H19   H     H_    0.222267 0.457760 0.217819 0.124891
H20   H     H_    0.370071 0.305652 0.092549 0.152873
H21   H     H_    0.416633 0.099753 0.157881 0.137550
H22   H     H_    0.308050 0.043206 0.346355 0.133007
H23   H     H_    0.151803 0.193312 0.469078 0.135205
C43   C     C_R   0.755859 0.901540 0.513563 0.161641
C44   C     C_R   0.811456 0.865728 0.593571 -0.114249
C45   C     C_R   0.957659 0.859602 0.571938 -0.134077
C46   C     C_R   0.047664 0.890276 0.471101 -0.135901
C47   C     C_R   0.992547 0.931135 0.393489 -0.098980
C48   C     C_R   0.847237 0.931477 0.412754 -0.040677
H24   H     H_    0.742323 0.848608 0.673254 0.119219
H25   H     H_    0.000901 0.833412 0.633772 0.112848
H26   H     H_    0.160220 0.884096 0.451862 0.121257
H27   H     H_    0.062965 0.963530 0.318417 0.134881
H28   H     H_    0.805805 0.963446 0.351445 0.116429

loop_
_geom_bond_atom_site_label_1
_geom_bond_atom_site_label_2
_ccdc_geom_bond_type
C32   C33   A    
C35   O10   S    
C39   C40   A    
C19   C37   S    
C4    C8    A    
C9    C25   A    
C34   H16   S    
C30   C31   A    
C26   C27   A    
C3    C7    A    
C47   H27   S    
C5    C6    A    
C20   N1    A    
C23   O8    A    
O4    Zn2   S    
C27   H10   S    
C16   H2    S    
C15   C16   A    
C33   C34   A    
C18   C19   A    
C1    O2    A    
C16   C17   A    
O8    Zn2   S    
C39   H20   S    
C13   C14   A    
C41   H22   S    
C10   C26   A    
O7    Zn1   S    
C22   O6    A    
C48   H28   S    
C8    C25   A    
C9    C29   S    
C15   H1    S    
C31   H13   S    
C11   C43   S    
C21   H4    S    
C40   C41   A    
C36   O11   D    
C45   C46   A    
C29   C34   A    
C18   N2    A    
C47   C48   A    
C12   O4    A    
O6    Zn2   S    
C18   C36   S    
C46   C47   A    
C24   H6    S    
C36   O12   S    
C8    H7    S    
C2    C4    A    
C41   C42   A    
C38   H19   S    
C44   C45   A    
C13   C35   S    
C46   H26   S    
C10   C12   S    
O1    Zn1   S    
C21   N2    A    
C26   H8    S    
C22   O5    A    
O10   H17   S    
C40   H21   S    
C45   H25   S    
C29   C30   A    
O3    Zn1   S    
C31   C32   A    
C11   C17   A    
C23   O7    A    
C33   H15   S    
C38   C39   A    
C42   H23   S    
C30   H12   S    
C9    C24   A    
C6    C7    A    
O5    Zn1   S    
C1    C17   S    
C6    H5    S    
C14   C22   S    
C2    C3    A    
C37   C38   A    
C12   O3    A    
C3    C10   A    
C11   C13   A    
O2    Zn2   S    
C37   C42   A    
C5    C24   A    
C28   H9    S    
N1    Zn1   S    
C44   H24   S    
C23   C25   S    
O12   H18   S    
C19   N1    A    
C35   O9    D    
C1    O1    A    
C4    C5    A    
C20   C21   A    
C43   C44   A    
C27   C28   A    
C7    H11   S    
C14   C15   A    
C2    C28   A    
C32   H14   S    
N2    Zn2   S    
C43   C48   A    
C20   H3    S    
