data_mof_unit_7078.cif
_audit_creation_date              2012-12-10T16:51:28-0500
_audit_creation_method            fapswitch 2.2
_symmetry_space_group_name_H-M    P1
_symmetry_Int_Tables_number       1
_space_group_crystal_system       triclinic
_cell_length_a                    7.828258
_cell_length_b                    8.567995
_cell_length_c                    12.122804
_cell_angle_alpha                 92.129526
_cell_angle_beta                  101.387262
_cell_angle_gamma                 94.24683
_cell_volume                      793.796177825

loop_
_atom_site_label
_atom_site_type_symbol
_atom_type_description
_atom_site_fract_x
_atom_site_fract_y
_atom_site_fract_z
_atom_type_partial_charge
C1    C     C_R   0.044672 0.794738 0.497178 0.976059
C2    C     C_R   0.393943 0.481494 0.990591 0.085602
C3    C     C_R   0.307282 0.431343 0.881055 0.009689
C4    C     C_R   0.565365 0.438816 0.027875 0.013016
C5    C     C_R   0.634980 0.323491 0.965955 0.045313
C6    C     C_R   0.534293 0.255994 0.864612 0.486018
C7    C     C_R   0.371726 0.310487 0.822701 -0.305324
C8    C     C_R   0.670474 0.510669 0.124768 -0.226780
C9    C     C_R   0.898586 0.340209 0.111074 -0.202113
C10   C     C_R   0.158473 0.504853 0.832088 -0.091705
C11   C     C_2   0.068268 0.958604 0.496308 -0.373561
C12   C     C_R   0.106099 0.504175 0.710289 0.855357
C13   C     C_2   0.931525 0.041328 0.502421 -0.397313
C14   C     C_R   0.955238 0.205244 0.502477 0.952999
C15   C     C_R   0.892016 0.487997 0.289751 0.865688
C16   C     C_R   0.803536 0.277358 0.007554 -0.151465
C17   C     C_R   0.828320 0.453975 0.170560 -0.063734
C18   C     C_R   0.073783 0.597349 0.899031 -0.178869
C19   C     C_R   0.144746 0.626503 0.012778 -0.125033
C20   C     C_R   0.305699 0.572670 0.058218 -0.170694
H1    H     H_    0.802278 0.989158 0.506765 0.173337
H2    H     H_    0.469677 0.375193 0.416611 0.189322
H3    H     H_    0.628626 0.607119 0.169880 0.144928
H4    H     H_    0.355718 0.600209 0.146846 0.135835
H5    H     H_    0.294743 0.255157 0.745154 0.179125
H6    H     H_    0.197421 0.010602 0.491386 0.177566
N1    N     N_2   0.434800 0.456690 0.470850 -0.184804
N2    N     N_2   0.565200 0.543310 0.529150 -0.181326
O1    O     O_R   0.893060 0.738880 0.507150 -0.607646
O2    O     O_R   0.172250 0.711130 0.488470 -0.620256
O3    O     O_R   0.944700 0.520730 0.667600 -0.627954
O4    O     O_R   0.223890 0.492980 0.648920 -0.613126
O5    O     O_R   0.827750 0.288870 0.511530 -0.641392
O6    O     O_R   0.106940 0.261120 0.492850 -0.615122
O7    O     O_R   0.776110 0.507020 0.351080 -0.614900
O8    O     O_R   0.055300 0.479270 0.332400 -0.617212
Zn1   Zn    Zn3+2 0.813580 0.518530 0.512470 0.920149
Zn2   Zn    Zn3+2 0.186420 0.481470 0.487530 0.927994
H7    H     H_    0.021836 0.294822 0.146890 0.157990
H8    H     H_    0.530373 0.624592 0.583562 0.199041
O9    O     O_3   0.589934 0.130718 0.809909 -0.625187
C21   C     C_3   0.651628 0.184694 0.715449 -0.278814
H9    H     H_    0.759395 0.279235 0.740349 0.176025
H10   H     H_    0.544183 0.225253 0.651333 0.176088
H11   H     H_    0.705266 0.085726 0.675899 0.184878
H12   H     H_    0.859339 0.189095 0.962528 0.177810
H13   H     H_    0.956065 0.651191 0.862717 0.160178
H14   H     H_    0.078497 0.696268 0.064875 0.144320

loop_
_geom_bond_atom_site_label_1
_geom_bond_atom_site_label_2
_ccdc_geom_bond_type
C14   O6    A    
C2    C4    A    
C21   H10   S    
C6    C7    A    
O4    Zn2   S    
O9    C21   S    
C8    C17   A    
C1    C11   S    
C4    C8    A    
C18   H13   S    
C14   O5    A    
O8    Zn2   S    
C2    C3    A    
C13   H1    S    
C3    C10   A    
C13   C14   S    
C12   O4    A    
C11   C13   D    
C1    O1    A    
C10   C12   S    
N2    Zn1   S    
C10   C18   A    
C9    C17   A    
C1    O2    A    
O7    Zn1   S    
C9    C16   A    
C3    C7    A    
H2    N1    S    
C12   O3    A    
C16   H12   S    
C5    C6    A    
C21   H9    S    
N2    H8    S    
N1    Zn2   S    
O1    Zn1   S    
C20   H4    S    
C15   O8    A    
C9    H7    S    
C8    H3    S    
O2    Zn2   S    
C18   C19   A    
C15   O7    A    
N1    N2    D    
C15   C17   S    
C19   H14   S    
C5    C16   A    
C11   H6    S    
O6    Zn2   S    
C2    C20   A    
C6    O9    S    
O5    Zn1   S    
C19   C20   A    
O3    Zn1   S    
C4    C5    A    
C21   H11   S    
C7    H5    S    
