data_mof_unit_36983.cif
_audit_creation_date              2012-12-11T16:28:12-0500
_audit_creation_method            fapswitch 2.2
_symmetry_space_group_name_H-M    P1
_symmetry_Int_Tables_number       1
_space_group_crystal_system       triclinic
_cell_length_a                    30.162727
_cell_length_b                    22.472631
_cell_length_c                    18.119435
_cell_angle_alpha                 90.106824
_cell_angle_beta                  123.552183
_cell_angle_gamma                 90.11605
_cell_volume                      10235.5227815

loop_
_atom_site_label
_atom_site_type_symbol
_atom_type_description
_atom_site_fract_x
_atom_site_fract_y
_atom_site_fract_z
_atom_type_partial_charge
C1    C     C_R   0.533964 0.604208 0.713729 -0.123739
C2    C     C_R   0.463474 0.396726 0.282417 -0.126738
C3    C     C_R   0.463462 0.603111 0.282389 -0.126720
C4    C     C_R   0.533649 0.395787 0.713218 -0.126617
C5    C     C_R   0.044231 0.080682 0.742559 -0.123345
C6    C     C_R   0.954838 0.920130 0.256362 -0.140350
C7    C     C_R   0.955085 0.080425 0.256914 -0.141992
C8    C     C_R   0.044148 0.919049 0.742238 -0.125008
C9    C     C_R   0.322027 0.655035 0.575270 -0.207897
C10   C     C_R   0.615294 0.267150 0.438508 -0.231236
C11   C     C_R   0.614858 0.733364 0.439231 -0.230717
C12   C     C_R   0.297220 0.406726 0.557825 -0.235117
C13   C     C_R   0.800384 0.096961 0.563250 -0.232056
C14   C     C_R   0.137830 0.788590 0.422935 -0.206551
C15   C     C_R   0.107022 0.241002 0.433868 -0.226852
C16   C     C_R   0.800135 0.904232 0.562875 -0.232709
C17   C     C_R   0.280278 0.678474 0.577234 0.236640
C18   C     C_R   0.636235 0.211495 0.440782 0.212566
C19   C     C_R   0.635712 0.789164 0.441375 0.212449
C20   C     C_R   0.252418 0.387338 0.555417 0.212274
C21   C     C_R   0.756504 0.117561 0.562387 0.229035
C22   C     C_R   0.164391 0.738153 0.423766 0.231990
C23   C     C_R   0.130696 0.294220 0.432981 0.211120
C24   C     C_R   0.756158 0.883954 0.562158 0.228557
C25   C     C_R   0.227941 0.659192 0.514080 0.039262
C26   C     C_R   0.689390 0.198969 0.508186 0.079895
C27   C     C_R   0.688829 0.802304 0.508786 0.080606
C28   C     C_R   0.217425 0.346076 0.490077 0.069327
C29   C     C_R   0.719999 0.155677 0.493993 0.070450
C30   C     C_R   0.183987 0.697760 0.494513 0.041823
C31   C     C_R   0.183288 0.307216 0.503089 0.070491
C32   C     C_R   0.719526 0.845308 0.494125 0.070311
C33   C     C_R   0.403512 0.694753 0.211852 0.123584
C34   C     C_R   0.595795 0.307283 0.792101 0.128873
C35   C     C_R   0.595970 0.693282 0.792035 0.126263
C36   C     C_R   0.403603 0.304561 0.212201 0.125409
C37   C     C_R   0.869941 0.113145 0.112198 0.127448
C38   C     C_R   0.129166 0.887945 0.888343 0.128624
C39   C     C_R   0.129397 0.110774 0.889564 0.128449
C40   C     C_R   0.869556 0.888433 0.110839 0.127391
C41   C     C_R   0.417690 0.774957 0.137388 -0.159638
C42   C     C_R   0.583731 0.229569 0.872200 -0.199043
C43   C     C_R   0.583601 0.771603 0.871230 -0.192582
C44   C     C_R   0.417798 0.223974 0.138085 -0.166580
C45   C     C_R   0.864326 0.149677 0.981236 -0.181448
C46   C     C_R   0.133997 0.851589 0.018713 -0.191428
C47   C     C_R   0.134332 0.146960 0.020291 -0.200344
C48   C     C_R   0.863883 0.852167 0.979513 -0.184185
C49   C     C_R   0.433687 0.721209 0.183185 -0.158006
C50   C     C_R   0.567564 0.283040 0.825780 -0.166780
C51   C     C_R   0.567731 0.717586 0.825652 -0.162427
C52   C     C_R   0.433618 0.278205 0.183201 -0.159085
C53   C     C_R   0.894409 0.127447 0.067324 -0.164081
C54   C     C_R   0.104288 0.873766 0.932592 -0.170052
C55   C     C_R   0.104503 0.125126 0.933735 -0.166825
C56   C     C_R   0.894061 0.874007 0.066053 -0.167342
C57   C     C_R   0.359282 0.725129 0.199203 -0.238713
C58   C     C_R   0.638422 0.275445 0.801103 -0.240919
C59   C     C_R   0.638260 0.725562 0.800178 -0.240282
C60   C     C_R   0.359783 0.273634 0.200676 -0.241928
C61   C     C_R   0.814522 0.117522 0.067096 -0.249700
C62   C     C_R   0.184649 0.883655 0.934175 -0.249608
C63   C     C_R   0.184958 0.114370 0.935907 -0.250095
C64   C     C_R   0.814059 0.884813 0.065190 -0.250247
C65   C     C_R   0.342347 0.779132 0.153001 0.084444
C66   C     C_R   0.656338 0.222374 0.849676 0.083958
C67   C     C_R   0.655875 0.779210 0.847915 0.084224
C68   C     C_R   0.342922 0.219250 0.154903 0.082673
C69   C     C_R   0.783605 0.140797 0.981137 0.084480
C70   C     C_R   0.215178 0.860508 0.020201 0.085087
C71   C     C_R   0.215598 0.137373 0.022269 0.082743
C72   C     C_R   0.783065 0.861645 0.978909 0.084516
C73   C     C_R   0.371026 0.802724 0.118780 0.170038
C74   C     C_R   0.629090 0.200388 0.887452 0.183250
C75   C     C_R   0.628691 0.801282 0.885744 0.179435
C76   C     C_R   0.371402 0.195690 0.120323 0.173996
C77   C     C_R   0.809607 0.159214 0.939627 0.182395
C78   C     C_R   0.188758 0.842047 0.060999 0.166212
C79   C     C_R   0.189228 0.156110 0.063032 0.183951
C80   C     C_R   0.809044 0.842974 0.937462 0.183585
C81   C     C_R   0.294260 0.806488 0.131488 0.063303
C82   C     C_R   0.704092 0.194561 0.870075 0.066434
C83   C     C_R   0.703429 0.807486 0.867750 0.066942
C84   C     C_R   0.294944 0.191548 0.133845 0.075863
C85   C     C_R   0.728795 0.153304 0.940691 0.078618
C86   C     C_R   0.270072 0.848158 0.061497 0.071885
C87   C     C_R   0.270587 0.149608 0.063798 0.072033
C88   C     C_R   0.728185 0.849153 0.938239 0.078536
C89   C     C_R   0.634145 0.601390 0.574384 -0.121529
C90   C     C_R   0.355473 0.417465 0.425902 -0.148199
C91   C     C_R   0.355052 0.580844 0.428474 -0.127435
C92   C     C_R   0.634198 0.399018 0.574118 -0.122065
C93   C     C_R   0.126776 0.108258 0.574823 -0.121315
C94   C     C_R   0.855772 0.916880 0.425785 -0.126490
C95   C     C_R   0.855897 0.083031 0.425908 -0.124888
C96   C     C_R   0.125236 0.890352 0.572486 -0.113574
C97   C     C_R   0.729608 0.208916 0.826314 -0.180364
C98   C     C_R   0.268293 0.791748 0.174338 -0.190523
C99   C     C_R   0.269101 0.206410 0.176851 -0.203263
C100  C     C_R   0.728828 0.793033 0.823843 -0.180964
C101  C     C_R   0.300793 0.873480 0.032469 -0.202999
C102  C     C_R   0.698760 0.128744 0.971532 -0.197729
C103  C     C_R   0.698208 0.873839 0.969049 -0.198128
C104  C     C_R   0.301179 0.124172 0.034657 -0.208213
C105  C     C_R   0.781278 0.190052 0.859678 -0.176406
C106  C     C_R   0.216730 0.811079 0.140869 -0.197163
C107  C     C_R   0.217402 0.187116 0.143226 -0.219426
C108  C     C_R   0.780568 0.812027 0.857262 -0.178178
C109  C     C_R   0.351359 0.852065 0.063002 -0.192492
C110  C     C_R   0.648942 0.151225 0.943473 -0.216765
C111  C     C_R   0.648436 0.850982 0.941263 -0.214737
C112  C     C_R   0.351710 0.145917 0.064858 -0.202352
C113  C     C_R   0.584101 0.603228 0.427284 -0.133628
C114  C     C_R   0.404019 0.417855 0.572873 -0.132754
C115  C     C_R   0.405978 0.582570 0.575421 -0.142880
C116  C     C_R   0.584220 0.397096 0.426975 -0.134197
C117  C     C_R   0.076287 0.109850 0.426820 -0.126652
C118  C     C_R   0.904618 0.917093 0.573266 -0.129183
C119  C     C_R   0.904718 0.082963 0.573400 -0.126523
C120  C     C_R   0.075427 0.891328 0.424384 -0.129028
C121  C     C_R   0.391349 0.606225 0.288248 -0.117797
C122  C     C_R   0.609777 0.396537 0.719395 -0.124579
C123  C     C_R   0.609966 0.603620 0.719691 -0.124754
C124  C     C_R   0.391186 0.393661 0.287664 -0.118055
C125  C     C_R   0.881772 0.082777 0.258446 -0.119418
C126  C     C_R   0.118195 0.918551 0.742891 -0.143214
C127  C     C_R   0.118327 0.081071 0.743515 -0.130039
C128  C     C_R   0.881588 0.917491 0.257926 -0.121567
C129  C     C_R   0.581255 0.635062 0.746378 0.055746
C130  C     C_R   0.418020 0.363442 0.256454 0.057415
C131  C     C_R   0.418100 0.636282 0.256699 0.058167
C132  C     C_R   0.580923 0.365107 0.745905 0.055786
C133  C     C_R   0.098003 0.094921 0.794283 0.060370
C134  C     C_R   0.901320 0.904571 0.206019 0.061132
C135  C     C_R   0.901653 0.096188 0.206907 0.062900
C136  C     C_R   0.097810 0.904480 0.793492 0.061324
C137  C     C_R   0.624500 0.632596 0.501660 0.057470
C138  C     C_R   0.354774 0.402381 0.498735 0.066087
C139  C     C_R   0.356366 0.596488 0.503599 0.070486
C140  C     C_R   0.624670 0.368014 0.501140 0.057743
C141  C     C_R   0.113784 0.142044 0.501680 0.059200
C142  C     C_R   0.855175 0.902077 0.499002 0.061528
C143  C     C_R   0.855368 0.097950 0.499213 0.061554
C144  C     C_R   0.111585 0.858016 0.497063 0.058675
C145  C     C_R   0.218908 0.612770 0.455387 -0.121206
C146  C     C_R   0.718963 0.240040 0.577113 -0.174771
C147  C     C_R   0.718340 0.761823 0.578082 -0.175243
C148  C     C_R   0.225213 0.329141 0.423529 -0.156105
C149  C     C_R   0.724523 0.166993 0.422399 -0.153979
C150  C     C_R   0.172002 0.705561 0.558471 -0.141477
C151  C     C_R   0.209135 0.269966 0.577244 -0.152505
C152  C     C_R   0.724009 0.833190 0.422609 -0.153876
C153  C     C_R   0.260996 0.590732 0.452322 -0.131510
C154  C     C_R   0.697727 0.295021 0.575059 -0.189046
C155  C     C_R   0.697186 0.706681 0.576151 -0.190455
C156  C     C_R   0.269257 0.349201 0.425494 -0.170719
C157  C     C_R   0.767855 0.146168 0.423248 -0.168846
C158  C     C_R   0.146583 0.757269 0.558407 -0.140010
C159  C     C_R   0.185290 0.217530 0.578193 -0.163767
C160  C     C_R   0.767427 0.853737 0.423284 -0.169918
C161  C     C_R   0.312231 0.613833 0.510038 0.091766
C162  C     C_R   0.646704 0.309814 0.503749 0.114063
C163  C     C_R   0.646305 0.691163 0.504626 0.114720
C164  C     C_R   0.306654 0.385915 0.494706 0.098737
C165  C     C_R   0.807376 0.113715 0.495751 0.101309
C166  C     C_R   0.131552 0.800036 0.492565 0.105428
C167  C     C_R   0.135215 0.201230 0.504674 0.103910
C168  C     C_R   0.807082 0.886658 0.495555 0.101615
H1    H     H_    0.502591 0.615139 0.723037 0.094498
H2    H     H_    0.490277 0.389219 0.261935 0.086093
H3    H     H_    0.490125 0.610513 0.261553 0.086339
H4    H     H_    0.502009 0.384821 0.721983 0.095157
H5    H     H_    0.017600 0.077346 0.764695 0.085948
H6    H     H_    0.980428 0.924893 0.232345 0.089570
H7    H     H_    0.980792 0.076243 0.233052 0.089708
H8    H     H_    0.017583 0.922166 0.764521 0.086401
H9    H     H_    0.659316 0.294283 0.774181 0.113661
H10   H     H_    0.336043 0.704490 0.220457 0.117865
H11   H     H_    0.336767 0.294106 0.222449 0.114226
H12   H     H_    0.659165 0.706653 0.773314 0.113696
H13   H     H_    0.203467 0.893458 0.899756 0.115748
H14   H     H_    0.796126 0.107470 0.102098 0.112294
H15   H     H_    0.795616 0.895225 0.100028 0.112317
H16   H     H_    0.203822 0.104271 0.901647 0.114167
H17   H     H_    0.533842 0.305892 0.818466 0.118020
H18   H     H_    0.468969 0.700063 0.194030 0.118461
H19   H     H_    0.468615 0.299788 0.193225 0.117688
H20   H     H_    0.534229 0.694403 0.818943 0.121245
H21   H     H_    0.061665 0.877311 0.899882 0.116198
H22   H     H_    0.936994 0.123904 0.099518 0.116451
H23   H     H_    0.936727 0.877039 0.098662 0.117268
H24   H     H_    0.061805 0.122063 0.900636 0.116144
H25   H     H_    0.440543 0.793443 0.113152 0.140453
H26   H     H_    0.562286 0.212560 0.899890 0.129106
H27   H     H_    0.562186 0.788655 0.898934 0.133407
H28   H     H_    0.440498 0.205547 0.113555 0.137577
H29   H     H_    0.884384 0.162691 0.949260 0.127508
H30   H     H_    0.113619 0.838557 0.050143 0.135524
H31   H     H_    0.113968 0.160195 0.051654 0.127770
H32   H     H_    0.883943 0.838971 0.947617 0.127266
H33   H     H_    0.710305 0.234552 0.765979 0.142367
H34   H     H_    0.287366 0.765631 0.234243 0.151197
H35   H     H_    0.288336 0.232713 0.236863 0.132049
H36   H     H_    0.709399 0.767106 0.763494 0.142825
H37   H     H_    0.286498 0.910255 0.986600 0.131237
H38   H     H_    0.713157 0.092032 0.017495 0.130480
H39   H     H_    0.712684 0.910839 0.014905 0.130730
H40   H     H_    0.286738 0.087169 0.988791 0.131000
H41   H     H_    0.665960 0.609378 0.642031 0.085263
H42   H     H_    0.321046 0.421119 0.358739 0.097454
H43   H     H_    0.319959 0.577606 0.361866 0.098671
H44   H     H_    0.665975 0.391213 0.641748 0.085700
H45   H     H_    0.153846 0.120179 0.643551 0.098606
H46   H     H_    0.821650 0.919872 0.358228 0.094083
H47   H     H_    0.821798 0.079979 0.358292 0.093437
H48   H     H_    0.152723 0.877178 0.640463 0.108052
H49   H     H_    0.571260 0.612789 0.360209 0.093657
H50   H     H_    0.414047 0.420765 0.640019 0.093262
H51   H     H_    0.417006 0.579309 0.643104 0.097729
H52   H     H_    0.571512 0.387662 0.359850 0.093644
H53   H     H_    0.057517 0.123018 0.358565 0.101638
H54   H     H_    0.915392 0.919104 0.640911 0.092452
H55   H     H_    0.915486 0.081113 0.641035 0.092029
H56   H     H_    0.056123 0.879268 0.355506 0.102797
H57   H     H_    0.353959 0.617218 0.279517 0.097917
H58   H     H_    0.650505 0.389218 0.741413 0.087487
H59   H     H_    0.650728 0.611092 0.741815 0.087210
H60   H     H_    0.353540 0.382641 0.278003 0.091727
H61   H     H_    0.840731 0.081210 0.238008 0.083397
H62   H     H_    0.159470 0.921817 0.765038 0.090756
H63   H     H_    0.159618 0.077443 0.766009 0.084431
H64   H     H_    0.840542 0.919062 0.237437 0.084016
H65   H     H_    0.178769 0.597930 0.406469 0.153102
H66   H     H_    0.760303 0.231747 0.628493 0.137535
H67   H     H_    0.759636 0.770609 0.629557 0.136975
H68   H     H_    0.199571 0.296343 0.374016 0.142231
H69   H     H_    0.697492 0.197208 0.370085 0.142531
H70   H     H_    0.187220 0.674844 0.613290 0.152760
H71   H     H_    0.250005 0.278431 0.630901 0.145226
H72   H     H_    0.696872 0.802578 0.370553 0.142511
H73   H     H_    0.253336 0.557415 0.403302 0.126423
H74   H     H_    0.722277 0.326958 0.626893 0.118741
H75   H     H_    0.721750 0.675151 0.628160 0.118294
H76   H     H_    0.275702 0.333151 0.375719 0.119000
H77   H     H_    0.772203 0.159043 0.369987 0.122167
H78   H     H_    0.140815 0.765029 0.611558 0.125664
H79   H     H_    0.207942 0.187892 0.633877 0.119044
H80   H     H_    0.771749 0.840291 0.370139 0.122019
H81   H     H_    0.361832 0.672261 0.620867 0.147059
H82   H     H_    0.574718 0.277139 0.385496 0.145046
H83   H     H_    0.574354 0.722862 0.386077 0.144913
H84   H     H_    0.324824 0.437247 0.609399 0.146199
H85   H     H_    0.829431 0.069338 0.617497 0.141453
H86   H     H_    0.126090 0.821205 0.371421 0.142836
H87   H     H_    0.067392 0.230071 0.378185 0.147520
H88   H     H_    0.829290 0.932258 0.616883 0.141377
H89   H     H_    0.800265 0.203188 0.825961 0.138564
H90   H     H_    0.197435 0.797965 0.174056 0.172010
H91   H     H_    0.198164 0.200448 0.176448 0.135279
H92   H     H_    0.799528 0.798736 0.823561 0.137673
H93   H     H_    0.373525 0.871607 0.038154 0.141414
H94   H     H_    0.627605 0.132654 0.970459 0.136923
H95   H     H_    0.627143 0.869609 0.968273 0.137710
H96   H     H_    0.373747 0.126368 0.039805 0.138089
N1    N     N_R   0.532910 0.558440 0.665240 -0.041093
N2    N     N_R   0.467090 0.441560 0.334760 -0.040012
N3    N     N_R   0.467090 0.558440 0.334760 -0.039920
N4    N     N_R   0.532910 0.441560 0.665240 -0.041136
N5    N     N_R   0.032910 0.058440 0.665240 -0.038310
N6    N     N_R   0.967090 0.941560 0.334760 -0.038363
N7    N     N_R   0.967090 0.058440 0.334760 -0.037927
N8    N     N_R   0.032910 0.941560 0.665240 -0.038533
N9    N     N_R   0.597030 0.558910 0.545540 -0.039768
N10   N     N_R   0.402970 0.441090 0.454460 -0.037199
N11   N     N_R   0.402970 0.558910 0.454460 -0.039781
N12   N     N_R   0.597030 0.441090 0.545540 -0.039819
N13   N     N_R   0.097030 0.058910 0.545540 -0.041640
N14   N     N_R   0.902970 0.941090 0.454460 -0.039941
N15   N     N_R   0.902970 0.058910 0.454460 -0.039607
N16   N     N_R   0.097030 0.941090 0.545540 -0.043559
N17   N     N_R   0.566200 0.559270 0.454460 -0.039448
N18   N     N_R   0.433800 0.440730 0.545540 -0.038352
N19   N     N_R   0.433800 0.559270 0.545540 -0.037723
N20   N     N_R   0.566200 0.440730 0.454460 -0.039466
N21   N     N_R   0.066200 0.059270 0.454460 -0.041489
N22   N     N_R   0.933800 0.940730 0.545540 -0.040134
N23   N     N_R   0.933800 0.059270 0.545540 -0.039706
N24   N     N_R   0.066200 0.940730 0.454460 -0.041910
N25   N     N_R   0.421050 0.559750 0.334770 -0.042293
N26   N     N_R   0.578950 0.440250 0.665230 -0.040546
N27   N     N_R   0.578950 0.559750 0.665230 -0.040476
N28   N     N_R   0.421050 0.440250 0.334770 -0.041695
N29   N     N_R   0.921050 0.059750 0.334770 -0.039078
N30   N     N_R   0.078950 0.940250 0.665230 -0.039956
N31   N     N_R   0.078950 0.059750 0.665230 -0.038967
N32   N     N_R   0.921050 0.940250 0.334770 -0.039447
Ni1   Ni    Ni4+2 0.483090 0.500000 0.604440 0.215528
Ni2   Ni    Ni4+2 0.516910 0.500000 0.395560 0.221746
Ni3   Ni    Ni4+2 0.983090 0.000000 0.604440 0.209192
Ni4   Ni    Ni4+2 0.016910 0.000000 0.395560 0.215588
Ni5   Ni    Ni4+2 0.586780 0.500000 0.604440 0.219602
Ni6   Ni    Ni4+2 0.413220 0.500000 0.395560 0.218721
Ni7   Ni    Ni4+2 0.086780 0.000000 0.604440 0.215840
Ni8   Ni    Ni4+2 0.913220 0.000000 0.395560 0.211225
I1    I     I_    0.749198 0.093804 0.668366 -0.372994
I2    I     I_    0.181334 0.732951 0.324401 -0.476776
I3    I     I_    0.087008 0.351053 0.321940 -0.411736
I4    I     I_    0.748898 0.909001 0.667847 -0.371611
I5    I     I_    0.299542 0.749727 0.667867 -0.425923
I6    I     I_    0.587244 0.149716 0.338457 -0.388689
I7    I     I_    0.586750 0.850111 0.338614 -0.386544
I8    I     I_    0.240809 0.419476 0.653647 -0.405926

loop_
_geom_bond_atom_site_label_1
_geom_bond_atom_site_label_2
_ccdc_geom_bond_type
C146  H66   S    
C54   H21   S    
C6    N6    A    
N6    N32   A    
C119  C143  A    
N10   N18   A    
C15   C167  A    
C3    C131  A    
C127  N31   A    
C1    C129  A    
C57   H10   S    
C46   H30   S    
N2    Ni2   S    
C17   I5    S    
C121  H57   S    
C62   C70   A    
N3    Ni2   S    
C19   I7    S    
C41   H25   S    
C72   C88   A    
C64   H15   S    
C114  N18   A    
C49   H18   S    
C120  C144  A    
C149  H69   S    
C37   C135  S    
C52   H19   S    
C38   C136  S    
C92   N12   A    
C147  C155  A    
C53   H22   S    
C93   N13   A    
C81   C86   A    
C97   C105  A    
C125  C135  A    
C83   C88   A    
C56   H23   S    
C126  C136  A    
C10   C162  A    
C89   N9    A    
N25   Ni6   S    
C160  H80   S    
N10   Ni6   S    
C41   C49   A    
C43   C75   A    
C94   H46   S    
C96   N16   A    
C20   C28   A    
C21   C29   A    
C153  C161  A    
C23   C31   A    
C24   C32   A    
C36   C130  S    
C66   C82   A    
C146  C154  A    
C12   C20   A    
C119  H55   S    
N24   Ni4   S    
C13   C21   A    
N29   Ni8   S    
N8    Ni3   S    
N30   Ni7   S    
C112  H96   S    
C63   C71   A    
C83   C100  A    
C35   C51   A    
C113  C137  A    
C25   C145  A    
C99   C107  A    
C104  C112  A    
C128  N32   A    
N15   Ni8   S    
N1    Ni1   S    
C124  N28   A    
C96   H48   S    
N17   Ni2   S    
C74   C110  A    
C82   C85   A    
C98   C106  A    
C78   C106  A    
C22   I2    S    
C115  N19   A    
C17   C25   A    
C62   H13   S    
N13   N21   A    
C10   C18   A    
C91   N11   A    
C159  C167  A    
C160  C168  A    
N5    N31   A    
C142  C168  S    
C123  H59   S    
C34   C58   A    
N2    N28   A    
C33   C49   A    
C151  C159  A    
C126  N30   A    
C67   C83   A    
C153  H73   S    
C118  H54   S    
C100  H36   S    
C69   C77   A    
C122  N26   A    
C71   C79   A    
C4    C132  A    
C15   H87   S    
C60   H11   S    
C5    C133  A    
C61   H14   S    
C35   C59   A    
C59   H12   S    
C103  H39   S    
N7    Ni4   S    
C125  H61   S    
C45   H29   S    
C2    N2    A    
C43   H27   S    
C26   C146  A    
C51   H20   S    
C156  H76   S    
C59   C67   A    
N7    N29   A    
C14   H86   S    
C14   C166  A    
N11   N19   A    
N12   Ni5   S    
C36   C52   A    
C76   C112  A    
C37   C53   A    
C44   C52   A    
C45   C53   A    
C120  H56   S    
C47   H31   S    
C114  H50   S    
C127  H63   S    
C90   C138  A    
C100  C108  A    
C18   I6    S    
C94   C142  A    
C91   H43   S    
C157  C165  A    
C137  C163  S    
C89   H41   S    
N12   N20   A    
C155  C163  A    
C40   C134  S    
C10   H82   S    
N15   N23   A    
C128  C134  A    
C94   N14   A    
C31   C151  A    
N19   Ni1   S    
C140  C162  S    
C32   C152  A    
C111  H95   S    
C11   C163  A    
C90   N10   A    
N26   Ni5   S    
C9    C161  A    
C102  H38   S    
C42   C50   A    
N21   Ni4   S    
N22   Ni3   S    
C92   H44   S    
C67   C75   A    
C117  N21   A    
C69   C85   A    
C119  N23   A    
N32   Ni8   S    
C4    H4    S    
C99   H35   S    
N16   Ni7   S    
C5    H5    S    
C154  C162  A    
C97   H33   S    
C8    H8    S    
C68   C76   A    
C80   C108  A    
C147  H67   S    
C14   C22   A    
C72   C80   A    
C151  H71   S    
N20   Ni2   S    
C114  C138  A    
C41   C73   A    
C128  H64   S    
C45   C77   A    
C38   C62   A    
C157  H77   S    
C85   C102  A    
N18   Ni1   S    
N8    N30   A    
C155  H75   S    
C95   C143  A    
C145  H65   S    
C8    C136  A    
C23   I3    S    
C18   C26   A    
C152  C160  A    
N11   Ni6   S    
C11   C19   A    
N23   Ni3   S    
C48   H32   S    
N31   Ni7   S    
C30   C150  A    
C81   C98   A    
C101  C109  A    
C122  H58   S    
C103  C111  A    
C143  C165  S    
C39   C55   A    
C40   C56   A    
C123  N27   A    
C42   C74   A    
C141  C167  S    
C93   H45   S    
C68   C84   A    
C139  C161  S    
C3    N3    A    
C46   C78   A    
C5    N5    A    
C36   C60   A    
C144  C166  S    
C117  C141  A    
N16   N24   A    
C12   C164  A    
C65   C81   A    
C38   C54   A    
C46   C54   A    
C79   C107  A    
C2    H2    S    
C71   C87   A    
C89   C137  A    
C82   C97   A    
C102  C110  A    
C109  H93   S    
C92   C140  A    
C93   C141  A    
C37   C61   A    
C158  C166  A    
C39   C133  S    
C25   C30   S    
C105  H89   S    
C63   H16   S    
N14   N22   A    
C27   C32   S    
C84   C99   A    
C28   C31   S    
C120  N24   A    
C127  C133  A    
C57   C65   A    
C73   C109  A    
C4    N4    A    
C6    H6    S    
C150  C158  A    
C75   C111  A    
C12   H84   S    
N9    N17   A    
C55   H24   S    
C77   C105  A    
C16   H88   S    
C43   C51   A    
C2    C130  A    
C104  H40   S    
C118  N22   A    
C87   C104  A    
C60   C68   A    
C8    N8    A    
N6    Ni4   S    
C148  C156  A    
C149  C157  A    
C113  N17   A    
N13   Ni7   S    
C66   C74   A    
N14   Ni8   S    
C154  H74   S    
C70   C78   A    
C95   H47   S    
C117  H53   S    
C84   C87   A    
C47   C79   A    
C107  H91   S    
C126  H62   S    
N9    Ni5   S    
C96   C144  A    
C65   C73   A    
C44   C76   A    
C42   H26   S    
C13   C165  A    
C58   C66   A    
C150  H70   S    
C7    H7    S    
N28   Ni6   S    
C19   C27   A    
C35   C129  S    
C145  C153  A    
C33   C131  S    
C15   C23   A    
C34   C132  S    
C16   C24   A    
C123  C129  A    
C115  H51   S    
C121  C131  A    
C122  C132  A    
C124  H60   S    
C34   C50   A    
C95   N15   A    
C44   H28   S    
C124  C130  A    
N3    N25   A    
C90   H42   S    
C11   H83   S    
C148  H68   S    
C24   I4    S    
C9    H81   S    
C7    C135  A    
N4    Ni1   S    
C152  H72   S    
C20   I8    S    
C13   H85   S    
C21   I1    S    
C159  H79   S    
C101  H37   S    
C9    C17   A    
C91   C139  A    
C108  H92   S    
C116  H52   S    
N4    N26   A    
C70   C86   A    
N5    Ni3   S    
C88   C103  A    
C47   C55   A    
C61   C69   A    
C48   C56   A    
C33   C57   A    
C28   C148  A    
C98   H34   S    
C115  C139  A    
C118  C142  A    
C125  N29   A    
C39   C63   A    
C40   C64   A    
C121  N25   A    
C48   C80   A    
C113  H49   S    
C22   C30   A    
C86   C101  A    
C3    H3    S    
C16   C168  A    
C1    H1    S    
C58   H9    S    
C64   C72   A    
C110  H94   S    
C29   C149  A    
C116  N20   A    
C7    N7    A    
C6    C134  A    
C1    N1    A    
C156  C164  A    
C26   C29   S    
C27   C147  A    
N1    N27   A    
C106  H90   S    
C138  C164  S    
C158  H78   S    
C50   H17   S    
C116  C140  A    
N27   Ni5   S    
