data_mof_unit_59020.cif
_audit_creation_date              2012-12-10T16:54:54-0500
_audit_creation_method            fapswitch 2.2
_symmetry_space_group_name_H-M    P1
_symmetry_Int_Tables_number       1
_space_group_crystal_system       triclinic
_cell_length_a                    7.768653
_cell_length_b                    8.581185
_cell_length_c                    15.728279
_cell_angle_alpha                 90.70262
_cell_angle_beta                  85.602002
_cell_angle_gamma                 93.728061
_cell_volume                      1043.18634669

loop_
_atom_site_label
_atom_site_type_symbol
_atom_type_description
_atom_site_fract_x
_atom_site_fract_y
_atom_site_fract_z
_atom_type_partial_charge
C1    C     C_R   0.545559 0.794568 0.501606 0.969711
C2    C     C_3   0.345608 0.560199 0.053017 -0.181458
C3    C     C_3   0.503827 0.476529 0.082710 0.073520
C4    C     C_3   0.503859 0.299851 0.046316 0.402267
C5    C     C_3   0.511329 0.312731 0.945589 -0.571354
C6    C     C_1   0.496630 0.483857 0.174736 -0.000837
C7    C     C_1   0.510342 0.489079 0.824775 -0.017217
C8    C     C_1   0.505318 0.494132 0.749883 -0.210034
C9    C     C_2   0.567533 0.958375 0.502747 -0.419915
C10   C     C_2   0.431611 0.044496 0.524262 0.039489
C11   C     C_R   0.501625 0.499416 0.661489 0.889677
C12   C     C_R   0.454287 0.205667 0.506421 0.878500
C13   C     C_R   0.498420 0.500134 0.338488 0.908361
C14   C     C_3   0.343817 0.547773 0.955585 -0.519457
C15   C     C_3   0.687251 0.574864 0.945121 0.383155
C16   C     C_3   0.674902 0.571847 0.045959 -0.316405
C17   C     C_1   0.494731 0.493147 0.250010 -0.144984
C18   C     C_3   0.515875 0.484893 0.915918 0.239475
H1    H     H_    0.363237 0.686365 0.068072 0.185283
H2    H     H_    0.234790 0.466656 0.937519 0.223686
H3    H     H_    0.692339 0.008216 0.476404 0.158972
H4    H     H_    0.013649 0.382136 0.436593 0.192788
H5    H     H_    0.986399 0.617867 0.563431 0.196450
H6    H     H_    0.312484 0.660290 0.929106 0.187152
H7    H     H_    0.781658 0.504960 0.065360 0.171600
H8    H     H_    0.398626 0.248347 0.918659 0.174621
H9    H     H_    0.622619 0.253367 0.914435 0.170526
N1    N     N_2   0.950340 0.457950 0.477370 -0.170050
N2    N     N_2   0.049660 0.542050 0.522630 -0.165324
O1    O     O_R   0.389240 0.738570 0.505550 -0.568025
O2    O     O_R   0.678400 0.711630 0.491050 -0.629906
O3    O     O_R   0.355360 0.513470 0.630110 -0.615539
O4    O     O_R   0.644510 0.486530 0.615610 -0.623500
O5    O     O_R   0.321600 0.288370 0.508950 -0.638040
O6    O     O_R   0.610760 0.261430 0.494450 -0.627274
O7    O     O_R   0.355490 0.513470 0.384390 -0.605408
O8    O     O_R   0.644640 0.486530 0.369890 -0.616619
Zn1   Zn    Zn3+2 0.306930 0.517990 0.509680 0.962236
Zn2   Zn    Zn3+2 0.693070 0.482010 0.490320 0.946110
C19   C     C_2   0.172336 0.509863 0.099367 0.987369
O9    O     O_2   0.083014 0.399031 0.073966 -0.662558
O10   O     O_R   0.115110 0.592667 0.172130 -0.781301
H10   H     H_    0.998641 0.549413 0.198171 0.335202
N3    N     N_2   0.656251 0.216287 0.065834 -0.315236
H11   H     H_    0.658908 0.107037 0.037810 0.245176
C20   C     C_3   0.727329 0.218810 0.148860 -0.679560
H12   H     H_    0.842403 0.148513 0.145459 0.240047
H13   H     H_    0.634308 0.168267 0.199226 0.234312
H14   H     H_    0.774141 0.337165 0.167942 0.233777
N4    N     N_2   0.273580 0.983673 0.568291 -0.267342
H15   H     H_    0.165337 0.040193 0.555555 0.234745
C21   C     C_3   0.284417 0.960675 0.658695 -0.748959
H16   H     H_    0.160000 0.905539 0.686771 0.229301
H17   H     H_    0.310435 0.074742 0.691071 0.220702
H18   H     H_    0.388649 0.882304 0.669923 0.239521
N5    N     N_2   0.840535 0.490565 0.914902 -0.319644
H19   H     H_    0.863212 0.389575 0.945870 0.257729
C22   C     C_3   0.901168 0.489141 0.825241 -0.777335
H20   H     H_    0.836494 0.389091 0.792265 0.241516
H21   H     H_    0.042377 0.474108 0.819308 0.237215
H22   H     H_    0.878727 0.599516 0.793069 0.259100
N6    N     N_2   0.717261 0.735017 0.911602 -0.285764
H23   H     H_    0.839636 0.785910 0.918187 0.267527
C23   C     C_3   0.585664 0.846421 0.909266 -0.846461
H24   H     H_    0.501490 0.816378 0.856907 0.250054
H25   H     H_    0.648294 0.963839 0.894165 0.227304
H26   H     H_    0.510977 0.855380 0.971685 0.252445
C24   C     C_2   0.719881 0.729777 0.087276 0.914602
O11   O     O_2   0.612735 0.798736 0.131593 -0.664025
O12   O     O_R   0.890359 0.793345 0.076032 -0.802299
H27   H     H_    0.909333 0.895036 0.108262 0.341498
N7    N     N_2   0.343593 0.205427 0.073561 -0.267870
H28   H     H_    0.302581 0.124231 0.029319 0.230198
C25   C     C_3   0.313801 0.137182 0.157633 -0.708686
H29   H     H_    0.175533 0.095395 0.167900 0.237944
H30   H     H_    0.339206 0.221971 0.208919 0.229240
H31   H     H_    0.391648 0.034123 0.162142 0.268279

loop_
_geom_bond_atom_site_label_1
_geom_bond_atom_site_label_2
_ccdc_geom_bond_type
N2    Zn1   S    
C15   C18   S    
N4    C21   S    
C3    C16   S    
N6    H23   S    
C16   C24   S    
O3    Zn1   S    
C9    C10   D    
C14   C18   S    
C5    H9    S    
C13   O8    A    
C21   H18   S    
C13   C17   S    
N7    H28   S    
C3    C6    S    
C15   N5    S    
C7    C18   S    
C4    N7    S    
C19   O10   S    
C2    C3    S    
C22   H20   S    
C7    C8    T    
O8    Zn2   S    
H4    N1    S    
C21   H16   S    
C23   H24   S    
C12   O6    A    
C13   O7    A    
C20   H14   S    
C9    H3    S    
C3    C4    S    
O4    Zn2   S    
C10   C12   S    
C22   H22   S    
C8    C11   S    
H5    N2    S    
O7    Zn1   S    
C19   O9    D    
C15   N6    S    
C21   H17   S    
C11   O3    A    
N4    H15   S    
C1    O2    A    
O6    Zn2   S    
C2    C14   S    
C20   H13   S    
C25   H29   S    
C25   H30   S    
C22   H21   S    
C5    H8    S    
C10   N4    S    
C23   H26   S    
C2    C19   S    
C25   H31   S    
C11   O4    A    
O12   H27   S    
C1    C9    S    
N5    H19   S    
O1    Zn1   S    
C14   H2    S    
N7    C25   S    
O10   H10   S    
C14   H6    S    
C16   H7    S    
O2    Zn2   S    
C6    C17   T    
C20   H12   S    
C1    O1    A    
N6    C23   S    
C5    C18   S    
C4    N3    S    
N1    Zn2   S    
C2    H1    S    
O5    Zn1   S    
C24   O12   S    
C12   O5    A    
C24   O11   D    
N3    C20   S    
N3    H11   S    
C15   C16   S    
N5    C22   S    
C4    C5    S    
N1    N2    D    
C23   H25   S    
