data_mof_unit_49946.cif
_audit_creation_date              2012-12-10T20:50:55-0500
_audit_creation_method            fapswitch 2.2
_symmetry_space_group_name_H-M    P1
_symmetry_Int_Tables_number       1
_space_group_crystal_system       triclinic
_cell_length_a                    18.406728
_cell_length_b                    18.417892
_cell_length_c                    18.438937
_cell_angle_alpha                 120.054999
_cell_angle_beta                  89.924984
_cell_angle_gamma                 120.014651
_cell_volume                      4418.39021452

loop_
_atom_site_label
_atom_site_type_symbol
_atom_type_description
_atom_site_fract_x
_atom_site_fract_y
_atom_site_fract_z
_atom_type_partial_charge
C1    C     C_R   0.359603 0.500988 0.361071 0.791997
C2    C     C_2   0.303949 0.502231 0.693790 -0.303016
C3    C     C_R   0.569600 0.820203 0.438231 -0.066054
C4    C     C_R   0.641356 0.500992 0.639118 0.858136
C5    C     C_R   0.478092 0.744451 0.405689 -0.138046
C6    C     C_R   0.437600 0.656838 0.317581 0.153357
C7    C     C_R   0.489348 0.646802 0.262080 -0.134134
C8    C     C_R   0.580845 0.722762 0.294890 -0.179817
C9    C     C_R   0.620958 0.809292 0.382945 -0.082068
C10   C     C_R   0.285205 0.569956 0.228770 -0.268807
C11   C     C_R   0.193191 0.495315 0.194617 -0.035421
C12   C     C_2   0.305499 0.111403 0.310352 -0.401871
C13   C     C_R   0.156673 0.421560 0.214349 0.093548
C14   C     C_R   0.212769 0.426788 0.269897 -0.247019
C15   C     C_R   0.304555 0.502179 0.304993 -0.065831
C16   C     C_R   0.641093 0.501567 0.362504 0.782939
C17   C     C_R   0.341379 0.574647 0.283730 -0.007795
C18   C     C_R   0.010533 0.343529 0.236057 -0.366057
C19   C     C_R   0.919958 0.263397 0.206022 0.618778
C20   C     C_R   0.879541 0.180244 0.116664 -0.248431
C21   C     C_R   0.928930 0.172848 0.059063 -0.353226
C22   C     C_R   0.020810 0.251404 0.089187 0.575249
C23   C     C_2   0.783200 0.567259 0.839081 -0.144835
C24   C     C_R   0.060701 0.337338 0.178671 0.000584
C25   C     C_R   0.482081 0.801411 0.820140 -0.115982
C26   C     C_R   0.540944 0.843345 0.782370 -0.126329
C27   C     C_R   0.633043 0.897602 0.821006 0.184463
C28   C     C_R   0.360805 0.500299 0.639381 0.848688
C29   C     C_R   0.665250 0.909383 0.897895 -0.141563
C30   C     C_R   0.606158 0.867481 0.935514 -0.145343
C31   C     C_R   0.514711 0.813973 0.896899 -0.116638
C32   C     C_R   0.752951 0.054414 0.838164 -0.273823
C33   C     C_R   0.807424 0.108732 0.805966 -0.124902
C34   C     C_2   0.796920 0.493818 0.807447 -0.327333
C35   C     C_R   0.808061 0.054366 0.718149 -0.113299
C36   C     C_R   0.752971 0.946236 0.663997 0.391381
C37   C     C_R   0.695672 0.891953 0.696166 -0.169997
C38   C     C_R   0.695939 0.947368 0.784281 -0.058454
C39   C     C_R   0.833300 0.099617 0.608588 -0.077169
C40   C     C_R   0.638890 0.778346 0.638697 0.797836
C41   C     C_R   0.890252 0.148062 0.573481 -0.170932
C42   C     C_R   0.982367 0.204729 0.611284 -0.100950
C43   C     C_R   0.017679 0.213045 0.684265 -0.116719
C44   C     C_R   0.960994 0.165022 0.719734 -0.165759
C45   C     C_2   0.723986 0.563186 0.782463 -0.144331
C46   C     C_R   0.868339 0.107951 0.682141 0.196104
C47   C     C_R   0.805490 0.474050 0.507367 -0.124611
C48   C     C_R   0.800897 0.505424 0.453452 -0.128763
C49   C     C_R   0.758359 0.433036 0.361151 0.131253
C50   C     C_R   0.721345 0.329206 0.323421 -0.060269
C51   C     C_R   0.725554 0.298114 0.377715 -0.080895
C52   C     C_R   0.361020 0.222765 0.362325 0.871350
C53   C     C_R   0.767577 0.370413 0.469567 -0.129683
C54   C     C_R   0.799648 0.462521 0.246752 -0.245596
C55   C     C_R   0.799781 0.498739 0.195627 -0.062434
C56   C     C_2   0.701191 0.505348 0.693776 -0.326227
C57   C     C_R   0.749056 0.538057 0.201469 0.011166
C58   C     C_R   0.699490 0.539811 0.258237 -0.262934
C59   C     C_R   0.698942 0.503109 0.308748 -0.046412
C60   C     C_R   0.750831 0.465644 0.304363 -0.014566
C61   C     C_R   0.773429 0.678327 0.191478 -0.233206
C62   C     C_R   0.762485 0.712696 0.142676 -0.256026
C63   C     C_R   0.718341 0.643692 0.050329 0.574232
C64   C     C_2   0.279064 0.942209 0.224707 -0.273429
C65   C     C_R   0.690879 0.541848 0.007044 -0.212003
C66   C     C_R   0.702227 0.507438 0.055775 -0.205282
C67   C     C_2   0.279490 0.555369 0.838390 -0.180369
C68   C     C_R   0.743076 0.575404 0.148412 0.166632
C69   C     C_R   0.136337 0.499186 0.863053 0.849458
C70   C     C_R   0.856559 0.498881 0.140627 0.791052
C71   C     C_R   0.856244 0.499215 0.863505 0.857107
C72   C     C_R   0.137735 0.498295 0.140780 0.808183
C73   C     C_R   0.859539 0.221809 0.863829 0.798834
C74   C     C_R   0.136301 0.776951 0.139747 0.887730
C75   C     C_2   0.190829 0.887584 0.188748 -0.377888
C76   C     C_2   0.337738 0.054576 0.272480 0.509830
C77   C     C_3   0.912424 0.298524 0.344099 -0.345401
C78   C     C_2   0.190296 0.494179 0.805669 -0.303266
C79   C     C_3   0.032593 0.183942 0.945113 0.073565
C80   C     C_3   0.014497 0.077982 0.902751 -0.327312
C81   C     C_3   0.960135 0.005737 0.804172 -1.013566
C82   C     C_3   0.446570 0.072710 0.206174 0.095878
C83   C     C_3   0.491627 0.018368 0.193761 -0.353005
C84   C     C_3   0.523704 0.998577 0.113826 -0.958321
C85   C     C_3   0.814604 0.871416 0.573842 0.109444
C86   C     C_3   0.815521 0.819469 0.478528 -0.315834
C87   C     C_3   0.878528 0.786852 0.468703 -0.976637
C88   C     C_3   0.646159 0.702970 0.021161 0.055940
C89   C     C_2   0.335654 0.551109 0.781708 -0.178199
C90   C     C_3   0.549807 0.607471 0.969244 -0.351953
C91   C     C_3   0.484015 0.635678 0.992843 -0.976298
H1    H     H_    0.310521 0.903555 0.217622 0.190165
H2    H     H_    0.313982 0.626550 0.213878 0.173544
H3    H     H_    0.184075 0.370043 0.284619 0.170803
H4    H     H_    0.157104 0.922683 0.191616 0.155211
H5    H     H_    0.042538 0.410974 0.304057 0.155260
H6    H     H_    0.809519 0.119138 0.092152 0.163816
H7    H     H_    0.894470 0.104449 0.991807 0.158068
H8    H     H_    0.469120 0.782624 0.926669 0.121409
H9    H     H_    0.411204 0.759827 0.790300 0.127560
H10   H     H_    0.514987 0.834509 0.723676 0.096433
H11   H     H_    0.735982 0.951164 0.928673 0.118356
H12   H     H_    0.154184 0.436297 0.735316 0.145366
H13   H     H_    0.631300 0.877205 0.995003 0.118251
H14   H     H_    0.751404 0.095990 0.904831 0.180230
H15   H     H_    0.762057 0.055801 0.578659 0.117726
H16   H     H_    0.862964 0.141539 0.516878 0.121913
H17   H     H_    0.026379 0.242156 0.584021 0.117092
H18   H     H_    0.088996 0.256787 0.713433 0.122450
H19   H     H_    0.989109 0.172111 0.776276 0.094483
H20   H     H_    0.770981 0.346170 0.511402 0.117596
H21   H     H_    0.838083 0.530018 0.578481 0.121153
H22   H     H_    0.829844 0.585761 0.483550 0.099330
H23   H     H_    0.405891 0.591314 0.814203 0.186020
H24   H     H_    0.236085 0.076558 0.305190 0.122099
H25   H     H_    0.688369 0.272458 0.252371 0.121183
H26   H     H_    0.696981 0.218112 0.348596 0.122417
H27   H     H_    0.840046 0.434594 0.244114 0.185160
H28   H     H_    0.659115 0.567845 0.261128 0.168748
H29   H     H_    0.805265 0.731799 0.262907 0.149554
H30   H     H_    0.787568 0.792699 0.176772 0.137904
H31   H     H_    0.659021 0.488780 0.935645 0.150196
H32   H     H_    0.678269 0.427735 0.021611 0.127289
H33   H     H_    0.814897 0.631533 0.908754 0.206750
H34   H     H_    0.234843 0.463119 0.659105 0.145495
H35   H     H_    0.763756 0.426681 0.739239 0.151041
H36   H     H_    0.699952 0.610589 0.815308 0.204297
H37   H     H_    0.727869 0.461751 0.659319 0.148255
H38   H     H_    0.313460 0.609907 0.909707 0.178424
H39   H     H_    0.953503 0.383682 0.389992 0.177024
H40   H     H_    0.953684 0.269179 0.339856 0.152916
H41   H     H_    0.862360 0.268184 0.373022 0.190634
H42   H     H_    0.078498 0.221398 0.916963 0.148774
H43   H     H_    0.971769 0.178790 0.926999 0.136825
H44   H     H_    0.078929 0.086947 0.910646 0.226766
H45   H     H_    0.691797 0.867876 0.408330 0.131995
H46   H     H_    0.978126 0.042772 0.936699 0.219970
H47   H     H_    0.894886 0.994555 0.794947 0.269064
H48   H     H_    0.948063 0.929851 0.775624 0.267903
H49   H     H_    0.996682 0.037436 0.768050 0.259145
H50   H     H_    0.493297 0.144167 0.210745 0.163300
H51   H     H_    0.387130 0.023242 0.146085 0.114022
H52   H     H_    0.549376 0.066400 0.254315 0.228712
H53   H     H_    0.444126 0.943847 0.183960 0.213576
H54   H     H_    0.466742 0.949238 0.052118 0.265160
H55   H     H_    0.555550 0.958739 0.106687 0.263278
H56   H     H_    0.600726 0.887126 0.506417 0.130004
H57   H     H_    0.573356 0.072236 0.123033 0.265262
H58   H     H_    0.796874 0.818513 0.594083 0.128702
H59   H     H_    0.882533 0.942680 0.618064 0.134970
H60   H     H_    0.747315 0.750676 0.432754 0.251717
H61   H     H_    0.836834 0.873576 0.459270 0.210005
H62   H     H_    0.947484 0.854762 0.512994 0.265532
H63   H     H_    0.877850 0.749807 0.398945 0.272419
H64   H     H_    0.857021 0.730891 0.485669 0.255698
H65   H     H_    0.657882 0.754336 0.000808 0.168452
H66   H     H_    0.656560 0.747481 0.093665 0.124560
H67   H     H_    0.439002 0.753200 0.449228 0.105866
H68   H     H_    0.538510 0.569451 0.896801 0.229683
H69   H     H_    0.537427 0.552179 0.984899 0.213697
H70   H     H_    0.492078 0.670213 0.064441 0.267740
H71   H     H_    0.415034 0.565432 0.953050 0.270152
H72   H     H_    0.494806 0.691213 0.978199 0.254581
H73   H     H_    0.459017 0.579714 0.193958 0.128739
H74   H     H_    0.620674 0.714385 0.252150 0.131638
O1    O     O_3   0.500000 0.500000 0.500000 -0.492715
O2    O     O_R   0.053310 0.439870 0.118130 -0.643870
O3    O     O_R   0.881750 0.270770 0.828220 -0.630813
O4    O     O_R   0.323160 0.439910 0.385120 -0.650006
O5    O     O_R   0.173180 0.729110 0.116590 -0.646063
O6    O     O_R   0.882410 0.270770 0.949030 -0.649331
O7    O     O_R   0.051730 0.729120 0.116590 -0.643462
O8    O     O_R   0.880830 0.560020 0.947500 -0.638068
O9    O     O_R   0.174110 0.560030 0.117490 -0.651980
O10   O     O_R   0.051730 0.439850 0.827330 -0.638237
O11   O     O_R   0.882410 0.439870 0.118130 -0.644339
O12   O     O_R   0.615510 0.439910 0.385120 -0.636758
O13   O     O_R   0.616440 0.439920 0.555110 -0.632642
O14   O     O_R   0.614860 0.560070 0.384480 -0.651521
O15   O     O_R   0.445540 0.560090 0.675280 -0.634295
O16   O     O_R   0.614860 0.729170 0.553580 -0.594999
O17   O     O_R   0.324090 0.270830 0.386020 -0.654078
O18   O     O_R   0.615510 0.729180 0.674390 -0.640875
O19   O     O_R   0.445540 0.270830 0.386020 -0.583072
O20   O     O_3   0.867438 0.265136 0.260218 -0.616879
O21   O     O_3   0.076365 0.246403 0.037842 -0.663892
O22   O     O_3   0.428485 0.101793 0.287281 -0.609817
O23   O     O_R   0.324090 0.439920 0.555110 -0.648835
O24   O     O_3   0.751362 0.894069 0.577123 -0.640759
O25   O     O_3   0.706847 0.675925 0.000424 -0.677605
O26   O     O_R   0.443960 0.560080 0.384480 -0.632370
O27   O     O_R   0.616440 0.560090 0.675280 -0.648201
O28   O     O_3   0.997270 0.499940 0.002610 -0.486015
O29   O     O_R   0.173180 0.560020 0.947500 -0.643630
O30   O     O_R   0.881750 0.560030 0.117490 -0.630392
O31   O     O_R   0.880830 0.439850 0.827330 -0.647245
Zn1   Zn    Zn3+2 0.543620 0.414150 0.457300 0.991254
Zn2   Zn    Zn3+2 0.542680 0.585840 0.456390 0.972235
Zn3   Zn    Zn3+2 0.543620 0.585850 0.629000 0.962907
Zn4   Zn    Zn3+2 0.370090 0.414160 0.457300 0.953207
Zn5   Zn    Zn3+2 0.953650 0.585790 0.045310 0.974966
Zn6   Zn    Zn3+2 0.953650 0.414090 0.873610 0.968485
Zn7   Zn    Zn3+2 0.954590 0.414100 0.046220 0.963522
Zn8   Zn    Zn3+2 0.127180 0.585790 0.045310 0.954281

loop_
_geom_bond_atom_site_label_1
_geom_bond_atom_site_label_2
_ccdc_geom_bond_type
C25   C31   A    
C81   H49   S    
C66   C68   A    
C63   C65   A    
C3    H56   S    
C23   C45   S    
C79   O21   S    
C27   C29   A    
C18   H5    S    
C41   C42   A    
C4    O27   A    
C35   C36   A    
O26   Zn2   S    
C82   H51   S    
C57   C58   A    
C75   H4    S    
C7    C8    A    
C39   C41   A    
C54   C60   A    
C84   H54   S    
C88   O25   S    
C26   C27   A    
C37   C38   A    
C49   C60   S    
C83   C84   S    
C18   C24   A    
C88   H65   S    
C36   C37   A    
C52   O17   A    
C77   O20   S    
C37   C40   S    
C32   C38   A    
C28   O23   A    
C26   H10   S    
C30   C31   A    
O23   Zn4   S    
C27   C38   S    
C85   O24   S    
C80   H46   S    
C67   C89   S    
O28   Zn5   S    
O8    Zn5   S    
C18   C19   A    
C77   H40   S    
O27   Zn3   S    
C90   H68   S    
C6    C17   S    
C85   H59   S    
C58   H28   S    
C51   H26   S    
O1    Zn3   S    
C20   H6    S    
C19   C20   A    
C45   C56   D    
C70   O30   A    
C87   H62   S    
C91   H71   S    
C1    C15   S    
C31   H8    S    
C73   O6    A    
C29   C30   A    
C74   O7    A    
C61   C62   A    
C16   O14   A    
C47   C53   A    
C12   H24   S    
C53   H20   S    
C59   C60   A    
O12   Zn1   S    
C13   C14   A    
C4    C56   S    
C61   H29   S    
O6    Zn7   S    
O11   Zn7   S    
C91   H72   S    
C69   C78   S    
C67   H38   S    
C67   C78   D    
C72   O9    A    
O19   Zn1   S    
C82   H50   S    
O16   Zn2   S    
C12   C52   S    
C44   C46   A    
C83   H53   S    
C85   H58   S    
C84   H57   S    
C81   H47   S    
C79   H42   S    
C87   H63   S    
C74   C75   S    
C36   O24   S    
O17   Zn4   S    
C73   O3    A    
C8    H74   S    
C11   C72   S    
C8    C9    A    
C10   H2    S    
C25   C26   A    
C85   C86   S    
C82   C83   S    
O18   Zn3   S    
O28   Zn6   S    
C71   O8    A    
C13   C24   S    
C51   C53   A    
C77   H41   S    
C22   O21   S    
C2    C89   D    
C43   C44   A    
O1    Zn2   S    
C62   C63   A    
C3    C9    A    
C86   H61   S    
C28   O15   A    
C25   H9    S    
C47   C48   A    
C9    H45   S    
C34   H35   S    
C23   C34   D    
O29   Zn8   S    
C50   H25   S    
O9    Zn8   S    
C50   C51   A    
C64   C76   S    
C39   H15   S    
C71   O31   A    
C55   C57   A    
C88   H66   S    
C80   H44   S    
C6    C7    A    
C76   O22   S    
O4    Zn4   S    
C1    O26   A    
C14   H3    S    
C33   C73   S    
C48   C49   A    
O13   Zn1   S    
C88   C90   S    
C5    H67   S    
O2    Zn7   S    
C32   H14   S    
C39   C46   A    
C12   C76   D    
C72   O2    A    
C22   C24   A    
C42   C43   A    
C64   H1    S    
C57   C68   S    
O28   Zn8   S    
C10   C17   A    
C16   O12   A    
C40   O16   A    
C54   C55   A    
C81   H48   S    
C79   H43   S    
C89   H23   S    
C65   H31   S    
C41   H16   S    
C78   H12   S    
C86   C87   S    
O5    Zn8   S    
C52   O19   A    
O10   Zn6   S    
C4    O13   A    
C80   C81   S    
C3    C5    A    
C15   C17   A    
C23   H33   S    
O30   Zn5   S    
O14   Zn2   S    
C84   H55   S    
C63   O25   S    
C69   O10   A    
C7    H73   S    
O28   Zn7   S    
C82   O22   S    
C32   C33   A    
C40   O18   A    
C54   H27   S    
C58   C59   A    
O1    Zn1   S    
C65   C66   A    
O15   Zn3   S    
C86   H60   S    
C19   O20   S    
C83   H52   S    
C21   H7    S    
C11   C13   A    
C61   C68   A    
C90   C91   S    
C5    C6    A    
C42   H17   S    
C45   H36   S    
C1    O4    A    
C69   O29   A    
C33   C35   A    
C64   C75   D    
O3    Zn6   S    
C29   H11   S    
C87   H64   S    
C77   H39   S    
C56   H37   S    
C90   H69   S    
O7    Zn5   S    
O1    Zn4   S    
C74   O5    A    
C55   C70   S    
C10   C11   A    
C79   C80   S    
C66   H32   S    
C2    H34   S    
C20   C21   A    
C49   C50   A    
C30   H13   S    
C14   C15   A    
C91   H70   S    
C2    C28   S    
C43   H18   S    
C21   C22   A    
C35   C46   S    
C70   O11   A    
C34   C71   S    
C16   C59   S    
C62   H30   S    
C47   H21   S    
O31   Zn6   S    
C48   H22   S    
C44   H19   S    
