data_mof_unit_55257.cif
_audit_creation_date              2012-12-10T18:57:08-0500
_audit_creation_method            fapswitch 2.2
_symmetry_space_group_name_H-M    P1
_symmetry_Int_Tables_number       1
_space_group_crystal_system       triclinic
_cell_length_a                    8.71789
_cell_length_b                    10.854821
_cell_length_c                    9.530018
_cell_angle_alpha                 89.491094
_cell_angle_beta                  97.167536
_cell_angle_gamma                 90.408312
_cell_volume                      894.73731822

loop_
_atom_site_label
_atom_site_type_symbol
_atom_type_description
_atom_site_fract_x
_atom_site_fract_y
_atom_site_fract_z
_atom_type_partial_charge
C1    C     C_R   0.499459 0.262621 0.500297 0.785675
C2    C     C_R   0.456510 0.940354 0.364326 0.070028
C3    C     C_R   0.494882 0.871634 0.492713 -0.131161
C4    C     C_R   0.547339 0.935060 0.616865 0.096533
C5    C     C_3   0.494756 0.926983 0.760331 -0.457947
C6    C     C_3   0.499973 0.066744 0.763161 -0.472187
C7    C     C_R   0.576445 0.590243 0.081395 0.240536
C8    C     C_R   0.413093 0.417796 0.065413 -0.076492
C9    C     C_R   0.413417 0.417577 0.916481 -0.091016
C10   C     C_R   0.576010 0.590564 0.933844 0.268600
C11   C     C_3   0.744743 0.618943 0.946561 -0.505026
C12   C     C_R   0.204176 0.495033 0.465113 0.857221
C13   C     C_3   0.745288 0.617706 0.105640 -0.526691
C14   C     C_R   0.494870 0.737755 0.497946 0.796921
C15   C     C_R   0.795034 0.489871 0.535326 0.856788
C16   C     C_2   0.038829 0.498417 0.449870 -0.398064
C17   C     C_2   0.956387 0.456782 0.551193 -0.072136
C18   C     C_R   0.551401 0.061735 0.619771 0.114610
C19   C     C_R   0.503094 0.129923 0.498441 -0.117169
C20   C     C_R   0.464083 0.068901 0.369978 -0.247052
Cu1   Cu    Cu3+1 0.499990 0.499980 0.640670 0.922950
Cu2   Cu    Cu3+1 0.500010 0.500020 0.359330 0.929224
H1    H     H_    0.984823 0.550442 0.359465 0.141373
H2    H     H_    0.346303 0.349028 0.853702 0.132701
H3    H     H_    0.813783 0.542889 0.909339 0.222256
H4    H     H_    0.768727 0.711494 0.903255 0.187511
H5    H     H_    0.812869 0.539806 0.157158 0.222505
H6    H     H_    0.770453 0.709291 0.154825 0.187851
H7    H     H_    0.430468 0.121962 0.274313 0.158276
H8    H     H_    0.375877 0.888414 0.757701 0.199937
H9    H     H_    0.582744 0.883967 0.839843 0.190210
H10   H     H_    0.384320 0.109440 0.762158 0.192083
H11   H     H_    0.591572 0.104060 0.843476 0.198969
H12   H     H_    0.345148 0.349740 0.114275 0.135953
N1    N     N_R   0.500980 0.500930 0.148050 -0.182325
N2    N     N_R   0.500990 0.500890 0.852140 -0.185044
O1    O     O_R   0.500000 0.319640 0.618810 -0.598958
O2    O     O_R   0.500020 0.319680 0.381230 -0.589091
O3    O     O_R   0.274830 0.499980 0.591380 -0.582341
O4    O     O_R   0.274850 0.500020 0.353800 -0.583169
O5    O     O_R   0.499980 0.680320 0.618770 -0.574695
O6    O     O_R   0.500000 0.680360 0.381190 -0.582809
O7    O     O_R   0.725150 0.499980 0.646200 -0.591236
O8    O     O_R   0.725170 0.500020 0.408620 -0.585672
C21   C     C_3   0.017980 0.368659 0.671227 -0.380416
C22   C     C_3   0.912873 0.254998 0.680153 -0.362960
C23   C     C_3   0.987146 0.159915 0.786067 -0.886338
H13   H     H_    0.095426 0.124571 0.751387 0.248047
H14   H     H_    0.013547 0.201570 0.892476 0.253087
H15   H     H_    0.906260 0.081229 0.793205 0.249778
H16   H     H_    0.801220 0.282342 0.714695 0.246912
H17   H     H_    0.889204 0.211358 0.574457 0.215807
H18   H     H_    0.132980 0.332234 0.655823 0.222272
H19   H     H_    0.028717 0.418977 0.773088 0.197186
C24   C     C_3   0.397642 0.884480 0.221446 -0.369729
C25   C     C_3   0.233494 0.831449 0.219249 -0.318372
C26   C     C_3   0.179437 0.769410 0.078438 -0.841926
H20   H     H_    0.179822 0.836497 0.989751 0.243792
H21   H     H_    0.256027 0.691081 0.061421 0.259682
H22   H     H_    0.060030 0.733551 0.079246 0.245385
H23   H     H_    0.227996 0.763059 0.305700 0.224347
H24   H     H_    0.152622 0.907296 0.235409 0.204873
H25   H     H_    0.393266 0.955759 0.136396 0.176343
H26   H     H_    0.479857 0.815710 0.190121 0.213796

loop_
_geom_bond_atom_site_label_1
_geom_bond_atom_site_label_2
_ccdc_geom_bond_type
C21   H19   S    
C12   O4    A    
C7    C10   A    
C6    H10   S    
C24   C25   S    
C13   H6    S    
C25   H23   S    
C16   H1    S    
C19   C20   A    
Cu1   O3    S    
C6    H11   S    
C1    O1    A    
C14   O6    A    
C4    C18   A    
C24   H26   S    
C12   O3    A    
C2    C3    A    
C8    C9    A    
C21   H18   S    
C9    H2    S    
Cu1   N2    S    
C8    H12   S    
C21   C22   S    
Cu2   N1    S    
C11   C13   S    
C26   H20   S    
Cu2   O6    S    
C3    C14   S    
Cu2   O8    S    
C1    O2    A    
C14   O5    A    
Cu1   O5    S    
C4    C5    S    
C17   C21   S    
C15   O8    A    
C18   C19   A    
C23   H15   S    
C20   H7    S    
C5    C6    S    
C6    C18   S    
C25   H24   S    
C26   H21   S    
C2    C24   S    
C10   C11   S    
C11   H3    S    
C15   O7    A    
C3    C4    A    
Cu2   O2    S    
C9    N2    A    
C22   H17   S    
C7    C13   S    
Cu1   O1    S    
C25   C26   S    
C23   H14   S    
C5    H8    S    
C22   C23   S    
C15   C17   S    
C2    C20   A    
Cu2   O4    S    
C13   H5    S    
C26   H22   S    
C10   N2    A    
C11   H4    S    
C5    H9    S    
Cu1   Cu2   S    
C1    C19   S    
C7    N1    A    
C22   H16   S    
Cu1   O7    S    
C12   C16   S    
C16   C17   D    
C23   H13   S    
C8    N1    A    
C24   H25   S    
