data_mof_unit_40319.cif
_audit_creation_date              2013-03-05T16:34:42-0500
_audit_creation_method            fapswitch 2.2
_symmetry_space_group_name_H-M    P1
_symmetry_Int_Tables_number       1
_space_group_crystal_system       triclinic
_cell_length_a                    14.974808
_cell_length_b                    14.188546
_cell_length_c                    8.910229
_cell_angle_alpha                 90.000471
_cell_angle_beta                  90.027856
_cell_angle_gamma                 89.999954
_cell_volume                      1893.16283364

loop_
_atom_site_label
_atom_site_type_symbol
_atom_site_description
_atom_site_fract_x
_atom_site_fract_y
_atom_site_fract_z
_atom_type_partial_charge
O1    O     O_R   0.369060 0.579480 0.500010 -0.619026
O2    O     O_R   0.630940 0.420520 0.499990 -0.603957
O3    O     O_R   0.630940 0.579480 0.499990 -0.619060
O4    O     O_R   0.369060 0.420520 0.500010 -0.603928
C1    C     C_R   0.327961 0.499998 0.499979 1.006036
C2    C     C_R   0.672038 0.499998 0.500020 1.006185
O5    O     O_R   0.500000 0.579460 0.285340 -0.608153
O6    O     O_R   0.500000 0.420540 0.714660 -0.623964
O7    O     O_R   0.500000 0.579460 0.714660 -0.608041
O8    O     O_R   0.500000 0.420540 0.285340 -0.623867
C3    C     C_R   0.454993 0.105319 0.388051 -0.246972
C4    C     C_R   0.572841 0.894779 0.557045 -0.245040
C5    C     C_R   0.545006 0.105320 0.611950 -0.246973
C6    C     C_R   0.427158 0.894778 0.442956 -0.244998
C7    C     C_R   0.499965 0.499997 0.218575 1.023624
C8    C     C_R   0.500020 0.499997 0.781424 1.023607
Zn1   Zn    Zn3+2 0.500000 0.606140 0.500000 1.029813
Zn2   Zn    Zn3+2 0.500000 0.393860 0.500000 1.024861
H1    H     H_    0.420645 0.243231 0.303873 0.165085
H2    H     H_    0.627752 0.757040 0.600919 0.147484
H3    H     H_    0.579354 0.243233 0.696127 0.165009
H4    H     H_    0.372248 0.757039 0.399083 0.147476
N1    N     N_R   0.500000 0.252470 0.500000 -0.111880
N2    N     N_R   0.500000 0.747530 0.500000 -0.106249
C9    C     C_R   0.499999 0.053421 0.500000 0.126313
C10   C     C_R   0.499999 0.946680 0.500000 0.122926
C11   C     C_1   0.499977 0.499987 0.065354 -0.061702
C12   C     C_1   0.500000 0.499988 0.934646 -0.061702
C13   C     C_R   0.093152 0.547285 0.613420 -0.191050
C14   C     C_R   0.906846 0.452454 0.613564 -0.187356
C15   C     C_R   0.906846 0.547155 0.386450 -0.191016
C16   C     C_R   0.093149 0.452325 0.386578 -0.187411
H5    H     H_    0.056079 0.582890 0.701207 0.196237
H6    H     H_    0.943922 0.416873 0.701430 0.197104
H7    H     H_    0.943922 0.582657 0.298561 0.196245
H8    H     H_    0.056072 0.416644 0.298815 0.197111
C17   C     C_R   0.185754 0.547415 0.615661 0.268679
C18   C     C_R   0.814240 0.452517 0.615854 0.272993
C19   C     C_R   0.814244 0.547282 0.384201 0.268641
C20   C     C_R   0.185755 0.452388 0.384278 0.273072
C21   C     C_R   0.232074 0.499970 0.499940 -0.282847
C22   C     C_R   0.767923 0.499969 0.500058 -0.282844
C23   C     C_R   0.047871 0.499759 0.500019 0.010669
C24   C     C_R   0.952126 0.499760 0.499991 0.010659
C25   C     C_R   0.455605 0.204503 0.390430 0.053094
C26   C     C_R   0.571352 0.795592 0.556412 0.060419
C27   C     C_R   0.544395 0.204504 0.609571 0.053012
C28   C     C_R   0.428648 0.795591 0.443589 0.060504
H9    H     H_    0.420445 0.069891 0.297537 0.153125
H10   H     H_    0.631458 0.930209 0.600140 0.154257
H11   H     H_    0.579553 0.069893 0.702464 0.153110
H12   H     H_    0.368541 0.930208 0.399862 0.154276
N3    N     N_R   0.231302 0.593123 0.737807 0.221997
O9    O     O_R   0.297620 0.551485 0.804836 -0.391273
O10   O     O_R   0.198023 0.669171 0.797284 -0.360065
N4    N     N_R   0.768683 0.406888 0.738001 0.216421
O11   O     O_R   0.702359 0.448552 0.804865 -0.403303
O12   O     O_R   0.801844 0.330759 0.797453 -0.365536
N5    N     N_R   0.768698 0.592847 0.261917 0.222008
O13   O     O_R   0.702347 0.551154 0.195067 -0.391206
O14   O     O_R   0.802009 0.668787 0.202147 -0.360017
N6    N     N_R   0.231309 0.406632 0.262245 0.216420
O15   O     O_R   0.297626 0.448229 0.195259 -0.403433
O16   O     O_R   0.198147 0.330438 0.203001 -0.365600

loop_
_geom_bond_atom_site_label_1
_geom_bond_atom_site_label_2
_geom_bond_distance
_ccdc_geom_bond_type
C8    C12   1.365240 S    
H4    C28   1.081416 S    
C23   C24   1.433767 S    
H1    C25   1.081867 S    
C6    H12   1.081815 S    
O3    Zn1   1.996954 S    
N6    O15   1.300536 A    
N1    C25   1.362966 A    
O2    Zn2   1.996955 S    
C18   N4    1.438684 S    
O1    Zn1   1.996956 S    
C15   C19   1.386842 A    
O3    C2    1.284734 A    
C19   N5    1.438616 S    
C6    C10   1.410642 A    
N1    C27   1.362965 A    
O5    C7    1.274782 A    
N6    O16   1.301424 A    
N2    C26   1.363380 A    
N5    O13   1.300533 A    
O6    C8    1.274705 A    
N3    O9    1.300542 A    
C13   C23   1.390970 A    
C17   N3    1.438598 S    
C14   C24   1.391053 A    
O2    C2    1.284684 A    
O8    Zn2   1.949774 S    
O1    C1    1.284739 A    
C16   H8    1.084277 S    
O7    Zn1   1.949774 S    
C20   C21   1.413604 A    
C16   C23   1.391052 A    
N4    O12   1.301419 A    
C18   C22   1.413590 A    
C19   C22   1.413560 A    
O8    C7    1.274707 A    
N3    O10   1.301430 A    
C17   C21   1.413561 A    
C7    C11   1.365240 S    
C15   H7    1.084280 S    
C3    C25   1.407469 A    
Zn1   N2    2.006119 S    
N5    O14   1.301417 A    
C15   C24   1.390969 A    
C14   H6    1.084275 S    
C1    C21   1.435885 S    
Zn2   N1    2.006119 S    
N2    C28   1.363381 A    
C13   H5    1.084281 S    
C16   C20   1.386914 A    
C20   N6    1.438692 S    
C3    H9    1.081824 S    
C14   C18   1.386917 A    
C4    C26   1.407509 A    
C2    C22   1.435862 S    
C13   C17   1.386834 A    
C11   C12   1.164636 T    
N4    O11   1.300539 A    
C3    C9    1.410959 A    
O4    C1    1.284690 A    
C6    C28   1.407509 A    
O5    Zn1   1.949767 S    
C9    C10   1.514497 S    
C5    H11   1.081823 S    
C5    C27   1.407468 A    
O4    Zn2   1.996956 S    
O7    C8    1.274783 A    
O6    Zn2   1.949767 S    
C5    C9    1.410957 A    
C4    C10   1.410643 A    
C4    H10   1.081815 S    
H3    C27   1.081868 S    
H2    C26   1.081415 S    
