data_mof_unit_43626.cif
_audit_creation_date              2012-12-11T14:21:05-0500
_audit_creation_method            fapswitch 2.2
_symmetry_space_group_name_H-M    P1
_symmetry_Int_Tables_number       1
_space_group_crystal_system       triclinic
_cell_length_a                    21.952951
_cell_length_b                    7.207889
_cell_length_c                    14.930624
_cell_angle_alpha                 89.622745
_cell_angle_beta                  106.926668
_cell_angle_gamma                 89.877328
_cell_volume                      2260.12001603

loop_
_atom_site_label
_atom_site_type_symbol
_atom_type_description
_atom_site_fract_x
_atom_site_fract_y
_atom_site_fract_z
_atom_type_partial_charge
O1    O     O_R   0.584770 0.505770 0.002090 -0.540603
O2    O     O_R   0.415230 0.005770 0.997910 -0.541104
O3    O     O_R   0.467060 0.173340 0.861950 -0.538105
O4    O     O_R   0.532940 0.673340 0.138050 -0.538067
C1    C     C_R   0.455125 0.345008 0.826093 0.678363
C2    C     C_R   0.544959 0.843429 0.174036 0.678572
O5    O     O_R   0.587510 0.175890 0.993210 -0.541326
O6    O     O_R   0.412490 0.675890 0.006790 -0.541090
O7    O     O_R   0.536540 0.008150 0.130100 -0.536822
O8    O     O_R   0.463460 0.508150 0.869900 -0.536003
C3    C     C_R   0.612972 0.344788 0.997488 0.731922
C4    C     C_R   0.387026 0.845043 0.002546 0.732190
O9    O     O_3   0.483140 0.340040 0.044760 -0.378769
O10   O     O_3   0.516860 0.840040 0.955240 -0.378363
V1    V     V_3+5 0.503130 0.064190 0.991700 1.423085
V2    V     V_3+5 0.496870 0.564190 0.008300 1.424398
C5    C     C_2   0.214099 0.727385 0.003388 -0.118578
C6    C     C_2   0.786286 0.227702 0.997460 -0.107870
C7    C     C_2   0.180293 0.886517 0.996144 -0.284761
C8    C     C_2   0.819686 0.386929 0.003877 -0.287731
H1    H     H_    0.191120 0.596473 0.009278 0.141263
H2    H     H_    0.809630 0.096899 0.992312 0.141357
H3    H     H_    0.201752 0.018834 0.989121 0.133862
H4    H     H_    0.797907 0.519166 0.010241 0.130546
C9    C     C_2   0.281989 0.714655 0.003136 -0.129694
C10   C     C_2   0.718404 0.214461 0.997674 -0.129099
C11   C     C_2   0.319917 0.861592 0.003488 -0.298517
C12   C     C_2   0.680063 0.361185 0.996524 -0.299449
H5    H     H_    0.301274 0.575713 0.003386 0.138443
H6    H     H_    0.699500 0.075457 0.998101 0.137825
H7    H     H_    0.301924 0.001383 0.004167 0.132386
H8    H     H_    0.697745 0.500995 0.995255 0.132074
C13   C     C_R   0.927570 0.891794 0.723867 -0.040698
C14   C     C_R   0.072553 0.382678 0.275717 -0.038840
C15   C     C_R   0.573514 0.846550 0.275479 -0.028695
C16   C     C_R   0.426344 0.356175 0.724957 -0.024781
C17   C     C_R   0.936743 0.953684 0.569508 -0.085064
C18   C     C_R   0.061105 0.343190 0.430291 -0.084036
C19   C     C_R   0.964565 0.938545 0.665646 -0.135117
C20   C     C_R   0.033896 0.359195 0.334020 -0.136201
C21   C     C_R   0.862435 0.860249 0.686008 -0.188603
C22   C     C_R   0.138565 0.390498 0.313365 -0.188757
C23   C     C_R   0.832197 0.879084 0.588539 0.045797
C24   C     C_R   0.167913 0.374532 0.411083 0.045868
C25   C     C_R   0.870793 0.926552 0.529877 0.059125
C26   C     C_R   0.127756 0.349999 0.469977 0.059013
C27   C     C_R   0.764978 0.855977 0.548203 0.062262
C28   C     C_R   0.235574 0.380986 0.451591 0.061996
C29   C     C_R   0.737167 0.881669 0.449648 0.005251
C30   C     C_R   0.262276 0.360863 0.550619 0.005065
C31   C     C_R   0.777513 0.927385 0.394496 -0.203051
C32   C     C_R   0.220496 0.337028 0.605993 -0.202585
C33   C     C_R   0.842781 0.948824 0.433117 0.253260
C34   C     C_R   0.154809 0.332050 0.567138 0.252386
C35   C     C_R   0.724561 0.808489 0.603258 -0.169367
C36   C     C_R   0.277475 0.407349 0.396317 -0.169127
C37   C     C_R   0.659554 0.786765 0.563891 -0.203530
C38   C     C_R   0.342912 0.412960 0.435919 -0.203841
C39   C     C_R   0.631799 0.810275 0.468141 0.142786
C40   C     C_R   0.369678 0.392888 0.532063 0.142610
C41   C     C_R   0.669851 0.859159 0.409332 0.100564
C42   C     C_R   0.330016 0.366166 0.591102 0.100975
C43   C     C_R   0.566064 0.781647 0.430572 -0.165507
C44   C     C_R   0.436178 0.400673 0.569670 -0.164775
C45   C     C_R   0.537305 0.797180 0.334648 -0.171350
C46   C     C_R   0.464316 0.383154 0.665707 -0.174417
C47   C     C_R   0.638798 0.879636 0.312200 -0.205463
C48   C     C_R   0.360125 0.347029 0.688469 -0.203944
H9    H     H_    0.663837 0.914585 0.262249 0.102923
H10   H     H_    0.333984 0.326614 0.738550 0.099868
H11   H     H_    0.486915 0.768773 0.306351 0.106637
H12   H     H_    0.515623 0.391495 0.693897 0.105022
H13   H     H_    0.630704 0.749228 0.609067 0.121155
H14   H     H_    0.372957 0.433872 0.390524 0.120868
H15   H     H_    0.967375 0.990561 0.527159 0.182453
H16   H     H_    0.029266 0.324487 0.472867 0.182245
H17   H     H_    0.014995 0.965276 0.694888 0.159759
H18   H     H_    0.982621 0.352381 0.304879 0.156237
H19   H     H_    0.836800 0.828010 0.735526 0.092303
H20   H     H_    0.165213 0.407137 0.263710 0.090238
H21   H     H_    0.759995 0.948117 0.320016 0.159235
H22   H     H_    0.237140 0.322031 0.680862 0.158972
H23   H     H_    0.741358 0.785343 0.677629 0.118576
H24   H     H_    0.261609 0.425371 0.321554 0.119125
H25   H     H_    0.537074 0.743074 0.475355 0.114614
H26   H     H_    0.466452 0.421735 0.524658 0.114519
O11   O     O_R   0.036450 0.233070 0.130130 -0.536315
O12   O     O_R   0.963550 0.733070 0.869870 -0.536986
O13   O     O_R   0.912470 0.560570 0.006790 -0.544857
O14   O     O_R   0.087530 0.060570 0.993210 -0.542573
C49   C     C_R   0.886997 0.392034 0.002646 0.731538
C50   C     C_R   0.113005 0.891792 0.997377 0.732884
O15   O     O_R   0.032920 0.562940 0.138050 -0.537005
O16   O     O_R   0.967080 0.062940 0.861950 -0.536276
O17   O     O_R   0.084790 0.730500 0.002090 -0.539366
O18   O     O_R   0.915210 0.230500 0.997910 -0.537896
C51   C     C_R   0.044586 0.393668 0.174401 0.688620
C52   C     C_R   0.955312 0.895244 0.825477 0.688415
O19   O     O_3   0.016820 0.396170 0.955260 -0.374369
O20   O     O_3   0.983180 0.896170 0.044740 -0.374966
V3    V     V_3+5 0.996880 0.672090 0.008300 1.462916
V4    V     V_3+5 0.003120 0.172090 0.991700 1.470800
Br1   Br    Br    0.891005 0.011461 0.348084 -0.598069
Br2   Br    Br    0.104569 0.299443 0.652523 -0.600792

loop_
_geom_bond_atom_site_label_1
_geom_bond_atom_site_label_2
_ccdc_geom_bond_type
C43   C45   A    
C22   H20   S    
O18   V4    S    
C14   C22   A    
O2    C4    A    
C2    O7    A    
O12   V3    S    
C27   C29   A    
C18   H16   S    
O5    C3    A    
C13   C19   A    
C14   C20   A    
C19   H17   S    
C34   Br2   S    
C16   C46   A    
C37   C39   A    
C15   C45   A    
C38   C40   A    
C1    C16   S    
C14   C51   S    
C2    C15   S    
C40   C42   A    
C13   C52   S    
C37   H13   S    
O14   V4    S    
C7    C50   S    
C49   O18   A    
C46   H12   S    
C8    H4    S    
C24   C26   A    
C29   C31   A    
C6    C10   S    
C30   C32   A    
O13   C49   A    
C31   H21   S    
C28   C30   A    
C17   H15   S    
C25   C33   A    
O6    V2    S    
C43   H25   S    
C21   C23   A    
C22   C24   A    
C44   H26   S    
C32   C34   A    
C36   H24   S    
C9    H5    S    
C8    C49   S    
C39   C41   A    
C29   C41   A    
C4    C11   S    
C11   H7    S    
C12   H8    S    
O4    C2    A    
O15   V3    S    
C45   H11   S    
C50   O17   A    
C5    H1    S    
C47   H9    S    
C44   C46   A    
O4    V2    S    
C7    H3    S    
C35   H23   S    
O11   V4    S    
C41   C47   A    
O14   C50   A    
C15   C47   A    
O6    C4    A    
C26   C34   A    
O1    V2    S    
C32   H22   S    
O2    V1    S    
C23   C25   A    
C10   H6    S    
C35   C37   A    
C30   C42   A    
C20   H18   S    
C17   C25   A    
O15   C51   A    
O3    V1    S    
C38   H14   S    
C27   C35   A    
C28   C36   A    
O13   V3    S    
C6    H2    S    
C10   C12   D    
O3    C1    A    
C21   H19   S    
C16   C48   A    
C9    C11   D    
C39   C43   A    
C42   C48   A    
C40   C44   A    
C13   C21   A    
O7    V1    S    
C5    C9    S    
C1    O8    A    
C17   C19   A    
O8    V2    S    
C18   C20   A    
C3    C12   S    
C33   Br1   S    
O5    V1    S    
O20   V3    S    
C5    C7    D    
C36   C38   A    
C6    C8    D    
C18   C26   A    
O17   V3    S    
O19   V4    S    
O16   V4    S    
C48   H10   S    
O9    V2    S    
O16   C52   A    
O10   V1    S    
O1    C3    A    
C31   C33   A    
C23   C27   A    
O12   C52   A    
C24   C28   A    
O11   C51   A    
