data_mof_unit_30037.cif
_audit_creation_date              2012-12-11T15:24:01-0500
_audit_creation_method            fapswitch 2.2
_symmetry_space_group_name_H-M    P1
_symmetry_Int_Tables_number       1
_space_group_crystal_system       triclinic
_cell_length_a                    17.244839
_cell_length_b                    24.218358
_cell_length_c                    14.921777
_cell_angle_alpha                 90.013354
_cell_angle_beta                  125.478845
_cell_angle_gamma                 90.020658
_cell_volume                      5074.86692419

loop_
_atom_site_label
_atom_site_type_symbol
_atom_type_description
_atom_site_fract_x
_atom_site_fract_y
_atom_site_fract_z
_atom_type_partial_charge
C1    C     C_R   0.310265 0.375566 0.908226 -0.066270
C2    C     C_R   0.645887 0.346978 0.090716 -0.010599
C3    C     C_R   0.810266 0.875566 0.908224 -0.066307
C4    C     C_R   0.145881 0.846977 0.090715 -0.010489
C5    C     C_R   0.307879 0.635102 0.996391 0.116952
C6    C     C_R   0.617925 0.684751 0.003909 0.087966
C7    C     C_R   0.807879 0.135101 0.996390 0.116952
C8    C     C_R   0.117927 0.184751 0.003912 0.087985
C9    C     C_R   0.569934 0.498996 0.369737 -0.114157
C10   C     C_R   0.550205 0.498380 0.723436 -0.142160
C11   C     C_R   0.069930 0.998996 0.369735 -0.114150
C12   C     C_R   0.050206 0.998379 0.723437 -0.142161
C13   C     C_R   0.207819 0.498663 0.627269 -0.208193
C14   C     C_R   0.826946 0.499753 0.314488 -0.302631
C15   C     C_R   0.707829 0.998656 0.627265 -0.208617
C16   C     C_R   0.326956 0.999759 0.314375 -0.302340
C17   C     C_2   0.980199 0.464851 0.374177 -0.193206
C18   C     C_2   0.081142 0.456036 0.458902 -0.250846
C19   C     C_2   0.480224 0.964827 0.374134 -0.193422
C20   C     C_2   0.581156 0.956016 0.458915 -0.250907
C21   C     C_2   0.929886 0.499383 0.392870 0.685512
C22   C     C_2   0.140278 0.499126 0.507053 0.677118
C23   C     C_2   0.429896 0.999406 0.392721 0.685268
C24   C     C_2   0.640308 0.999102 0.507043 0.677338
C25   C     C_R   0.150036 0.683112 0.897313 0.775126
C26   C     C_R   0.708406 0.771034 0.103172 0.793821
C27   C     C_R   0.650037 0.183112 0.897312 0.775129
C28   C     C_R   0.208427 0.271027 0.103184 0.793830
C29   C     C_R   0.604115 0.229408 0.899842 -0.378234
C30   C     C_R   0.255257 0.316695 0.100307 -0.386592
C31   C     C_R   0.104111 0.729406 0.899844 -0.378266
C32   C     C_R   0.755242 0.816699 0.100297 -0.386609
C33   C     C_R   0.638506 0.255612 0.000321 -0.161090
C34   C     C_R   0.235575 0.334768 0.999831 -0.157648
C35   C     C_R   0.138501 0.755610 0.000322 -0.161075
C36   C     C_R   0.735572 0.834766 0.999823 -0.157633
C37   C     C_R   0.704991 0.227454 0.098848 0.792411
C38   C     C_R   0.152311 0.315874 0.901590 0.784825
C39   C     C_R   0.204989 0.727454 0.098849 0.792394
C40   C     C_R   0.652315 0.815868 0.901579 0.784791
C41   C     C_R   0.251414 0.681590 0.096027 -0.383767
C42   C     C_R   0.606042 0.769779 0.904183 -0.371770
C43   C     C_R   0.751413 0.181589 0.096026 -0.383763
C44   C     C_R   0.106038 0.269785 0.904194 -0.371788
C45   C     C_R   0.398599 0.622512 0.089449 -0.109591
C46   C     C_R   0.556290 0.652777 0.911727 -0.028701
C47   C     C_R   0.898598 0.122512 0.089448 -0.109603
C48   C     C_R   0.056292 0.152777 0.911729 -0.028690
C49   C     C_R   0.232487 0.663725 0.995830 -0.156417
C50   C     C_R   0.640984 0.743277 0.004526 -0.163726
C51   C     C_R   0.732486 0.163724 0.995829 -0.156422
C52   C     C_R   0.140990 0.243277 0.004535 -0.163740
C53   C     C_R   0.618667 0.545529 0.635759 -0.136832
C54   C     C_R   0.622653 0.545941 0.545600 -0.155662
C55   C     C_R   0.118666 0.045529 0.635759 -0.136842
C56   C     C_R   0.122650 0.045941 0.545599 -0.155596
C57   C     C_R   0.603945 0.497231 0.485310 0.153917
C58   C     C_R   0.594373 0.496655 0.664239 0.158776
C59   C     C_R   0.103942 0.997231 0.485308 0.153928
C60   C     C_R   0.094374 0.996655 0.664240 0.158774
C61   C     C_R   0.602134 0.446804 0.530270 -0.147654
C62   C     C_R   0.597523 0.446511 0.619584 -0.153285
C63   C     C_R   0.102131 0.946804 0.530269 -0.147660
C64   C     C_R   0.097522 0.946511 0.619584 -0.153287
C65   C     C_R   0.551559 0.453524 0.304288 -0.256542
C66   C     C_R   0.519817 0.452732 0.751593 -0.202199
C67   C     C_R   0.051556 0.953523 0.304287 -0.256538
C68   C     C_R   0.019817 0.952732 0.751594 -0.202181
C69   C     C_R   0.250061 0.544606 0.692974 -0.162700
C70   C     C_R   0.769306 0.545974 0.273160 -0.162754
C71   C     C_R   0.750062 0.044602 0.692967 -0.162867
C72   C     C_R   0.269309 0.045976 0.273101 -0.162401
C73   C     C_R   0.551371 0.544844 0.304525 0.686320
C74   C     C_R   0.518551 0.544724 0.748789 0.702321
C75   C     C_R   0.051369 0.044844 0.304524 0.686345
C76   C     C_R   0.018552 0.044724 0.748790 0.702291
C77   C     C_R   0.251796 0.453360 0.694247 0.657606
C78   C     C_R   0.768960 0.453663 0.272307 0.689231
C79   C     C_R   0.751803 0.953356 0.694250 0.657582
C80   C     C_R   0.268970 0.953666 0.272240 0.689080
C81   C     C_R   0.308182 0.623004 0.905539 -0.090122
C82   C     C_R   0.649212 0.651349 0.093873 -0.073144
C83   C     C_R   0.808181 0.123003 0.905539 -0.090152
C84   C     C_R   0.149210 0.151349 0.093874 -0.073167
C85   C     C_R   0.401438 0.375837 0.092048 -0.115501
C86   C     C_R   0.555152 0.346605 0.908598 -0.126780
C87   C     C_R   0.901437 0.875835 0.092046 -0.115525
C88   C     C_R   0.055150 0.846605 0.908598 -0.126781
C89   C     C_R   0.310634 0.363264 0.999525 0.110894
C90   C     C_R   0.615635 0.314138 0.000253 0.091723
C91   C     C_R   0.810633 0.863262 0.999522 0.110895
C92   C     C_R   0.115630 0.814137 0.000253 0.091688
H1    H     H_    0.253137 0.370853 0.822524 0.220289
H2    H     H_    0.680804 0.333796 0.174516 0.237033
H3    H     H_    0.753140 0.870853 0.822522 0.220279
H4    H     H_    0.180792 0.833794 0.174514 0.237007
H5    H     H_    0.547040 0.246770 0.822097 0.192375
H6    H     H_    0.312782 0.334023 0.177907 0.187400
H7    H     H_    0.047034 0.746767 0.822098 0.192371
H8    H     H_    0.812759 0.834032 0.177896 0.187395
H9    H     H_    0.308204 0.663930 0.173638 0.194260
H10   H     H_    0.548299 0.752767 0.826413 0.197285
H11   H     H_    0.808201 0.163928 0.173636 0.194258
H12   H     H_    0.048286 0.252777 0.826426 0.197284
H13   H     H_    0.626845 0.584261 0.676169 0.203394
H14   H     H_    0.632671 0.585156 0.519552 0.213059
H15   H     H_    0.126845 0.084261 0.676170 0.203402
H16   H     H_    0.132667 0.085156 0.519550 0.213071
H17   H     H_    0.593630 0.407734 0.490612 0.130135
H18   H     H_    0.586173 0.407251 0.644548 0.128046
H19   H     H_    0.093626 0.907734 0.490610 0.130127
H20   H     H_    0.086173 0.907251 0.644549 0.128044
H21   H     H_    0.424546 0.626760 0.174402 0.165031
H22   H     H_    0.507187 0.667643 0.828727 0.164330
H23   H     H_    0.924545 0.126760 0.174401 0.165030
H24   H     H_    0.007193 0.167644 0.828728 0.164334
H25   H     H_    0.571150 0.411243 0.331045 0.152399
H26   H     H_    0.530482 0.409729 0.743305 0.144130
H27   H     H_    0.071147 0.911242 0.331044 0.152384
H28   H     H_    0.030483 0.909729 0.743307 0.144128
H29   H     H_    0.242571 0.586512 0.663884 0.175035
H30   H     H_    0.790847 0.588714 0.292597 0.177722
H31   H     H_    0.742568 0.086508 0.663873 0.175038
H32   H     H_    0.290851 0.088717 0.292526 0.177814
H33   H     H_    0.251614 0.627757 0.819587 0.189134
H34   H     H_    0.687134 0.663385 0.178886 0.196575
H35   H     H_    0.751614 0.127755 0.819586 0.189121
H36   H     H_    0.187123 0.163385 0.178885 0.196599
H37   H     H_    0.428344 0.371327 0.177325 0.115795
H38   H     H_    0.508051 0.332807 0.824366 0.127908
H39   H     H_    0.928342 0.871324 0.177323 0.115793
H40   H     H_    0.008050 0.832807 0.824366 0.127913
H41   H     H_    0.944287 0.436294 0.305188 0.151716
H42   H     H_    0.097969 0.416069 0.498547 0.202182
H43   H     H_    0.444319 0.936221 0.305227 0.151924
H44   H     H_    0.597954 0.916062 0.498604 0.202134
N1    N     N_R   0.395440 0.396300 0.944370 -0.056421
N2    N     N_R   0.604560 0.396300 0.055630 -0.074243
N3    N     N_R   0.895440 0.896300 0.944370 -0.056416
N4    N     N_R   0.104560 0.896300 0.055630 -0.074247
N5    N     N_R   0.449890 0.602500 0.055780 -0.044645
N6    N     N_R   0.550110 0.602500 0.944220 -0.062779
N7    N     N_R   0.949890 0.102500 0.055780 -0.044647
N8    N     N_R   0.050110 0.102500 0.944220 -0.062777
N9    N     N_R   0.525090 0.470990 0.205640 -0.075943
N10   N     N_R   0.474910 0.470990 0.794360 -0.069985
N11   N     N_R   0.025090 0.970990 0.205640 -0.075940
N12   N     N_R   0.974910 0.970990 0.794360 -0.069971
N13   N     N_R   0.320240 0.527820 0.794510 -0.090675
N14   N     N_R   0.679760 0.527820 0.205490 -0.078348
N15   N     N_R   0.820240 0.027820 0.794510 -0.090631
N16   N     N_R   0.179760 0.027820 0.205490 -0.078420
N17   N     N_R   0.524580 0.527810 0.205160 -0.104200
N18   N     N_R   0.475420 0.527810 0.794840 -0.113893
N19   N     N_R   0.024580 0.027810 0.205160 -0.104203
N20   N     N_R   0.975420 0.027810 0.794840 -0.113886
N21   N     N_R   0.320750 0.470990 0.794990 -0.099210
N22   N     N_R   0.679250 0.470990 0.205010 -0.104459
N23   N     N_R   0.820750 0.970990 0.794990 -0.099181
N24   N     N_R   0.179250 0.970990 0.205010 -0.104465
N25   N     N_R   0.393580 0.602500 0.942610 -0.066364
N26   N     N_R   0.606420 0.602500 0.057390 -0.066620
N27   N     N_R   0.893580 0.102500 0.942610 -0.066357
N28   N     N_R   0.106420 0.102500 0.057390 -0.066638
N29   N     N_R   0.451750 0.396300 0.057540 -0.051972
N30   N     N_R   0.548250 0.396300 0.942460 -0.050191
N31   N     N_R   0.951750 0.896300 0.057540 -0.051977
N32   N     N_R   0.048250 0.896300 0.942460 -0.050194
Ni1   Ni    Ni4+2 0.435420 0.434250 0.870220 0.266005
Ni2   Ni    Ni4+2 0.564580 0.434250 0.129780 0.238568
Ni3   Ni    Ni4+2 0.935420 0.934250 0.870220 0.266010
Ni4   Ni    Ni4+2 0.064580 0.934250 0.129780 0.238547
Ni5   Ni    Ni4+2 0.563400 0.564580 0.128670 0.264645
Ni6   Ni    Ni4+2 0.436600 0.564580 0.871330 0.220036
Ni7   Ni    Ni4+2 0.063400 0.064580 0.128670 0.264658
Ni8   Ni    Ni4+2 0.936600 0.064580 0.871330 0.220029
O1    O     O_3   0.975263 0.535444 0.482090 -0.584956
C93   C     C_3   0.938926 0.528590 0.545167 -0.128809
H45   H     H_    0.937816 0.484335 0.564802 0.131740
H46   H     H_    0.866791 0.547013 0.503058 0.146785
H47   H     H_    0.986341 0.550721 0.624392 0.198425
O2    O     O_3   0.117823 0.548954 0.451587 -0.574289
C94   C     C_3   0.185306 0.558854 0.428856 -0.180460
H48   H     H_    0.182651 0.526015 0.374878 0.131706
H49   H     H_    0.258689 0.562493 0.505713 0.130993
H50   H     H_    0.167819 0.598616 0.384139 0.193183
O3    O     O_3   0.475237 0.035543 0.481809 -0.584805
C95   C     C_3   0.439297 0.028507 0.545257 -0.129256
H51   H     H_    0.438847 0.984242 0.565294 0.131884
H52   H     H_    0.366939 0.046606 0.503243 0.146630
H53   H     H_    0.486586 0.050834 0.624266 0.198607
O4    O     O_3   0.617904 0.048911 0.451522 -0.574226
C96   C     C_3   0.685530 0.058809 0.429012 -0.180200
H54   H     H_    0.683107 0.025918 0.375266 0.131588
H55   H     H_    0.758831 0.062546 0.505969 0.131031
H56   H     H_    0.668006 0.098519 0.384124 0.193150
F1    F     F_    0.117614 0.660849 0.798016 -0.712633
F2    F     F_    0.735756 0.752360 0.203086 -0.702885
F3    F     F_    0.617616 0.160850 0.798014 -0.712675
F4    F     F_    0.235807 0.252344 0.203103 -0.702874
F5    F     F_    0.731992 0.245846 0.198812 -0.691634
F6    F     F_    0.119371 0.338379 0.802361 -0.699646
F7    F     F_    0.231991 0.745845 0.198814 -0.691648
F8    F     F_    0.619380 0.838368 0.802348 -0.699706
F9    F     F_    0.580447 0.597229 0.340293 -0.727573
F10   F     F_    0.522454 0.597913 0.724155 -0.741857
F11   F     F_    0.080445 0.097229 0.340292 -0.727540
F12   F     F_    0.022454 0.097913 0.724155 -0.741861
F13   F     F_    0.252421 0.401992 0.658497 -0.718153
F14   F     F_    0.796279 0.400623 0.303130 -0.710087
F15   F     F_    0.752442 0.901988 0.658508 -0.718149
F16   F     F_    0.296305 0.900626 0.303051 -0.710119

loop_
_geom_bond_atom_site_label_1
_geom_bond_atom_site_label_2
_ccdc_geom_bond_type
C25   C31   A    
C7    C83   A    
C55   C56   A    
N16   N24   A    
N4    N32   A    
C6    C82   A    
C87   C91   A    
C27   C29   A    
C28   C52   A    
C19   C23   D    
C19   C20   S    
C70   N14   A    
N7    Ni7   S    
N8    N28   A    
C61   H17   S    
N1    N29   A    
C93   H45   S    
C44   H12   S    
C39   C41   A    
N26   Ni5   S    
C53   C54   A    
C47   H23   S    
C12   C68   A    
C74   N18   A    
C69   H29   S    
C28   F4    S    
N23   Ni3   S    
C95   H53   S    
C32   C36   A    
C14   C21   S    
C3    C91   A    
C10   C58   S    
C39   F7    S    
C94   H49   S    
C79   N23   A    
C80   N24   A    
N2    Ni2   S    
C19   H43   S    
N17   Ni5   S    
N12   Ni3   S    
C48   N8    A    
N28   Ni7   S    
C95   H52   S    
N13   Ni6   S    
C87   H39   S    
C2    C90   A    
O2    C94   S    
C56   H16   S    
C73   F9    S    
N21   Ni1   S    
C4    H4    S    
N16   Ni7   S    
C75   F11   S    
C78   N22   A    
N32   Ni3   S    
C87   N31   A    
C40   F8    S    
C29   C33   A    
C27   C51   A    
C96   H55   S    
C16   C72   A    
N3    Ni3   S    
C46   H22   S    
C31   H7    S    
N14   N22   A    
C29   H5    S    
C8    C52   S    
N1    Ni1   S    
C68   N12   A    
C77   F13   S    
C80   F16   S    
C85   H37   S    
C35   C92   S    
C44   C52   A    
C40   C42   A    
N4    Ni4   S    
C8    C84   A    
C55   C60   A    
C72   H32   S    
C45   N5    A    
C21   O1    S    
C14   C70   A    
C5    C49   S    
C61   C62   A    
C9    C73   A    
C84   H36   S    
C11   C59   S    
N27   Ni8   S    
C42   H10   S    
N7    N27   A    
C34   C38   A    
C11   C67   A    
C60   C64   A    
C9    C65   A    
C10   C66   A    
C71   N15   A    
C66   N10   A    
C30   C34   A    
C2    N2    A    
C20   C24   D    
C36   C40   A    
C27   F3    S    
C69   N13   A    
C46   N6    A    
C86   C90   A    
C94   H50   S    
C66   H26   S    
C85   C89   A    
C26   C32   A    
C86   H38   S    
C82   N26   A    
C72   N16   A    
C5    C45   A    
C76   N20   A    
C20   H44   S    
C32   H8    S    
C55   H15   S    
C95   H51   S    
C16   C80   A    
C7    C47   A    
C37   C43   A    
C35   C39   A    
C94   H48   S    
C8    C48   A    
C38   C44   A    
C45   H21   S    
C4    N4    A    
C5    C81   A    
C70   H30   S    
C37   F5    S    
N10   N18   A    
C2    H2    S    
C96   H56   S    
N8    Ni8   S    
C17   C18   S    
N24   Ni4   S    
C24   O4    S    
C88   C92   A    
C6    C50   S    
C54   H14   S    
N3    N31   A    
C77   N21   A    
C58   C62   A    
C42   C50   A    
C36   C91   S    
C15   C24   S    
C96   H54   S    
C16   C23   S    
N5    Ni5   S    
C13   C77   A    
C67   N11   A    
C31   C35   A    
N19   Ni7   S    
C3    N3    A    
C88   H40   S    
C65   N9    A    
C12   C76   A    
C1    N1    A    
N11   Ni4   S    
C33   C37   A    
C74   F10   S    
C71   H31   S    
N29   Ni2   S    
C78   F14   S    
N9    Ni2   S    
N20   Ni8   S    
C1    C89   A    
N15   Ni8   S    
C6    C46   A    
C81   H33   S    
C18   C22   D    
C81   N25   A    
C83   N27   A    
N22   Ni2   S    
C47   N7    A    
C83   H35   S    
C43   H11   S    
C84   N28   A    
N6    N26   A    
C93   H46   S    
C53   C58   A    
C75   N19   A    
C57   C61   A    
N31   Ni4   S    
C15   C79   A    
N11   N19   A    
C41   C49   A    
C15   C71   A    
C30   H6    S    
C59   C63   A    
C56   C59   A    
C48   H24   S    
N2    N30   A    
C85   N29   A    
O4    C96   S    
C26   C50   A    
C34   C89   S    
N9    N17   A    
O3    C95   S    
C22   O2    S    
C11   C75   A    
C33   C90   S    
C68   H28   S    
C17   H41   S    
N25   Ni6   S    
C10   C74   A    
C43   C51   A    
N14   Ni5   S    
C13   C69   A    
C62   H18   S    
C88   N32   A    
C28   C30   A    
C41   H9    S    
C13   C22   S    
C18   H42   S    
C9    C57   S    
C14   C78   A    
C63   H19   S    
N5    N25   A    
C26   F2    S    
C25   C49   A    
N6    Ni6   S    
C93   H47   S    
C25   F1    S    
C23   O3    S    
C7    C51   S    
C63   C64   A    
C12   C60   S    
C53   H13   S    
N18   Ni6   S    
C86   N30   A    
N30   Ni1   S    
C1    H1    S    
O1    C93   S    
C38   F6    S    
N10   Ni1   S    
C73   N17   A    
C65   H25   S    
C3    H3    S    
N12   N20   A    
N13   N21   A    
C79   F15   S    
C67   H27   S    
C82   H34   S    
C76   F12   S    
N15   N23   A    
C64   H20   S    
C4    C92   A    
C54   C57   A    
C17   C21   D    
