data_mof_unit_31712.cif
_audit_creation_date              2012-12-10T20:44:43-0500
_audit_creation_method            fapswitch 2.2
_symmetry_space_group_name_H-M    P1
_symmetry_Int_Tables_number       1
_space_group_crystal_system       triclinic
_cell_length_a                    9.888549
_cell_length_b                    10.66232
_cell_length_c                    16.620869
_cell_angle_alpha                 89.397705
_cell_angle_beta                  95.612186
_cell_angle_gamma                 90.152124
_cell_volume                      1743.92052944

loop_
_atom_site_label
_atom_site_type_symbol
_atom_type_description
_atom_site_fract_x
_atom_site_fract_y
_atom_site_fract_z
_atom_type_partial_charge
C1    C     C_R   0.500475 0.259950 0.503110 0.852641
C2    C     C_R   0.499219 0.372320 0.772077 -0.172634
C3    C     C_R   0.484661 0.379604 0.137756 -0.146225
C4    C     C_R   0.499537 0.384519 0.221525 -0.091575
C5    C     C_R   0.436884 0.483491 0.091187 0.268089
C6    C     C_R   0.464438 0.496177 0.259125 -0.141530
C7    C     C_R   0.405628 0.598696 0.213256 -0.114696
C8    C     C_R   0.389978 0.591237 0.128115 -0.108596
C9    C     C_R   0.626009 0.063847 0.519491 0.146938
C10   C     C_R   0.503288 0.128347 0.517089 -0.098078
C11   C     C_R   0.383997 0.063903 0.531399 -0.203755
C12   C     C_R   0.519319 0.500065 0.653370 0.950207
C13   C     C_R   0.384159 0.934244 0.531809 -0.174111
C14   C     C_R   0.503519 0.870878 0.517616 -0.091433
C15   C     C_R   0.626012 0.935883 0.519698 0.179582
C16   C     C_3   0.736839 0.929313 0.464861 -0.440656
C17   C     C_3   0.737074 0.071461 0.464597 -0.485440
C18   C     C_R   0.081767 0.529251 0.568252 0.187126
C19   C     C_R   0.060545 0.478859 0.430858 -0.136871
C20   C     C_R   0.916919 0.478758 0.430861 -0.127253
C21   C     C_R   0.939601 0.528922 0.568075 0.117105
C22   C     C_3   0.943546 0.466960 0.649508 -0.358097
C23   C     C_R   0.500642 0.739880 0.503286 0.998359
C24   C     C_3   0.099621 0.467350 0.650880 -0.188717
C25   C     C_R   0.480775 0.501723 0.346562 0.935945
C26   C     C_R   0.536466 0.487394 0.740088 -0.068772
C27   C     C_R   0.592987 0.584328 0.790474 -0.059007
C28   C     C_R   0.609071 0.562503 0.874950 -0.069521
C29   C     C_R   0.561918 0.448111 0.905648 0.227224
C30   C     C_R   0.510841 0.353137 0.854583 -0.097531
H1    H     H_    0.831494 0.887878 0.495592 0.218740
H2    H     H_    0.702253 0.888638 0.404972 0.234214
H3    H     H_    0.105214 0.460049 0.375401 0.162707
H4    H     H_    0.854465 0.459530 0.375310 0.165376
N1    N     N_2   0.551918 0.433248 0.988446 -0.211778
N2    N     N_2   0.447517 0.485970 0.007282 -0.127309
N3    N     N_R   0.142860 0.499130 0.500540 -0.135361
N4    N     N_R   0.857210 0.499170 0.500530 -0.124023
O1    O     O_R   0.614690 0.316790 0.499990 -0.633469
O2    O     O_R   0.385350 0.316760 0.500000 -0.647684
O3    O     O_R   0.627460 0.498860 0.616130 -0.572140
O4    O     O_R   0.398120 0.498820 0.616130 -0.625776
O5    O     O_R   0.614650 0.683240 0.500000 -0.592853
O6    O     O_R   0.385310 0.683210 0.500010 -0.599855
O7    O     O_R   0.601880 0.501180 0.383870 -0.629082
O8    O     O_R   0.372540 0.501140 0.383870 -0.612772
Zn1   Zn    Zn3+2 0.653130 0.500020 0.499990 0.985949
Zn2   Zn    Zn3+2 0.346870 0.499980 0.500010 0.972407
C31   C     C_2   0.550082 0.271703 0.268783 0.408913
H5    H     H_    0.553046 0.269555 0.334029 0.045855
O9    O     O_2   0.588361 0.178771 0.235181 -0.561318
H6    H     H_    0.289392 0.884947 0.536933 0.190731
H7    H     H_    0.832108 0.111997 0.494977 0.203618
H8    H     H_    0.703220 0.113104 0.404483 0.227569
H9    H     H_    0.903869 0.530262 0.694605 0.214861
C32   C     C_2   0.876704 0.339289 0.647065 0.608934
H10   H     H_    0.890912 0.275162 0.598336 0.019251
O10   O     O_2   0.807159 0.306867 0.700367 -0.552539
C33   C     C_2   0.165986 0.551553 0.716090 0.506464
H11   H     H_    0.169347 0.521906 0.778921 0.117553
O11   O     O_2   0.215442 0.652643 0.699638 -0.562968
H12   H     H_    0.513972 0.295557 0.107758 0.204747
C34   C     C_2   0.165082 0.339097 0.651875 0.352799
H13   H     H_    0.194557 0.298767 0.596711 0.094800
O12   O     O_2   0.180606 0.277541 0.714449 -0.565378
H14   H     H_    0.475910 0.265719 0.879205 0.171495
H15   H     H_    0.459146 0.297682 0.732806 0.177373
C35   C     C_2   0.360368 0.713470 0.253475 0.395704
H16   H     H_    0.269661 0.762794 0.228676 0.066220
O13   O     O_2   0.425557 0.755887 0.313254 -0.581815
C36   C     C_2   0.675338 0.655338 0.932741 0.408648
H17   H     H_    0.652297 0.655646 0.995218 0.100934
O14   O     O_2   0.761256 0.728555 0.912573 -0.546909
C37   C     C_2   0.335625 0.699917 0.077689 0.404572
H18   H     H_    0.340501 0.794100 0.101767 0.069239
O15   O     O_2   0.283298 0.685559 0.008752 -0.516995
C38   C     C_2   0.621963 0.710771 0.756926 0.474688
H19   H     H_    0.606520 0.793956 0.791875 0.122225
O16   O     O_2   0.664644 0.723987 0.690928 -0.584851
H20   H     H_    0.289069 0.112360 0.536071 0.169571

loop_
_geom_bond_atom_site_label_1
_geom_bond_atom_site_label_2
_ccdc_geom_bond_type
C34   O12   D    
C25   O7    A    
C18   C21   A    
C19   C20   A    
C7    C8    A    
C38   H19   S    
C16   H1    S    
C26   C27   A    
C12   O3    A    
C37   O15   D    
C18   C24   S    
C28   C29   A    
C18   N3    A    
C6    C25   S    
C15   C16   S    
C5    N2    S    
C23   O5    A    
C32   H10   S    
C12   O4    A    
C19   N3    A    
C1    O2    A    
C7    C35   S    
C21   N4    A    
N1    N2    D    
C35   H16   S    
C31   O9    D    
C9    C10   A    
C20   H4    S    
C38   O16   D    
C33   H11   S    
C21   C22   S    
C30   H14   S    
O7    Zn1   S    
O8    Zn2   S    
C33   O11   D    
C37   H18   S    
C4    C6    A    
C2    H15   S    
C10   C11   A    
C36   O14   D    
C16   C17   S    
C22   C32   S    
C27   C38   S    
C23   O6    A    
C12   C26   S    
C14   C23   S    
C29   C30   A    
C13   H6    S    
C20   N4    A    
C8    C37   S    
O3    Zn1   S    
C2    C26   A    
O4    Zn2   S    
N3    Zn2   S    
N4    Zn1   S    
C22   H9    S    
C9    C17   S    
C24   C34   S    
C19   H3    S    
C22   C24   S    
C28   C36   S    
C3    C4    A    
C17   H7    S    
O1    Zn1   S    
C3    H12   S    
O2    Zn2   S    
C1    C10   S    
C3    C5    A    
C5    C8    A    
C6    C7    A    
C16   H2    S    
C29   N1    S    
C4    C31   S    
C2    C30   A    
C9    C15   A    
C36   H17   S    
C11   C13   A    
C24   C33   S    
C17   H8    S    
C32   O10   D    
C11   H20   S    
C1    O1    A    
C34   H13   S    
C35   O13   D    
C31   H5    S    
C27   C28   A    
C14   C15   A    
C13   C14   A    
O5    Zn1   S    
C25   O8    A    
O6    Zn2   S    
