data_mof_unit_35912.cif
_audit_creation_date              2012-12-11T16:07:19-0500
_audit_creation_method            fapswitch 2.2
_symmetry_space_group_name_H-M    P1
_symmetry_Int_Tables_number       1
_space_group_crystal_system       triclinic
_cell_length_a                    17.103028
_cell_length_b                    17.072141
_cell_length_c                    17.319069
_cell_angle_alpha                 90.207691
_cell_angle_beta                  89.999558
_cell_angle_gamma                 89.991849
_cell_volume                      5056.88037886

loop_
_atom_site_label
_atom_site_type_symbol
_atom_type_description
_atom_site_fract_x
_atom_site_fract_y
_atom_site_fract_z
_atom_type_partial_charge
C1    C     C_R   0.393677 0.699031 0.604728 -0.089520
C2    C     C_R   0.578669 0.672207 0.644437 -0.044437
C3    C     C_3   0.762643 0.178732 0.643077 0.550768
C4    C     C_3   0.764328 0.819837 0.357639 0.564481
C5    C     C_3   0.291092 0.235535 0.731929 0.638640
C6    C     C_3   0.756305 0.283743 0.273178 0.575469
C7    C     C_3   0.186272 0.773761 0.637463 0.634952
C8    C     C_3   0.684092 0.728203 0.862168 0.642613
C9    C     C_3   0.258162 0.214235 0.228654 0.563860
C10   C     C_3   0.792600 0.265677 0.766418 0.636394
C11   C     C_3   0.262575 0.678573 0.143049 0.552099
C12   C     C_3   0.264185 0.319950 0.857599 0.563744
C13   C     C_R   0.669489 0.422629 0.353997 -0.019647
C14   C     C_3   0.790899 0.735639 0.231761 0.643729
C15   C     C_3   0.256174 0.783649 0.773312 0.570808
C16   C     C_3   0.686142 0.273664 0.137470 0.641151
C17   C     C_R   0.301236 0.607086 0.604454 -0.119538
C18   C     C_R   0.607139 0.699188 0.396804 -0.121491
C19   C     C_R   0.421312 0.328910 0.644895 -0.036537
C20   C     C_R   0.326188 0.580316 0.356915 -0.062107
C21   C     C_R   0.699385 0.392659 0.602091 -0.077873
C22   C     C_R   0.893653 0.199049 0.104656 -0.093288
C23   C     C_R   0.078141 0.828299 0.855243 -0.044780
C24   C     C_R   0.169766 0.077569 0.145834 -0.036927
C25   C     C_R   0.578185 0.328260 0.355266 -0.045673
C26   C     C_R   0.801018 0.892741 0.896321 -0.120496
C27   C     C_R   0.107296 0.800608 0.102481 -0.120687
C28   C     C_R   0.921009 0.171443 0.855334 -0.027631
C29   C     C_R   0.826524 0.920072 0.143315 -0.053004
C30   C     C_R   0.199259 0.107066 0.897306 -0.091728
C31   C     C_R   0.893334 0.800742 0.896210 -0.101043
C32   C     C_R   0.078637 0.172180 0.144450 -0.039049
C33   C     C_R   0.169430 0.922675 0.853964 -0.018949
C34   C     C_R   0.801219 0.107104 0.104388 -0.118208
C35   C     C_R   0.107152 0.199199 0.896846 -0.120153
C36   C     C_R   0.669807 0.577605 0.645810 -0.026851
C37   C     C_R   0.921318 0.828918 0.144899 -0.039229
C38   C     C_R   0.826236 0.080251 0.856886 -0.059217
C39   C     C_R   0.199408 0.892627 0.102000 -0.126793
C40   C     C_3   0.263918 0.262758 0.341753 -0.050291
C41   C     C_3   0.678236 0.679137 0.748008 -0.064329
C42   C     C_3   0.318797 0.680965 0.253892 -0.049931
C43   C     C_3   0.736908 0.263349 0.656326 -0.061755
C44   C     C_3   0.736696 0.736167 0.342517 -0.061155
C45   C     C_3   0.319040 0.319455 0.746127 -0.079857
C46   C     C_3   0.677841 0.321055 0.252089 -0.074864
C47   C     C_R   0.301045 0.392769 0.396219 -0.122883
C48   C     C_3   0.264410 0.736920 0.659674 -0.069758
C49   C     C_3   0.763840 0.762703 0.841943 -0.072629
C50   C     C_3   0.178236 0.179159 0.247951 -0.047137
C51   C     C_3   0.818800 0.180921 0.753940 -0.093030
C52   C     C_3   0.236978 0.763268 0.156093 -0.043025
C53   C     C_3   0.236729 0.236197 0.842613 -0.063398
C54   C     C_3   0.819028 0.819473 0.246099 -0.079428
C55   C     C_3   0.177803 0.821083 0.752091 -0.079549
C56   C     C_3   0.764375 0.236947 0.159554 -0.070450
C57   C     C_R   0.316872 0.684029 0.620658 0.187670
C58   C     C_R   0.607262 0.300637 0.602595 -0.125967
C59   C     C_R   0.636532 0.362285 0.312158 0.080005
C60   C     C_R   0.637255 0.638343 0.687390 0.083251
C61   C     C_R   0.316402 0.315624 0.380773 0.181434
C62   C     C_R   0.684654 0.315344 0.616339 0.186976
C63   C     C_R   0.358957 0.640293 0.314908 0.068341
C64   C     C_R   0.359500 0.360367 0.685507 0.082678
C65   C     C_R   0.684379 0.684194 0.382408 0.182876
C66   C     C_R   0.816835 0.184062 0.120531 0.189223
C67   C     C_R   0.136457 0.862348 0.812112 0.081269
C68   C     C_R   0.137207 0.138306 0.187411 0.075481
C69   C     C_R   0.420942 0.671534 0.355388 -0.029035
C70   C     C_R   0.816338 0.815571 0.880960 0.188725
C71   C     C_R   0.184713 0.815281 0.116130 0.185350
C72   C     C_R   0.859033 0.140184 0.814853 0.081016
C73   C     C_R   0.859515 0.860394 0.185513 0.083323
C74   C     C_R   0.184406 0.184223 0.882501 0.182667
C75   C     C_3   0.708974 0.648999 0.825706 -0.266306
C76   C     C_3   0.232266 0.291960 0.264037 -0.327153
C77   C     C_3   0.710764 0.243595 0.738875 -0.260547
C78   C     C_3   0.345869 0.699565 0.171492 -0.272725
C79   C     C_3   0.237657 0.343142 0.775957 -0.320133
C80   C     C_R   0.326511 0.420053 0.643309 -0.052122
C81   C     C_3   0.818052 0.712542 0.312788 -0.279288
C82   C     C_3   0.291491 0.813612 0.697855 -0.340678
C83   C     C_3   0.650478 0.244390 0.213793 -0.284033
C84   C     C_3   0.711769 0.351650 0.175887 -0.240965
C85   C     C_3   0.229581 0.707167 0.735845 -0.285920
C86   C     C_3   0.709862 0.758639 0.260890 -0.278675
C87   C     C_3   0.346708 0.298053 0.827644 -0.286706
C88   C     C_3   0.236622 0.658160 0.225567 -0.309262
C89   C     C_3   0.819081 0.286048 0.684441 -0.270949
C90   C     C_3   0.290249 0.184756 0.305695 -0.289642
C91   C     C_R   0.699246 0.607047 0.397254 -0.093402
C92   C     C_3   0.651552 0.757019 0.784370 -0.258611
C93   C     C_3   0.209063 0.149059 0.325632 -0.243498
C94   C     C_3   0.732263 0.791930 0.764203 -0.352034
C95   C     C_3   0.210858 0.743761 0.238705 -0.282007
C96   C     C_3   0.845886 0.199784 0.671611 -0.274099
C97   C     C_3   0.737731 0.843252 0.276080 -0.321388
C98   C     C_3   0.318170 0.212664 0.813045 -0.278035
C99   C     C_3   0.791427 0.313702 0.197631 -0.345264
C100  C     C_3   0.150413 0.744480 0.713696 -0.282547
C101  C     C_3   0.211931 0.851685 0.675981 -0.233122
C102  C     C_R   0.393372 0.300768 0.396109 -0.100024
C103  C     C_3   0.729737 0.207203 0.235813 -0.287483
C104  C     C_3   0.209971 0.258445 0.760901 -0.274205
C105  C     C_3   0.846768 0.797845 0.327531 -0.287734
C106  C     C_3   0.736673 0.158066 0.725528 -0.323815
C107  C     C_3   0.319199 0.785902 0.184103 -0.307328
C108  C     C_3   0.790191 0.684703 0.805874 -0.287727
C109  C     C_3   0.151572 0.257061 0.284296 -0.303325
C110  C     C_3   0.184188 0.228278 0.362083 0.573862
C111  C     C_3   0.758188 0.714216 0.728812 0.570852
C112  C     C_3   0.292735 0.765789 0.266146 0.560545
H1    H     H_    0.422021 0.755619 0.603580 0.120762
H2    H     H_    0.544391 0.723373 0.658635 0.106496
H3    H     H_    0.719104 0.458163 0.337985 0.133901
H4    H     H_    0.244509 0.579093 0.603997 0.137853
H5    H     H_    0.578561 0.755693 0.396513 0.157687
H6    H     H_    0.457338 0.279662 0.660908 0.140372
H7    H     H_    0.275195 0.545763 0.343037 0.100619
H8    H     H_    0.755792 0.421237 0.601047 0.130578
H9    H     H_    0.922004 0.255633 0.103502 0.118565
H10   H     H_    0.043819 0.777179 0.840972 0.112894
H11   H     H_    0.219102 0.041683 0.161957 0.120422
H12   H     H_    0.543865 0.277140 0.340996 0.113020
H13   H     H_    0.744375 0.920920 0.896714 0.139957
H14   H     H_    0.078534 0.744214 0.102865 0.152859
H15   H     H_    0.957022 0.220714 0.839383 0.135598
H16   H     H_    0.775428 0.954505 0.157144 0.102231
H17   H     H_    0.255680 0.078500 0.898381 0.129149
H18   H     H_    0.921753 0.744186 0.897445 0.118238
H19   H     H_    0.044357 0.223347 0.158641 0.104226
H20   H     H_    0.219025 0.958228 0.837932 0.133012
H21   H     H_    0.744496 0.079102 0.103930 0.137657
H22   H     H_    0.078563 0.255698 0.896544 0.157570
H23   H     H_    0.719152 0.541730 0.661920 0.137521
H24   H     H_    0.957340 0.779666 0.160911 0.140211
H25   H     H_    0.775233 0.045706 0.843022 0.101784
H26   H     H_    0.255807 0.921224 0.100989 0.132649
H27   H     H_    0.697770 0.589955 0.849941 0.198042
H28   H     H_    0.242345 0.350785 0.238694 0.172780
H29   H     H_    0.655253 0.262249 0.766751 0.193550
H30   H     H_    0.401669 0.679974 0.144987 0.185972
H31   H     H_    0.204390 0.396973 0.761611 0.186691
H32   H     H_    0.850902 0.658608 0.327713 0.187350
H33   H     H_    0.349664 0.841717 0.691758 0.172393
H34   H     H_    0.244393 0.420931 0.396609 0.134802
H35   H     H_    0.592103 0.216696 0.219937 0.202470
H36   H     H_    0.702701 0.411329 0.152283 0.207888
H37   H     H_    0.237776 0.647802 0.760642 0.192369
H38   H     H_    0.653618 0.741824 0.233337 0.191809
H39   H     H_    0.403198 0.315805 0.853965 0.189679
H40   H     H_    0.202293 0.605542 0.241678 0.179501
H41   H     H_    0.852795 0.338830 0.667567 0.192660
H42   H     H_    0.347440 0.155225 0.313975 0.188479
H43   H     H_    0.594165 0.786196 0.776157 0.184391
H44   H     H_    0.197896 0.090005 0.349865 0.207215
H45   H     H_    0.578510 0.244238 0.602994 0.154351
H46   H     H_    0.742356 0.850759 0.738873 0.177782
H47   H     H_    0.155409 0.762591 0.266588 0.190930
H48   H     H_    0.901731 0.180331 0.645104 0.205076
H49   H     H_    0.704560 0.897184 0.261882 0.186064
H50   H     H_    0.351096 0.158825 0.828140 0.188202
H51   H     H_    0.849546 0.341890 0.191403 0.169419
H52   H     H_    0.091984 0.716872 0.719713 0.202756
H53   H     H_    0.202988 0.911393 0.652404 0.211980
H54   H     H_    0.738055 0.147867 0.260638 0.192669
H55   H     H_    0.153799 0.241469 0.733303 0.196132
H56   H     H_    0.456934 0.720831 0.339465 0.134245
H57   H     H_    0.903327 0.815437 0.353810 0.189701
H58   H     H_    0.702436 0.105339 0.741485 0.184848
H59   H     H_    0.352977 0.838597 0.167091 0.185832
H60   H     H_    0.847366 0.655152 0.814199 0.187772
H61   H     H_    0.094233 0.286254 0.275884 0.161447
H62   H     H_    0.027504 0.292049 0.412021 0.353069
H63   H     H_    0.858734 0.826602 0.648709 0.353101
H64   H     H_    0.251413 0.927716 0.292010 0.318421
H65   H     H_    0.793173 0.013743 0.612663 0.336767
H66   H     H_    0.792261 0.984811 0.389970 0.347068
H67   H     H_    0.275418 0.454486 0.657141 0.102502
H68   H     H_    0.402508 0.108747 0.601686 0.389113
H69   H     H_    0.889497 0.378086 0.335070 0.334383
H70   H     H_    0.019010 0.761665 0.507008 0.391060
H71   H     H_    0.512366 0.744871 0.986289 0.394559
H72   H     H_    0.358641 0.326609 0.148448 0.352401
H73   H     H_    0.757635 0.437487 0.887752 0.392174
H74   H     H_    0.293098 0.513582 0.113039 0.335178
H75   H     H_    0.291961 0.484971 0.889691 0.346379
H76   H     H_    0.901895 0.609151 0.100879 0.385813
H77   H     H_    0.388344 0.878600 0.835353 0.346397
H78   H     H_    0.755668 0.578486 0.398326 0.128883
H79   H     H_    0.518626 0.261292 0.007357 0.391943
H80   H     H_    0.421783 0.244208 0.397334 0.119739
N1    N     N_R   0.424590 0.632770 0.578330 -0.062888
N2    N     N_R   0.575410 0.632770 0.578330 -0.050255
N3    N     N_R   0.632770 0.424590 0.421670 -0.047338
N4    N     N_R   0.367230 0.575410 0.578330 -0.062235
N5    N     N_R   0.575410 0.632770 0.421670 -0.066940
N6    N     N_R   0.424590 0.367230 0.578330 -0.048707
N7    N     N_R   0.367230 0.575410 0.421670 -0.047736
N8    N     N_R   0.632770 0.424590 0.578330 -0.067174
N9    N     N_R   0.924590 0.132770 0.078330 -0.062772
N10   N     N_R   0.075410 0.867230 0.921670 -0.049934
N11   N     N_R   0.132770 0.075410 0.078330 -0.045484
N12   N     N_R   0.575410 0.367230 0.421670 -0.050364
N13   N     N_R   0.867230 0.924590 0.921670 -0.063095
N14   N     N_R   0.075410 0.867230 0.078330 -0.065511
N15   N     N_R   0.924590 0.132770 0.921670 -0.049165
N16   N     N_R   0.867230 0.924590 0.078330 -0.047543
N17   N     N_R   0.132770 0.075410 0.921670 -0.066172
N18   N     N_R   0.924590 0.867230 0.921670 -0.062814
N19   N     N_R   0.075410 0.132770 0.078330 -0.050261
N20   N     N_R   0.132770 0.924590 0.921670 -0.045464
N21   N     N_R   0.867230 0.075410 0.078330 -0.062312
N22   N     N_R   0.075410 0.132770 0.921670 -0.067275
N23   N     N_R   0.632770 0.575410 0.578330 -0.049849
N24   N     N_R   0.924590 0.867230 0.078330 -0.048853
N25   N     N_R   0.867230 0.075410 0.921670 -0.048472
N26   N     N_R   0.132770 0.924590 0.078330 -0.061326
N27   N     N_R   0.367230 0.424590 0.421670 -0.061788
N28   N     N_R   0.575410 0.367230 0.578330 -0.066533
N29   N     N_R   0.424590 0.632770 0.421670 -0.048985
N30   N     N_R   0.367230 0.424590 0.578330 -0.047552
N31   N     N_R   0.632770 0.575410 0.421670 -0.066302
N32   N     N_R   0.424590 0.367230 0.421670 -0.062549
Ni1   Ni    Ni4+2 0.500000 0.631570 0.500000 0.265431
Ni2   Ni    Ni4+2 0.500000 0.368430 0.500000 0.258288
Ni3   Ni    Ni4+2 0.631570 0.500000 0.500000 0.272058
Ni4   Ni    Ni4+2 0.368430 0.500000 0.500000 0.253952
Ni5   Ni    Ni4+2 0.000000 0.131570 0.000000 0.264408
Ni6   Ni    Ni4+2 0.000000 0.868430 0.000000 0.257707
Ni7   Ni    Ni4+2 0.131570 0.000000 0.000000 0.273079
Ni8   Ni    Ni4+2 0.868430 0.000000 0.000000 0.254381
O1    O     O_2   0.152653 0.168179 0.501690 -0.162902
O2    O     O_2   0.666974 0.139177 0.525554 -0.230341
O3    O     O_2   0.807979 0.128036 0.502691 -0.181102
O4    O     O_3   0.741165 0.023804 0.589551 -0.440062
O5    O     O_2   0.672434 0.854925 0.479394 -0.224735
O6    O     O_2   0.813946 0.868825 0.497169 -0.233621
O7    O     O_3   0.741485 0.973176 0.414944 -0.426053
O8    O     O_2   0.247424 0.108163 0.651331 -0.254617
O9    O     O_2   0.294438 0.220932 0.577033 -0.246154
O10   O     O_3   0.396635 0.136940 0.651436 -0.563515
O11   O     O_2   0.751243 0.271174 0.428018 -0.216090
O12   O     O_2   0.159348 0.311237 0.492851 -0.290390
O13   O     O_2   0.869527 0.223944 0.363201 -0.235571
O14   O     O_3   0.849420 0.374368 0.376172 -0.533808
O15   O     O_2   0.159118 0.837788 0.498667 -0.197855
O16   O     O_2   0.165016 0.694122 0.504557 -0.289595
O17   O     O_3   0.041662 0.763843 0.559616 -0.469327
O18   O     O_2   0.651882 0.668239 0.001698 -0.212471
O19   O     O_2   0.658412 0.811642 0.992002 -0.286456
O20   O     O_3   0.536872 0.740638 0.934613 -0.486394
O21   O     O_2   0.347500 0.128632 0.132052 -0.269670
O22   O     O_2   0.259884 0.224988 0.073139 -0.244383
O23   O     O_3   0.037179 0.240539 0.436375 -0.448814
O24   O     O_3   0.385112 0.275299 0.142979 -0.453074
O25   O     O_2   0.798296 0.284659 0.920900 -0.236325
O26   O     O_2   0.890352 0.361767 0.843310 -0.307853
O27   O     O_3   0.744068 0.403257 0.843434 -0.518598
O28   O     O_2   0.166763 0.638744 0.025741 -0.229136
O29   O     O_2   0.307745 0.627637 0.002706 -0.196109
O30   O     O_3   0.241107 0.523528 0.089842 -0.440790
O31   O     O_2   0.172047 0.355185 0.979140 -0.225724
O32   O     O_2   0.313516 0.369171 0.997148 -0.234624
O33   O     O_3   0.241165 0.473368 0.914639 -0.425915
O34   O     O_2   0.847660 0.628622 0.632327 -0.266553
O35   O     O_2   0.746943 0.608495 0.150966 -0.261769
O36   O     O_2   0.793803 0.721438 0.076829 -0.247528
O37   O     O_3   0.896169 0.637190 0.150729 -0.565018
O38   O     O_2   0.250753 0.770597 0.928084 -0.219204
O39   O     O_2   0.369386 0.723970 0.863452 -0.230008
O40   O     O_3   0.348729 0.874274 0.876828 -0.525334
O41   O     O_2   0.658581 0.337557 0.998695 -0.232028
O42   O     O_2   0.664752 0.193907 0.004651 -0.284129
O43   O     O_3   0.541389 0.263434 0.059920 -0.467564
O44   O     O_2   0.760079 0.724932 0.573298 -0.245821
O45   O     O_3   0.885223 0.775300 0.643252 -0.452291
O46   O     O_2   0.298564 0.785323 0.420456 -0.204031
O47   O     O_2   0.390535 0.862357 0.343248 -0.298080
O48   O     O_3   0.244322 0.903820 0.343588 -0.461780
S1    S     S_3+6 0.134151 0.237658 0.451978 0.029221
S2    S     S_3+6 0.312553 0.208922 0.140663 0.004158
S3    S     S_3+6 0.808804 0.329235 0.847005 -0.015858
S4    S     S_3+6 0.243912 0.617533 0.061409 0.055215
S5    S     S_3+6 0.247254 0.378922 0.941070 0.051388
S6    S     S_3+6 0.805169 0.674374 0.149097 -0.023008
S7    S     S_3+6 0.307116 0.786069 0.863423 0.001649
S8    S     S_3+6 0.638599 0.266812 0.046103 0.010915
S9    S     S_3+6 0.812681 0.708905 0.640881 0.005389
S10   S     S_3+6 0.309015 0.829723 0.346476 0.007895
S11   S     S_3+6 0.744062 0.117860 0.561292 0.061507
S12   S     S_3+6 0.747583 0.878687 0.441227 0.051967
S13   S     S_3+6 0.305620 0.174068 0.649454 -0.016801
S14   S     S_3+6 0.807474 0.286262 0.363156 -0.002403
S15   S     S_3+6 0.138908 0.767050 0.545997 0.016115
S16   S     S_3+6 0.633571 0.737615 0.951734 0.008017

loop_
_geom_bond_atom_site_label_1
_geom_bond_atom_site_label_2
_ccdc_geom_bond_type
N4    Ni4   S    
C107  C112  S    
C39   N26   A    
C25   N12   A    
C102  N32   A    
C35   C74   A    
C110  S1    S    
C107  H59   S    
C18   C65   A    
C43   C89   S    
C29   N16   A    
C105  H57   S    
C45   C87   S    
H70   O17   S    
C31   H18   S    
C36   N23   A    
C109  H61   S    
H75   O33   S    
N29   Ni1   S    
C94   C111  S    
C16   C84   S    
N17   Ni7   S    
C31   C70   A    
O7    S12   S    
O35   S6    D    
C55   C100  S    
C15   S7    S    
O26   S3    D    
C8    C92   S    
C15   C82   S    
C22   N9    A    
C93   C110  S    
C15   C85   S    
C88   C95   S    
C1    H1    S    
C11   S4    S    
C10   C51   S    
C35   H22   S    
H66   O7    S    
C98   H50   S    
C23   H10   S    
C38   C72   A    
N15   N25   A    
C44   C81   S    
N2    N23   A    
N15   Ni5   S    
C40   C110  S    
O14   S14   S    
C40   C76   S    
O40   S7    S    
N8    Ni3   S    
C1    N1    A    
O29   S4    D    
C18   N5    A    
C92   C94   S    
O2    S11   D    
C21   C62   A    
C13   H3    S    
N16   Ni8   S    
C46   C84   S    
N8    N28   A    
O42   S8    D    
C36   H23   S    
C82   H33   S    
C27   C71   A    
C90   C93   S    
C65   C91   A    
C19   N6    A    
C54   C105  S    
C56   C103  S    
C34   N21   A    
C9    C90   S    
C30   H17   S    
C111  S9    S    
C108  C111  S    
N3    Ni3   S    
C7    C48   S    
C89   C96   S    
C78   H30   S    
C69   H56   S    
N1    Ni1   S    
C2    H2    S    
C56   C66   S    
O8    S13   D    
C69   N29   A    
C35   N22   A    
C77   H29   S    
C39   C71   A    
C14   C81   S    
N22   Ni5   S    
N6    Ni2   S    
O1    S1    D    
O31   S5    D    
C34   C66   A    
C48   C57   S    
H74   O30   S    
C83   C103  S    
C95   H47   S    
O19   S16   D    
N2    Ni1   S    
C77   C106  S    
O3    S11   D    
C86   H38   S    
C30   C74   A    
C27   H14   S    
N31   Ni3   S    
O45   S9    S    
C53   C104  S    
C23   C67   A    
C86   C97   S    
C42   C112  S    
H71   O20   S    
N27   N32   A    
C58   N28   A    
C79   H31   S    
C63   C69   A    
C10   C89   S    
C76   C109  S    
N27   Ni4   S    
N7    Ni4   S    
C37   N24   A    
C12   C53   S    
C28   H15   S    
O33   S5    S    
N9    Ni5   S    
C39   H26   S    
C4    C97   S    
C106  H58   S    
N11   N19   A    
C44   C65   S    
H79   O43   S    
C49   C108  S    
C81   C105  S    
C80   H67   S    
O37   S6    S    
C14   C86   S    
C32   N19   A    
O6    S12   D    
C24   H11   S    
C40   C61   S    
O16   S15   D    
C15   C55   S    
C16   C56   S    
C1    C57   A    
O13   S14   D    
N1    N4    A    
O23   S1    S    
N28   Ni2   S    
C99   H51   S    
O44   S9    D    
O22   S2    D    
C33   H20   S    
C97   H49   S    
C108  H60   S    
O10   S13   S    
C28   N15   A    
C96   H48   S    
C41   C60   S    
N5    N31   A    
C58   H45   S    
C13   C59   A    
C53   C98   S    
C45   C64   S    
C20   C63   A    
C75   H27   S    
C104  H55   S    
N13   N18   A    
C14   S6    S    
C8    C49   S    
C9    S2    S    
C92   H43   S    
N23   Ni3   S    
H72   O24   S    
O4    S11   S    
C47   H34   S    
C80   N30   A    
C41   C111  S    
O25   S3    D    
C17   N4    A    
C25   C59   A    
C56   C99   S    
C32   H19   S    
C58   C62   A    
C24   N11   A    
C53   C74   S    
O38   S7    D    
C30   N17   A    
O11   S14   D    
O12   S1    D    
C95   C112  S    
H64   O48   S    
N25   Ni8   S    
O9    S13   D    
H76   O37   S    
C33   N20   A    
C2    C60   A    
C12   C79   S    
C52   C95   S    
C11   C52   S    
O28   S4    D    
C81   H32   S    
O30   S4    S    
C52   C107  S    
C102  H80   S    
C54   C97   S    
C9    C76   S    
C90   H42   S    
C87   C98   S    
C75   C108  S    
C94   H46   S    
C64   C80   A    
C38   N25   A    
C28   C72   A    
O46   S10   D    
O43   S8    S    
H65   O4    S    
C84   H36   S    
C3    C106  S    
O17   S15   S    
O18   S16   D    
C7    C100  S    
C23   N10   A    
N20   Ni7   S    
H69   O14   S    
N3    N12   A    
C4    C44   S    
C5    C45   S    
C50   C109  S    
O48   S10   S    
C78   C107  S    
C2    N2    A    
C26   H13   S    
C10   S3    S    
C4    S12   S    
C5    S13   S    
C41   C75   S    
C54   C73   S    
N30   Ni4   S    
C19   C64   A    
O47   S10   D    
N18   Ni6   S    
C37   H24   S    
C100  H52   S    
C6    C103  S    
C101  H53   S    
C18   H5    S    
N9    N21   A    
C49   C70   S    
C26   C70   A    
C26   N13   A    
C51   C72   S    
C91   N31   A    
O21   S2    D    
C22   H9    S    
N19   Ni5   S    
C84   C99   S    
H63   O45   S    
N10   N20   A    
C47   C61   A    
O39   S7    D    
H68   O10   S    
C8    S16   S    
N17   N22   A    
O24   S2    S    
C27   N14   A    
C52   C71   S    
C109  C110  S    
N11   Ni7   S    
C31   N18   A    
C38   H25   S    
C48   C82   S    
C16   C83   S    
C24   C68   A    
C46   C83   S    
C13   N3    A    
O41   S8    D    
C40   C90   S    
C50   C68   S    
C42   C63   S    
C20   H7    S    
C43   C62   S    
C17   C57   A    
N5    Ni1   S    
C46   C59   S    
N14   Ni6   S    
C112  S10   S    
H77   O40   S    
C3    S11   S    
N14   N26   A    
C3    C43   S    
O32   S5    D    
N6    N30   A    
C21   H8    S    
C29   C73   A    
O15   S15   D    
C22   C66   A    
H73   O27   S    
N24   Ni6   S    
C3    C96   S    
N7    N29   A    
C49   C94   S    
C16   S8    S    
C51   C96   S    
C32   C68   A    
C5    C104  S    
N16   N24   A    
C87   H39   S    
C88   H40   S    
C44   C86   S    
C10   C77   S    
C76   H28   S    
C91   H78   S    
C19   H6    S    
C45   C79   S    
C7    S15   S    
C34   H21   S    
C47   N27   A    
C8    C75   S    
C20   N7    A    
C11   C78   S    
C12   S5    S    
C89   H41   S    
C11   C88   S    
N21   Ni8   S    
C83   H35   S    
C14   C54   S    
C42   C78   S    
C7    C101  S    
C79   C104  S    
C42   C88   S    
C21   N8    A    
C33   C67   A    
C37   C73   A    
C6    C46   S    
C12   C87   S    
O36   S6    D    
O20   S16   S    
C93   H44   S    
C9    C50   S    
C36   C60   A    
O5    S12   D    
N32   Ni2   S    
C55   C67   S    
C6    S14   S    
C50   C93   S    
C43   C77   S    
C4    C105  S    
C55   C101  S    
N10   Ni6   S    
C6    C99   S    
O27   S3    S    
C61   C102  A    
C85   C100  S    
C51   C106  S    
C82   C101  S    
O34   S9    D    
C25   H12   S    
C85   H37   S    
N26   Ni7   S    
H62   O23   S    
C41   C92   S    
C5    C98   S    
C103  H54   S    
C29   H16   S    
C48   C85   S    
N13   Ni8   S    
N12   Ni2   S    
C17   H4    S    
