data_mof_unit_15623.cif
_audit_creation_date              2012-10-26T20:01:54-0400
_audit_creation_method            fapswitch 2.2
_symmetry_space_group_name_H-M    P1
_symmetry_Int_Tables_number       1
_space_group_crystal_system       triclinic
_cell_length_a                    11.688192
_cell_length_b                    10.824402
_cell_length_c                    9.694582
_cell_angle_alpha                 90.456872
_cell_angle_beta                  89.498783
_cell_angle_gamma                 93.269909
_cell_volume                      1224.4580218

loop_
_atom_site_label
_atom_site_type_symbol
_atom_type_description
_atom_site_fract_x
_atom_site_fract_y
_atom_site_fract_z
_atom_type_partial_charge
C1    C     C_R   0.514723 0.264743 0.499179 0.563535
C2    C     C_R   0.501868 0.874555 0.506897 -0.058005
C3    C     C_R   0.657448 0.659731 0.141885 -0.097162
C4    C     C_R   0.284393 0.499527 0.500465 0.542813
C5    C     C_R   0.737756 0.734640 0.070326 -0.123005
C6    C     C_R   0.738732 0.735624 0.926631 -0.020024
C7    C     C_R   0.657753 0.659313 0.856802 -0.097873
C8    C     C_R   0.577949 0.577724 0.925354 0.121773
C9    C     C_R   0.577517 0.578125 0.073983 0.145056
C10   C     C_R   0.426306 0.426216 0.075913 0.071383
C11   C     C_R   0.422430 0.427948 0.929225 0.127633
C12   C     C_R   0.608627 0.071482 0.861558 -0.062814
C13   C     C_R   0.497247 0.738152 0.501813 0.531938
C14   C     C_R   0.715620 0.500549 0.499563 0.536661
C15   C     C_1   0.162548 0.499737 0.501221 -0.038046
C16   C     C_1   0.059955 0.500006 0.500790 -0.053386
C17   C     C_1   0.940041 0.500338 0.499652 -0.043335
C18   C     C_1   0.837449 0.500518 0.498980 -0.015900
C19   C     C_R   0.605812 0.129919 0.735911 -0.112638
C20   C     C_3   0.822316 0.816766 0.841129 -0.249871
C21   C     C_3   0.905339 0.903758 0.923256 -0.298460
C22   C     C_3   0.982835 0.982705 0.827042 -0.450146
C23   C     C_R   0.548784 0.957757 0.880079 -0.083798
C24   C     C_3   0.326306 0.347082 0.865834 -0.222553
C25   C     C_3   0.210095 0.407859 0.871391 -0.310825
C26   C     C_3   0.150083 0.397385 0.011899 -0.449265
C27   C     C_R   0.500937 0.894749 0.766543 -0.125003
C28   C     C_R   0.515672 0.944194 0.632217 0.003726
C29   C     C_R   0.551047 0.070619 0.623141 -0.020278
C30   C     C_R   0.538893 0.132570 0.498538 -0.018079
C31   C     C_R   0.540272 0.063216 0.376388 0.219954
C32   C     C_R   0.517385 0.936035 0.380914 -0.150372
Cu1   Cu    Cu3+1 0.499990 0.499990 0.640660 0.894147
Cu2   Cu    Cu3+1 0.500010 0.500010 0.359340 0.989669
H1    H     H_    0.658912 0.669630 0.748079 0.184278
H2    H     H_    0.745664 0.005723 0.223882 0.333918
H3    H     H_    0.034762 0.922863 0.760651 0.155452
H4    H     H_    0.930688 0.040706 0.760869 0.157107
H5    H     H_    0.041790 0.044606 0.889007 0.148863
H6    H     H_    0.856186 0.966672 0.989043 0.200728
H7    H     H_    0.960004 0.848662 0.989691 0.159566
H8    H     H_    0.873174 0.755311 0.775133 0.142267
H9    H     H_    0.771999 0.873758 0.771528 0.153510
H10   H     H_    0.147181 0.300543 0.049228 0.156221
H11   H     H_    0.194024 0.459719 0.088483 0.158179
H12   H     H_    0.651282 0.219439 0.725902 0.149907
H13   H     H_    0.060783 0.425960 0.002397 0.159081
H14   H     H_    0.220969 0.507120 0.843040 0.189859
H15   H     H_    0.152635 0.361073 0.793863 0.154989
H16   H     H_    0.344237 0.322857 0.758565 0.201790
H17   H     H_    0.319030 0.256125 0.918790 0.128341
H18   H     H_    0.655512 0.118042 0.943372 0.233380
H19   H     H_    0.542192 0.915989 0.980999 0.188092
H20   H     H_    0.452478 0.809320 0.787726 0.152908
H21   H     H_    0.518509 0.884325 0.284793 0.176557
H22   H     H_    0.367441 0.364909 0.133355 0.141407
H23   H     H_    0.661332 0.669884 0.250861 0.176445
H24   H     H_    0.797924 0.792629 0.129428 0.120834
N1    N     N_R   0.501070 0.501210 0.147910 -0.244153
N2    N     N_R   0.501110 0.501290 0.852040 -0.246416
O1    O     O_R   0.499990 0.319640 0.618810 -0.535483
O2    O     O_2   0.678239 0.238044 0.249782 -0.266104
O3    O     O_3   0.683284 0.014117 0.156546 -0.613722
O4    O     O_R   0.500000 0.319660 0.381240 -0.417695
O5    O     O_R   0.337190 0.500000 0.618790 -0.516688
O6    O     O_R   0.337200 0.500030 0.381210 -0.502763
O7    O     O_R   0.500000 0.680340 0.618760 -0.532094
O8    O     O_R   0.500010 0.680360 0.381190 -0.530058
O9    O     O_R   0.662800 0.499970 0.618790 -0.525720
O10   O     O_R   0.662810 0.500000 0.381210 -0.482184
O11   O     O_2   0.508157 0.151909 0.127285 -0.313123
S1    S     S_3+6 0.602495 0.123321 0.224173 -0.044924

loop_
_geom_bond_atom_site_label_1
_geom_bond_atom_site_label_2
_ccdc_geom_bond_type
C22   H4    S    
C20   H8    S    
C23   H19   S    
C6    C7    A    
C3    C9    A    
C23   C27   A    
H2    O3    S    
C10   H22   S    
C14   C18   S    
C32   H21   S    
C31   C32   A    
C25   H14   S    
Cu1   O9    S    
O2    S1    D    
Cu2   O6    S    
C24   H17   S    
Cu2   O4    S    
C10   N1    A    
C27   H20   S    
Cu1   O5    S    
C7    C8    A    
C21   C22   S    
C24   C25   S    
C4    O6    A    
C5    C6    A    
C14   O10   A    
C12   C23   A    
C28   C29   A    
C29   C30   A    
C21   H6    S    
C5    H24   S    
C4    C15   S    
C21   H7    S    
C22   H5    S    
C26   H13   S    
C12   C19   A    
Cu1   O1    S    
C1    C30   S    
C12   H18   S    
Cu1   Cu2   S    
C17   C18   T    
Cu1   N2    S    
C24   H16   S    
C30   C31   A    
C14   O9    A    
C25   H15   S    
O3    S1    S    
C19   H12   S    
C16   C17   S    
C10   C11   A    
C26   H10   S    
C15   C16   T    
C19   C29   A    
C1    O4    A    
C3    H23   S    
C11   C24   S    
O11   S1    D    
C20   H9    S    
C6    C20   S    
C20   C21   S    
Cu1   O7    S    
C2    C32   A    
C13   O7    A    
Cu2   O8    S    
C27   C28   A    
C2    C13   S    
Cu2   O10   S    
C4    O5    A    
C31   S1    S    
C2    C28   A    
C26   H11   S    
C3    C5    A    
C25   C26   S    
Cu2   N1    S    
C7    H1    S    
C22   H3    S    
C8    N2    A    
C11   N2    A    
C8    C9    A    
C9    N1    A    
C13   O8    A    
C1    O1    A    
