data_mof_unit_24831.cif
_audit_creation_date              2012-10-26T21:01:20-0400
_audit_creation_method            fapswitch 2.2
_symmetry_space_group_name_H-M    P1
_symmetry_Int_Tables_number       1
_space_group_crystal_system       triclinic
_cell_length_a                    15.855586
_cell_length_b                    13.074408
_cell_length_c                    11.667346
_cell_angle_alpha                 98.348146
_cell_angle_beta                  93.63251
_cell_angle_gamma                 90.662446
_cell_volume                      2387.70527629

loop_
_atom_site_label
_atom_site_type_symbol
_atom_type_description
_atom_site_fract_x
_atom_site_fract_y
_atom_site_fract_z
_atom_type_partial_charge
C1    C     C_R   0.504467 0.299831 0.480554 0.569999
C2    C     C_R   0.521447 0.971877 0.446445 0.007919
C3    C     C_R   0.414352 0.410645 0.024476 -0.138922
C4    C     C_R   0.586741 0.586965 0.975101 -0.138415
C5    C     C_R   0.421725 0.418481 0.147972 0.428922
C6    C     C_R   0.577898 0.581794 0.852109 0.422762
C7    C     C_R   0.540727 0.531986 0.153732 0.061743
C8    C     C_R   0.461480 0.463587 0.845042 0.058648
C9    C     C_R   0.532706 0.528977 0.032135 -0.033421
C10   C     C_R   0.468843 0.467555 0.966912 -0.028221
C11   C     C_R   0.339882 0.500730 0.500619 0.531318
C12   C     C_R   0.506066 0.700525 0.519872 0.583416
C13   C     C_R   0.660078 0.499286 0.499386 0.580090
C14   C     C_3   0.974750 0.435340 0.571264 0.212403
C15   C     C_3   0.024905 0.565221 0.428661 0.210327
C16   C     C_3   0.026585 0.404287 0.464637 0.204788
C17   C     C_3   0.973073 0.596250 0.535307 0.205035
C18   C     C_1   0.250427 0.502434 0.502547 -0.007549
C19   C     C_1   0.749441 0.497791 0.497471 0.019999
C20   C     C_3   0.030275 0.533384 0.609731 0.211174
C21   C     C_3   0.969387 0.467169 0.390229 0.212524
C22   C     C_3   0.083431 0.502397 0.503135 -0.006789
C23   C     C_R   0.508986 0.022048 0.348796 -0.098649
C24   C     C_3   0.916306 0.498163 0.496800 -0.007323
C25   C     C_1   0.175015 0.503151 0.503788 0.031408
C26   C     C_1   0.824801 0.497274 0.496201 0.040932
C27   C     C_R   0.514897 0.813502 0.530453 -0.002192
C28   C     C_R   0.513896 0.187673 0.472252 -0.007508
C29   C     C_3   0.997256 0.229870 0.405975 -0.003788
C30   C     C_3   0.033654 0.130985 0.344973 -0.396747
C31   C     C_3   0.001932 0.770778 0.593871 -0.009925
C32   C     C_3   0.965119 0.869690 0.654168 -0.388322
C33   C     C_3   0.007075 0.326351 0.706975 -0.012374
C34   C     C_R   0.513884 0.978829 0.654456 -0.104593
C35   C     C_3   0.971542 0.237693 0.761668 -0.379873
C36   C     C_3   0.991741 0.674022 0.293043 -0.008529
C37   C     C_3   0.026569 0.763186 0.238540 -0.392646
C38   C     C_3   0.994164 0.404273 0.199527 -0.012368
C39   C     C_3   0.954558 0.391645 0.075967 -0.391153
C40   C     C_3   0.005148 0.596241 0.800331 -0.012306
C41   C     C_3   0.044493 0.608671 0.924017 -0.394369
C42   C     C_3   0.705718 0.674391 0.847535 -0.039383
C43   C     C_3   0.761129 0.715524 0.761956 -0.327872
C44   C     C_3   0.293188 0.326846 0.151283 -0.039633
C45   C     C_R   0.500979 0.128207 0.362195 -0.183726
C46   C     C_3   0.235685 0.288893 0.236505 -0.343094
C47   C     C_R   0.505565 0.872089 0.639492 -0.185677
C48   C     C_R   0.533848 0.137979 0.570913 0.252873
C49   C     C_R   0.531707 0.864667 0.435105 0.261653
C50   C     C_R   0.523280 0.030069 0.558399 0.004334
Cu1   Cu    Cu3+1 0.506200 0.507730 0.615930 1.062385
Cu2   Cu    Cu3+1 0.493800 0.492270 0.384070 1.078271
H1    H     H_    0.493614 0.835415 0.714548 0.164522
H2    H     H_    0.972643 0.212666 0.488068 0.174719
H3    H     H_    0.086687 0.105258 0.400037 0.158271
H4    H     H_    0.983966 0.069083 0.328646 0.110163
H5    H     H_    0.057205 0.144417 0.260672 0.144471
H6    H     H_    0.026723 0.787742 0.511794 0.169982
H7    H     H_    0.055610 0.748587 0.650657 0.167324
H8    H     H_    0.941502 0.856551 0.738528 0.148282
H9    H     H_    0.014588 0.931858 0.670285 0.095446
H10   H     H_    0.912056 0.894874 0.598732 0.178272
H11   H     H_    0.034350 0.385288 0.777965 0.162780
H12   H     H_    0.486448 0.163812 0.285234 0.168845
H13   H     H_    0.058788 0.295986 0.652231 0.163897
H14   H     H_    0.945607 0.175512 0.692993 0.163820
H15   H     H_    0.022353 0.205468 0.814937 0.087195
H16   H     H_    0.920373 0.265794 0.818276 0.176651
H17   H     H_    0.939934 0.703795 0.347947 0.171917
H18   H     H_    0.964676 0.615053 0.221940 0.164197
H19   H     H_    0.077712 0.735690 0.181611 0.162887
H20   H     H_    0.975402 0.795149 0.185621 0.101027
H21   H     H_    0.052318 0.825403 0.307301 0.150919
H22   H     H_    0.020965 0.329028 0.214364 0.162289
H23   H     H_    0.500347 0.979088 0.262157 0.192767
H24   H     H_    0.046837 0.462305 0.206827 0.161291
H25   H     H_    0.927179 0.465717 0.057288 0.149778
H26   H     H_    0.003458 0.368441 0.013735 0.084098
H27   H     H_    0.903814 0.331055 0.064217 0.174208
H28   H     H_    0.952428 0.538247 0.792746 0.162222
H29   H     H_    0.978421 0.671542 0.785539 0.162060
H30   H     H_    0.095270 0.669230 0.936072 0.165188
H31   H     H_    0.995465 0.631820 0.986071 0.086794
H32   H     H_    0.071771 0.534535 0.942662 0.149901
H33   H     H_    0.695110 0.706541 0.304721 0.347315
H34   H     H_    0.507725 0.020964 0.740363 0.192780
H35   H     H_    0.664921 0.341586 0.750108 0.363786
H36   H     H_    0.738958 0.608897 0.880799 0.112834
H37   H     H_    0.697510 0.738602 0.919401 0.148471
H38   H     H_    0.729213 0.779523 0.724582 0.186522
H39   H     H_    0.822275 0.744917 0.807068 0.092172
H40   H     H_    0.773949 0.652910 0.690855 0.180992
H41   H     H_    0.302574 0.260738 0.082072 0.128057
H42   H     H_    0.260857 0.391044 0.114126 0.118367
H43   H     H_    0.220901 0.353753 0.303967 0.182115
H44   H     H_    0.175614 0.257489 0.189816 0.089376
H45   H     H_    0.412872 0.415359 0.793605 0.142618
H46   H     H_    0.266852 0.227058 0.278693 0.163335
H47   H     H_    0.591994 0.575531 0.203651 0.183420
H48   H     H_    0.367336 0.360644 0.972340 0.080708
H49   H     H_    0.633871 0.636685 0.027419 0.103836
H50   H     H_    0.943481 0.252456 0.349625 0.175982
N1    N     N_R   0.515540 0.519350 0.790140 -0.218516
N2    N     N_R   0.484460 0.480650 0.209860 -0.220186
O1    O     O_R   0.504400 0.354460 0.582000 -0.445492
O2    O     O_3   0.937683 0.693351 0.571562 -0.582472
O3    O     O_3   0.941116 0.368286 0.642303 -0.564770
O4    O     O_3   0.058086 0.632413 0.357409 -0.575261
O5    O     O_3   0.931366 0.434116 0.277903 -0.569666
O6    O     O_3   0.068108 0.566468 0.722161 -0.571867
O7    O     O_2   0.519883 0.754669 0.222548 -0.309059
O8    O     O_2   0.637524 0.879986 0.265549 -0.307225
O9    O     O_3   0.648983 0.712528 0.358590 -0.541282
O10   O     O_2   0.521672 0.245661 0.783113 -0.326203
O11   O     O_2   0.641508 0.130071 0.759216 -0.282954
O12   O     O_R   0.495600 0.645540 0.418000 -0.437550
O13   O     O_3   0.649498 0.300202 0.673438 -0.494482
O14   O     O_3   0.626385 0.642312 0.790805 -0.514887
O15   O     O_3   0.371686 0.360183 0.209833 -0.517018
O16   O     O_R   0.493920 0.341410 0.386200 -0.484189
O17   O     O_R   0.506080 0.658590 0.613800 -0.484338
O18   O     O_R   0.384320 0.506520 0.597880 -0.527711
O19   O     O_R   0.615680 0.493480 0.402120 -0.503447
O20   O     O_R   0.373840 0.493460 0.402080 -0.458373
O21   O     O_R   0.626160 0.506540 0.597920 -0.447109
O22   O     O_3   0.061726 0.307042 0.428347 -0.589659
S1    S     S_3+6 0.584566 0.802782 0.314788 -0.020042
S2    S     S_3+6 0.586687 0.203501 0.701625 0.007336

loop_
_geom_bond_atom_site_label_1
_geom_bond_atom_site_label_2
_ccdc_geom_bond_type
C11   C18   S    
C16   C21   S    
C23   C45   A    
C36   O4    S    
C11   O20   A    
C33   O3    S    
C33   H13   S    
C38   H24   S    
C7    H47   S    
C5    O15   S    
C39   H25   S    
C31   H6    S    
C36   C37   S    
C24   C26   S    
C32   H9    S    
H35   O13   S    
C38   C39   S    
C13   O19   A    
Cu2   O19   S    
C29   H2    S    
C31   H7    S    
C41   H31   S    
C30   H5    S    
C17   C20   S    
C15   C17   S    
C34   H34   S    
C14   C24   S    
C19   C26   T    
O8    S1    D    
C44   H41   S    
C2    C50   A    
C3    H48   S    
C15   C22   S    
C28   C48   A    
C46   H43   S    
C36   H18   S    
C22   C25   S    
C1    C28   S    
C40   H28   S    
C9    C10   A    
C33   H11   S    
C47   H1    S    
C13   O21   A    
C48   C50   A    
C46   H46   S    
C5    N2    A    
C29   O22   S    
C18   C25   T    
O13   S2    S    
C44   C46   S    
Cu2   O12   S    
C49   S1    S    
C28   C45   A    
C34   C50   A    
C17   C24   S    
C13   C19   S    
C12   C27   S    
Cu1   Cu2   S    
Cu1   O21   S    
C39   H26   S    
C14   C20   S    
C4    C6    A    
C42   O14   S    
C40   O6    S    
C44   O15   S    
C41   H32   S    
C30   H4    S    
C43   H39   S    
O11   S2    D    
C1    O16   A    
C39   H27   S    
C15   O4    S    
C8    H45   S    
C29   C30   S    
C2    C49   A    
C48   S2    S    
O10   S2    D    
C31   C32   S    
C35   H15   S    
Cu1   O1    S    
C4    H49   S    
C6    N1    A    
C38   O5    S    
C20   O6    S    
Cu2   O16   S    
C40   C41   S    
C20   C22   S    
C7    N2    A    
C37   H19   S    
C43   H38   S    
O7    S1    D    
Cu1   O17   S    
C31   O2    S    
C14   C16   S    
C37   H20   S    
C11   O18   A    
C42   H36   S    
C42   C43   S    
C32   H8    S    
C14   O3    S    
C36   H17   S    
C38   H22   S    
C27   C47   A    
C7    C9    A    
C37   H21   S    
Cu2   N2    S    
C16   C22   S    
C40   H29   S    
C23   H23   S    
C3    C5    A    
C21   O5    S    
O9    S1    S    
C30   H3    S    
C45   H12   S    
C43   H40   S    
C35   H14   S    
C42   H37   S    
H33   O9    S    
C32   H10   S    
C3    C10   A    
C17   O2    S    
Cu2   O20   S    
C16   O22   S    
C35   H16   S    
C41   H30   S    
C33   C35   S    
C29   H50   S    
C8    N1    A    
C44   H42   S    
C15   C21   S    
C46   H44   S    
C8    C10   A    
C21   C24   S    
C2    C23   A    
Cu1   O18   S    
C34   C47   A    
C4    C9    A    
Cu1   N1    S    
C6    O14   S    
C12   O17   A    
C27   C49   A    
C1    O1    A    
C12   O12   A    
