data_mof_unit_64778.cif
_audit_creation_date              2012-10-26T19:28:36-0400
_audit_creation_method            fapswitch 2.2
_symmetry_space_group_name_H-M    P1
_symmetry_Int_Tables_number       1
_space_group_crystal_system       triclinic
_cell_length_a                    10.473023
_cell_length_b                    11.732743
_cell_length_c                    13.905935
_cell_angle_alpha                 89.998606
_cell_angle_beta                  84.71989
_cell_angle_gamma                 89.998353
_cell_volume                      1701.47294952

loop_
_atom_site_label
_atom_site_type_symbol
_atom_type_description
_atom_site_fract_x
_atom_site_fract_y
_atom_site_fract_z
_atom_type_partial_charge
C1    C     C_R   0.499999 0.716683 0.500001 0.547866
C2    C     C_1   0.543719 0.507334 0.126813 -0.020678
C3    C     C_1   0.499997 0.838061 0.500000 -0.015153
C4    C     C_1   0.500003 0.161939 0.500000 -0.015153
C5    C     C_1   0.499999 0.940270 0.500000 -0.033274
C6    C     C_1   0.500001 0.059730 0.500000 -0.033274
C7    C     C_1   0.927925 0.500000 0.499995 0.103249
C8    C     C_1   0.072075 0.500000 0.500004 0.103249
C9    C     C_3   0.231120 0.432395 0.979929 -0.012815
C10   C     C_3   0.114862 0.399738 0.048035 -0.364985
C11   C     C_3   0.768879 0.567608 0.020071 -0.012814
C12   C     C_R   0.500001 0.283317 0.499998 0.547865
C13   C     C_3   0.885136 0.600269 0.951964 -0.364985
C14   C     C_R   0.479387 0.499577 0.683579 0.548846
C15   C     C_R   0.520613 0.500423 0.316420 0.548846
C16   C     C_1   0.533571 0.503701 0.213481 -0.030934
C17   C     C_1   0.466429 0.496299 0.786518 -0.030934
C18   C     C_2   0.553126 0.511934 0.022007 0.292410
C19   C     C_2   0.446874 0.488067 0.977993 0.292410
C20   C     C_1   0.456281 0.492666 0.873187 -0.020678
Cu1   Cu    Cu3+1 0.374700 0.500000 0.500000 1.002431
Cu2   Cu    Cu3+1 0.625300 0.500000 0.500000 1.002431
H1    H     H_    0.256796 0.358100 0.932162 0.137355
H2    H     H_    0.914608 0.527455 0.903913 0.160371
H3    H     H_    0.204691 0.506669 0.936014 0.134025
H4    H     H_    0.085392 0.472552 0.096086 0.160371
H5    H     H_    0.033853 0.376389 0.005726 0.096670
H6    H     H_    0.138221 0.325636 0.092932 0.170204
H7    H     H_    0.795311 0.493334 0.063986 0.134025
H8    H     H_    0.743201 0.641903 0.067839 0.137353
H9    H     H_    0.861774 0.674370 0.907068 0.170204
H10   H     H_    0.966143 0.623620 0.994274 0.096670
N1    N     N_1   0.813590 0.500000 0.499990 -0.187448
N2    N     N_1   0.186410 0.500000 0.500010 -0.187447
O1    O     O_R   0.394190 0.662800 0.500010 -0.488133
O2    O     O_3   0.666504 0.539166 0.965119 -0.576978
O3    O     O_R   0.605810 0.337200 0.499990 -0.488133
O4    O     O_R   0.605810 0.662800 0.499990 -0.488335
O5    O     O_R   0.394190 0.337200 0.500010 -0.488334
O6    O     O_R   0.379230 0.500000 0.637850 -0.497987
O7    O     O_R   0.620770 0.500000 0.362150 -0.497987
O8    O     O_R   0.590850 0.500000 0.637840 -0.476708
O9    O     O_R   0.409150 0.500000 0.362160 -0.476708
O10   O     O_3   0.333496 0.460834 0.034881 -0.576978

loop_
_geom_bond_atom_site_label_1
_geom_bond_atom_site_label_2
_ccdc_geom_bond_type
C10   H5    S    
Cu1   O1    S    
C2    C18   S    
C7    N1    T    
C9    C10   S    
C13   H10   S    
C19   C20   S    
Cu1   O5    S    
C14   O8    A    
C10   H4    S    
C12   O5    A    
C9    H3    S    
C7    C8    S    
C8    N2    T    
Cu1   Cu2   S    
C11   C13   S    
C14   C17   S    
C11   H7    S    
Cu2   O8    S    
Cu1   O6    S    
C18   O2    S    
C1    O4    A    
C11   O2    S    
C5    C6    S    
C13   H2    S    
Cu2   O7    S    
C4    C12   S    
C15   O9    A    
C15   C16   S    
Cu2   O4    S    
C17   C20   T    
C2    C16   T    
C19   O10   S    
C15   O7    A    
C4    C6    T    
C18   C19   D    
C10   H6    S    
C12   O3    A    
Cu2   N1    S    
C9    H1    S    
C9    O10   S    
Cu1   N2    S    
C1    O1    A    
C3    C5    T    
Cu1   O9    S    
Cu2   O3    S    
C14   O6    A    
C13   H9    S    
C11   H8    S    
C1    C3    S    
