data_mof_unit_46672.cif
_audit_creation_date              2012-12-10T20:31:53-0500
_audit_creation_method            fapswitch 2.2
_symmetry_space_group_name_H-M    P1
_symmetry_Int_Tables_number       1
_space_group_crystal_system       triclinic
_cell_length_a                    9.86151
_cell_length_b                    10.708463
_cell_length_c                    15.51516
_cell_angle_alpha                 89.816742
_cell_angle_beta                  67.596118
_cell_angle_gamma                 89.702423
_cell_volume                      1514.73616322

loop_
_atom_site_label
_atom_site_type_symbol
_atom_type_description
_atom_site_fract_x
_atom_site_fract_y
_atom_site_fract_z
_atom_type_partial_charge
C1    C     C_R   0.498539 0.739733 0.501732 0.882483
C2    C     C_R   0.418849 0.533595 0.909793 0.020423
C3    C     C_R   0.293373 0.609797 0.955236 0.133914
C4    C     C_R   0.527790 0.522186 0.948121 0.066271
C5    C     C_R   0.495201 0.560941 0.040671 0.049909
C6    C     C_R   0.364963 0.629936 0.087118 -0.258798
C7    C     C_R   0.266662 0.656662 0.044453 0.078671
C8    C     C_R   0.672070 0.482734 0.894194 -0.223016
C9    C     C_R   0.776330 0.463851 0.933625 0.063650
C10   C     C_R   0.738043 0.485465 0.028953 0.164430
C11   C     C_R   0.595818 0.531820 0.083103 0.068898
C12   C     C_R   0.408145 0.500157 0.675964 0.901191
C13   C     C_R   0.837826 0.459471 0.071957 -0.153411
C14   C     C_R   0.793772 0.469527 0.168330 -0.197997
C15   C     C_R   0.554035 0.539093 0.179555 -0.227108
C16   C     C_R   0.380365 0.936937 0.497444 0.062444
C17   C     C_R   0.490074 0.870780 0.513186 -0.093922
C18   C     C_R   0.588598 0.932322 0.543451 -0.264981
C19   C     C_R   0.591344 0.061812 0.543639 0.102454
C20   C     C_R   0.493212 0.127914 0.513135 -0.085862
C21   C     C_R   0.383120 0.064013 0.496162 0.040725
C22   C     C_3   0.331946 0.070883 0.416668 -0.011174
C23   C     C_R   0.499049 0.259991 0.502678 0.944630
C24   C     C_3   0.329500 0.929091 0.418430 -0.483175
C25   C     C_R   0.906439 0.598820 0.536137 0.172510
C26   C     C_R   0.954774 0.408474 0.456324 -0.118007
C27   C     C_R   0.098799 0.408586 0.456206 -0.119815
C28   C     C_R   0.049350 0.599099 0.536001 0.157199
C29   C     C_3   0.993273 0.643638 0.634908 -0.145079
C30   C     C_3   0.839683 0.644712 0.633934 -0.473504
C31   C     C_R   0.591769 0.501229 0.323947 0.897633
C32   C     C_R   0.350291 0.518346 0.776393 -0.084972
C33   C     C_R   0.649708 0.504972 0.222364 -0.049152
C34   C     C_R   0.198821 0.639522 0.909373 -0.161736
C35   C     C_R   0.232484 0.599959 0.818296 -0.256802
C36   C     C_R   0.431132 0.473216 0.826669 0.079614
H1    H     H_    0.948362 0.427443 0.031905 0.177968
H2    H     H_    0.668121 0.880913 0.562340 0.158910
H3    H     H_    0.220393 0.112369 0.438290 0.135669
H4    H     H_    0.217158 0.890157 0.440335 0.174925
H5    H     H_    0.411989 0.884172 0.355656 0.221275
H6    H     H_    0.921176 0.333345 0.422524 0.152527
H7    H     H_    0.174024 0.333982 0.421916 0.163406
H8    H     H_    0.009238 0.574708 0.683731 0.167216
H9    H     H_    0.443073 0.563423 0.223624 0.158211
H10   H     H_    0.765811 0.574872 0.681586 0.205925
H11   H     H_    0.790658 0.739294 0.638197 0.195340
H12   H     H_    0.869898 0.444412 0.200726 0.160821
H13   H     H_    0.104403 0.699817 0.941135 0.180337
H14   H     H_    0.168843 0.635393 0.779971 0.161058
H15   H     H_    0.340765 0.671538 0.154641 0.146499
H16   H     H_    0.707289 0.469286 0.820071 0.167405
N1    N     N_R   0.856900 0.500860 0.500610 -0.097637
N2    N     N_R   0.142540 0.500820 0.500610 -0.114040
O1    O     O_R   0.385310 0.683210 0.499990 -0.628857
O2    O     O_R   0.614650 0.683240 0.500000 -0.622305
O3    O     O_R   0.319830 0.499970 0.632240 -0.627863
O4    O     O_R   0.549170 0.500000 0.632250 -0.595701
O5    O     O_R   0.385350 0.316760 0.500000 -0.619363
O6    O     O_R   0.614690 0.316790 0.500010 -0.588078
O7    O     O_R   0.450830 0.500000 0.367750 -0.606982
O8    O     O_R   0.680170 0.500030 0.367760 -0.619515
Zn1   Zn    Zn3+2 0.346870 0.499980 0.499990 0.944449
Zn2   Zn    Zn3+2 0.653130 0.500020 0.500010 0.964718
N3    N     N_3   0.138934 0.731136 0.092610 -0.466935
H17   H     H_    0.077959 0.686475 0.155437 0.191207
H18   H     H_    0.173345 0.817208 0.108450 0.203822
N4    N     N_3   0.698189 0.124087 0.569818 -0.408993
H19   H     H_    0.802373 0.096658 0.523504 0.174217
H20   H     H_    0.686263 0.092799 0.636193 0.212553
I1    I     I_    0.490001 0.144388 0.288791 -0.395950
N5    N     N_3   0.044137 0.768881 0.645019 -0.435942
H21   H     H_    0.041762 0.826998 0.591270 0.189223
H22   H     H_    0.153239 0.761722 0.638594 0.212183
N6    N     N_3   0.918924 0.416871 0.877294 -0.456604
H23   H     H_    0.967411 0.479938 0.823031 0.182247
H24   H     H_    0.905840 0.332249 0.847973 0.213816
I2    I     I_    0.526083 0.290397 0.790636 -0.409702

loop_
_geom_bond_atom_site_label_1
_geom_bond_atom_site_label_2
_ccdc_geom_bond_type
C8    C9    A    
C16   C21   A    
C31   O7    A    
C19   C20   A    
C4    C8    A    
C14   C33   A    
C27   N2    A    
C25   C28   A    
C23   O5    A    
C26   C27   A    
C32   C36   A    
C28   C29   S    
C1    O2    A    
C25   N1    A    
C5    C11   A    
C3    C7    A    
C5    C6    A    
C34   C35   A    
N1    Zn2   S    
N2    Zn1   S    
C18   C19   A    
O7    Zn1   S    
O8    Zn2   S    
C11   C15   A    
C16   C17   A    
N3    H18   S    
O1    Zn1   S    
O2    Zn2   S    
C6    H15   S    
C9    C10   A    
C8    H16   S    
C13   H1    S    
C29   N5    S    
C12   O4    A    
C16   C24   S    
C21   C22   S    
C12   C32   S    
C24   H5    S    
C31   O8    A    
O3    Zn1   S    
O4    Zn2   S    
C23   O6    A    
C32   C35   A    
C30   H11   S    
N5    H22   S    
C28   N2    A    
N4    H19   S    
C14   H12   S    
C3    C34   A    
C2    C4    A    
N6    H23   S    
C29   C30   S    
C7    N3    S    
C20   C23   S    
C35   H14   S    
C31   C33   S    
C17   C18   A    
C19   N4    S    
N6    H24   S    
C12   O3    A    
C29   H8    S    
C22   C24   S    
C15   H9    S    
C26   N1    A    
C22   I1    S    
C26   H6    S    
C2    C36   A    
C25   C30   S    
C34   H13   S    
C1    C17   S    
C30   H10   S    
N5    H21   S    
C10   C13   A    
C6    C7    A    
O5    Zn1   S    
O6    Zn2   S    
C2    C3    A    
C1    O1    A    
C36   I2    S    
C22   H3    S    
C24   H4    S    
C18   H2    S    
C10   C11   A    
C27   H7    S    
C4    C5    A    
C20   C21   A    
N4    H20   S    
N3    H17   S    
C9    N6    S    
C13   C14   A    
C15   C33   A    
