data_mof_unit_27742.cif
_audit_creation_date              2012-12-10T18:06:38-0500
_audit_creation_method            fapswitch 2.2
_symmetry_space_group_name_H-M    P1
_symmetry_Int_Tables_number       1
_space_group_crystal_system       triclinic
_cell_length_a                    12.639389
_cell_length_b                    13.223592
_cell_length_c                    15.463924
_cell_angle_alpha                 84.684636
_cell_angle_beta                  99.101729
_cell_angle_gamma                 95.105597
_cell_volume                      2533.82025158

loop_
_atom_site_label
_atom_site_type_symbol
_atom_type_description
_atom_site_fract_x
_atom_site_fract_y
_atom_site_fract_z
_atom_type_partial_charge
C1    C     C_R   0.443041 0.309050 0.505432 0.855825
C2    C     C_R   0.676836 0.489553 0.938143 0.178499
C3    C     C_R   0.580486 0.534612 0.901074 0.090755
C4    C     C_R   0.435287 0.514041 0.335940 0.872437
C5    C     C_R   0.741259 0.453147 0.883639 -0.195325
C6    C     C_R   0.706877 0.454493 0.793336 -0.194426
C7    C     C_R   0.547152 0.534155 0.810722 -0.261142
C8    C     C_R   0.668630 0.945976 0.388857 -0.197971
C9    C     C_R   0.567668 0.799612 0.451255 -0.095624
C10   C     C_R   0.334261 0.160818 0.560922 -0.185677
C11   C     C_R   0.314334 0.056314 0.575668 -0.151028
C12   C     C_R   0.456929 0.556312 0.099313 0.034264
C13   C     C_R   0.368465 0.990974 0.535943 -0.162925
C14   C     C_R   0.437598 0.029394 0.475007 0.089870
C15   C     C_R   0.453770 0.135452 0.456622 0.033544
C16   C     C_R   0.551332 0.691524 0.482569 0.880801
C17   C     C_R   0.500063 0.965550 0.439037 0.009693
C18   C     C_R   0.586589 0.007728 0.397001 0.073910
C19   C     C_R   0.586952 0.109983 0.363756 0.198804
C20   C     C_R   0.517783 0.172662 0.391814 -0.213323
C21   C     C_R   0.479562 0.860374 0.443987 0.095153
C22   C     C_R   0.664691 0.844046 0.423174 0.138458
C23   C     C_R   0.378135 0.626668 0.068588 0.096239
C24   C     C_R   0.407426 0.200920 0.504789 -0.099886
C25   C     C_R   0.134701 0.636475 0.628461 0.362007
C26   C     C_R   0.758784 0.395558 0.384425 -0.005521
C27   C     C_R   0.853182 0.387602 0.349990 0.168657
C28   C     C_R   0.565501 0.489353 0.663875 0.872456
C29   C     C_R   0.950145 0.426891 0.394779 -0.217692
C30   C     C_R   0.952037 0.480112 0.469928 0.026357
C31   C     C_R   0.852598 0.493777 0.496880 0.217259
C32   C     C_R   0.047833 0.525174 0.516010 -0.031740
C33   C     C_R   0.041070 0.589108 0.583772 -0.027960
C34   C     C_R   0.535194 0.541620 0.046706 0.088110
C35   C     C_R   0.941416 0.602778 0.607124 -0.260569
C36   C     C_R   0.849114 0.556680 0.563599 -0.199534
C37   C     C_R   0.150491 0.507851 0.498465 -0.172773
C38   C     C_R   0.233173 0.615010 0.609509 0.506148
C39   C     C_R   0.401078 0.539710 0.242186 -0.110262
C40   C     C_R   0.607797 0.492107 0.757235 -0.065598
C41   C     C_R   0.312063 0.654842 0.126978 0.204625
C42   C     C_R   0.328395 0.614514 0.214658 -0.255860
C43   C     C_R   0.453302 0.500860 0.180957 0.142244
C44   C     C_3   0.762418 0.785783 0.424883 -0.847998
C45   C     C_R   0.515512 0.570918 0.956155 0.051830
C46   C     C_3   0.656538 0.151393 0.296523 -0.951214
C47   C     C_3   0.364718 0.818330 0.414061 -0.841273
C48   C     C_3   0.851717 0.344257 0.263411 -0.963274
C49   C     C_3   0.228690 0.730958 0.098995 -0.919559
C50   C     C_3   0.482806 0.391507 0.196100 -0.923760
C51   C     C_R   0.432237 0.635409 0.924283 -0.210762
C52   C     C_R   0.367690 0.666121 0.980510 -0.193398
C53   C     C_R   0.634897 0.503310 0.082952 -0.218385
C54   C     C_R   0.705740 0.479192 0.029151 -0.245966
H1    H     H_    0.308124 0.719036 0.953590 0.178744
H2    H     H_    0.162739 0.457464 0.450709 0.165517
H3    H     H_    0.683218 0.363787 0.352441 0.136365
H4    H     H_    0.021527 0.419988 0.366374 0.150875
H5    H     H_    0.775660 0.574721 0.581781 0.212226
H6    H     H_    0.755972 0.423444 0.752359 0.166943
H7    H     H_    0.780737 0.448094 0.058768 0.152652
H8    H     H_    0.285012 0.642038 0.261680 0.167250
H9    H     H_    0.419576 0.667929 0.857110 0.189134
H10   H     H_    0.659871 0.494066 0.153161 0.174476
H11   H     H_    0.743355 0.722970 0.380694 0.260146
H12   H     H_    0.816158 0.420540 0.911153 0.142187
H13   H     H_    0.830212 0.834992 0.402225 0.222243
H14   H     H_    0.790642 0.755455 0.493126 0.245040
H15   H     H_    0.629880 0.224779 0.264083 0.238515
H16   H     H_    0.741257 0.161524 0.328605 0.254185
H17   H     H_    0.650211 0.098195 0.244111 0.251141
H18   H     H_    0.364394 0.761049 0.365950 0.238838
H19   H     H_    0.325275 0.783029 0.469790 0.249675
H20   H     H_    0.314483 0.879086 0.379759 0.228567
H21   H     H_    0.384313 0.657699 0.629512 0.373663
H22   H     H_    0.075948 0.749776 0.670034 0.317724
H23   H     H_    0.738750 0.978296 0.361039 0.161031
H24   H     H_    0.768863 0.331958 0.228148 0.240835
H25   H     H_    0.896401 0.398599 0.220498 0.248347
H26   H     H_    0.890786 0.271282 0.273925 0.255143
H27   H     H_    0.185973 0.744479 0.153885 0.242163
H28   H     H_    0.267757 0.804967 0.076029 0.243065
H29   H     H_    0.167874 0.702168 0.045176 0.247230
H30   H     H_    0.483850 0.357648 0.133186 0.255046
H31   H     H_    0.562156 0.387031 0.236722 0.231021
H32   H     H_    0.422282 0.344013 0.229960 0.230870
H33   H     H_    0.296969 0.210176 0.597417 0.163456
H34   H     H_    0.359364 0.911010 0.556948 0.168242
H35   H     H_    0.261381 0.025829 0.621926 0.155872
H36   H     H_    0.516965 0.250929 0.364822 0.162863
H37   H     H_    0.470498 0.561077 0.781646 0.193696
H38   H     H_    0.933010 0.648193 0.659987 0.168346
N1    N     N_R   0.239390 0.551900 0.544730 -0.186736
N2    N     N_R   0.759950 0.448600 0.455730 -0.151585
O1    O     O_R   0.374950 0.371210 0.521360 -0.607697
O2    O     O_3   0.133847 0.703776 0.691469 -0.729445
O3    O     O_R   0.542050 0.338030 0.492790 -0.607349
O4    O     O_R   0.368720 0.526070 0.390200 -0.623042
O5    O     O_R   0.535820 0.492890 0.361630 -0.614936
O6    O     O_R   0.457950 0.661970 0.507210 -0.640327
O7    O     O_R   0.625050 0.628790 0.478640 -0.630058
O8    O     O_R   0.464180 0.507110 0.638370 -0.614930
O9    O     O_R   0.631280 0.473930 0.609800 -0.632967
O10   O     O_3   0.321959 0.660172 0.658784 -0.765259
Zn1   Zn    Zn3+2 0.388420 0.522150 0.519080 0.929324
Zn2   Zn    Zn3+2 0.611580 0.477850 0.480920 0.924155

loop_
_geom_bond_atom_site_label_1
_geom_bond_atom_site_label_2
_ccdc_geom_bond_type
C27   C48   S    
C26   N2    A    
C4    O4    A    
C27   C29   A    
C41   C42   A    
C19   C20   A    
C36   H5    S    
C9    C21   A    
C19   C46   S    
C50   H30   S    
C53   C54   A    
C12   C23   A    
O6    Zn1   S    
O4    Zn1   S    
C34   C53   A    
C48   H25   S    
C9    C16   S    
C12   C43   A    
C3    C7    A    
C30   C31   A    
C53   H10   S    
C9    C22   A    
C45   C51   A    
C48   H24   S    
C13   H34   S    
O8    Zn1   S    
C18   C19   A    
C49   H27   S    
C46   H15   S    
C38   O10   S    
O1    Zn1   S    
C50   H31   S    
N1    Zn1   S    
C37   H2    S    
C22   C44   S    
C35   C36   A    
C8    C22   A    
C7    C40   A    
C42   H8    S    
C52   H1    S    
C35   H38   S    
C13   C14   A    
C14   C17   A    
C44   H11   S    
C41   C49   S    
C39   C42   A    
C15   C20   A    
C10   H33   S    
C51   C52   A    
C6    H6    S    
C51   H9    S    
C47   H19   S    
H21   O10   S    
C2    C54   A    
C1    O3    A    
C16   O6    A    
C39   C43   A    
C10   C24   A    
C20   H36   S    
C3    C45   A    
C8    C18   A    
C49   H28   S    
C29   C30   A    
C25   C38   A    
C11   H35   S    
C4    C39   S    
C1    O1    A    
C7    H37   S    
C17   C18   A    
C26   C27   A    
C37   N1    A    
C34   C45   A    
C32   C37   A    
C46   H17   S    
C25   O2    S    
O3    Zn2   S    
C15   C24   A    
C8    H23   S    
C6    C40   A    
C44   H14   S    
C2    C5    A    
C12   C34   A    
O7    Zn2   S    
O5    Zn2   S    
N2    Zn2   S    
C14   C15   A    
C47   H20   S    
C5    H12   S    
C43   C50   S    
C54   H7    S    
C31   N2    A    
C23   C41   A    
C32   C33   A    
C49   H29   S    
C2    C3    A    
H22   O2    S    
C30   C32   A    
C11   C13   A    
C28   O9    A    
C48   H26   S    
C23   C52   A    
C5    C6    A    
C38   N1    A    
C33   C35   A    
O9    Zn2   S    
C26   H3    S    
C17   C21   A    
C47   H18   S    
C46   H16   S    
C10   C11   A    
C50   H32   S    
C28   O8    A    
C16   O7    A    
C29   H4    S    
C1    C24   S    
C4    O5    A    
C28   C40   S    
C31   C36   A    
C44   H13   S    
C25   C33   A    
C21   C47   S    
