data_mof_unit_7157.cif
_audit_creation_date              2012-12-10T17:50:33-0500
_audit_creation_method            fapswitch 2.2
_symmetry_space_group_name_H-M    P1
_symmetry_Int_Tables_number       1
_space_group_crystal_system       triclinic
_cell_length_a                    15.694184
_cell_length_b                    10.722782
_cell_length_c                    9.933059
_cell_angle_alpha                 90.939292
_cell_angle_beta                  91.473439
_cell_angle_gamma                 92.11443
_cell_volume                      1669.64586543

loop_
_atom_site_label
_atom_site_type_symbol
_atom_type_description
_atom_site_fract_x
_atom_site_fract_y
_atom_site_fract_z
_atom_type_partial_charge
C1    C     C_R   0.509072 0.261699 0.499585 0.905831
C2    C     C_3   0.082665 0.500550 0.497310 0.202911
C3    C     C_3   0.976545 0.583824 0.593029 -0.163949
C4    C     C_3   0.917455 0.499721 0.503011 0.205081
C5    C     C_3   0.029888 0.614719 0.468274 -0.159959
C6    C     C_3   0.969002 0.530603 0.378261 -0.157391
C7    C     C_1   0.173587 0.501028 0.495390 -0.063897
C8    C     C_1   0.826509 0.499651 0.505019 -0.082555
C9    C     C_R   0.585750 0.131646 0.730745 -0.152933
C10   C     C_R   0.588670 0.076999 0.856795 -0.114209
C11   C     C_R   0.548176 0.961383 0.874340 -0.169953
C12   C     C_R   0.338055 0.500784 0.498607 0.918526
C13   C     C_R   0.512015 0.895604 0.763412 -0.181124
C14   C     C_R   0.517166 0.944007 0.631266 0.108234
C15   C     C_R   0.543029 0.069562 0.619988 0.081799
C16   C     C_R   0.522286 0.130098 0.499207 -0.127276
C17   C     C_R   0.499584 0.062430 0.382101 -0.165813
C18   C     C_R   0.489636 0.935535 0.386416 -0.224736
C19   C     C_R   0.497390 0.874931 0.509353 -0.123054
C20   C     C_R   0.412077 0.299945 0.126600 -0.008067
C21   C     C_R   0.397173 0.189962 0.050161 -0.280351
C22   C     C_R   0.390787 0.197556 0.911492 -0.192594
C23   C     C_R   0.497167 0.740460 0.502363 0.874386
C24   C     C_R   0.411519 0.309661 0.850851 -0.119628
C25   C     C_R   0.456495 0.405587 0.923382 0.166076
C26   C     C_R   0.456407 0.403819 0.067612 0.089544
C27   C     C_R   0.542024 0.590374 0.074861 -0.103307
C28   C     C_R   0.542524 0.589750 0.932015 -0.137501
C29   C     C_R   0.662001 0.500293 0.501541 0.890676
C30   C     C_3   0.970234 0.385527 0.532038 -0.173466
C31   C     C_3   0.023603 0.416426 0.407282 -0.152544
C32   C     C_1   0.248999 0.501186 0.495793 -0.152827
C33   C     C_1   0.751083 0.499891 0.504622 -0.184065
C34   C     C_3   0.031132 0.469646 0.622050 -0.166828
H1    H     H_    0.045135 0.348176 0.331300 0.144727
H2    H     H_    0.544983 0.922207 0.973961 0.132314
H3    H     H_    0.476506 0.811135 0.786043 0.175560
H4    H     H_    0.473873 0.885238 0.293001 0.169202
H5    H     H_    0.576613 0.664176 0.130992 0.141473
H6    H     H_    0.369883 0.106878 0.095716 0.172227
H7    H     H_    0.363012 0.119988 0.852206 0.167160
H8    H     H_    0.390203 0.319425 0.748799 0.204051
H9    H     H_    0.578133 0.662472 0.881381 0.146320
H10   H     H_    0.943636 0.291936 0.558276 0.135193
H11   H     H_    0.941358 0.555511 0.278705 0.136402
H12   H     H_    0.056487 0.708309 0.442035 0.137302
H13   H     H_    0.955108 0.652109 0.669044 0.135785
H14   H     H_    0.058802 0.444731 0.721588 0.141853
H15   H     H_    0.487199 0.107502 0.287380 0.182055
H16   H     H_    0.616904 0.222621 0.720747 0.154393
H17   H     H_    0.619115 0.126678 0.941868 0.137017
N1    N     N_R   0.499210 0.498800 0.142780 -0.121399
N2    N     N_R   0.499180 0.498720 0.857170 -0.119970
O1    O     O_R   0.500000 0.316780 0.614690 -0.652051
O2    O     O_R   0.499990 0.316750 0.385360 -0.621624
O3    O     O_R   0.376780 0.500000 0.614650 -0.640540
O4    O     O_R   0.376770 0.499980 0.385310 -0.583821
O5    O     O_R   0.500010 0.683250 0.614640 -0.636326
O6    O     O_R   0.500000 0.683220 0.385310 -0.623841
O7    O     O_R   0.623230 0.500020 0.614690 -0.618555
O8    O     O_R   0.623220 0.500000 0.385350 -0.615390
Zn1   Zn    Zn3+2 0.500010 0.500020 0.653130 0.927964
Zn2   Zn    Zn3+2 0.499990 0.499980 0.346870 0.965872
C35   C     C_2   0.341101 0.316788 0.217425 0.985701
O9    O     O_2   0.287851 0.393793 0.190461 -0.634911
O10   O     O_R   0.328372 0.234451 0.323460 -0.832242
H18   H     H_    0.274370 0.250615 0.373708 0.323054

loop_
_geom_bond_atom_site_label_1
_geom_bond_atom_site_label_2
_ccdc_geom_bond_type
C20   C35   S    
C23   O5    A    
C19   C23   S    
C28   N2    A    
C24   C25   A    
O5    Zn1   S    
C6    H11   S    
C26   N1    A    
C24   H8    S    
C9    C10   A    
C28   H9    S    
O6    Zn2   S    
C2    C7    S    
C29   O7    A    
C30   C31   S    
C4    C8    S    
O3    Zn1   S    
C35   O9    D    
C2    C34   S    
C17   C18   A    
C1    O2    A    
C1    C16   S    
O2    Zn2   S    
C21   C22   A    
C12   C32   S    
C23   O6    A    
C11   C13   A    
C30   H10   S    
C12   O3    A    
C21   H6    S    
C20   C26   A    
C1    O1    A    
C12   O4    A    
C31   H1    S    
C3    H13   S    
C11   H2    S    
C25   N2    A    
C6    C31   S    
C22   C24   A    
C8    C33   T    
C18   H4    S    
C5    C6    S    
C13   C14   A    
C29   O8    A    
C22   H7    S    
C34   H14   S    
C10   C11   A    
C10   H17   S    
C3    C4    S    
C2    C5    S    
C16   C17   A    
C29   C33   S    
O10   H18   S    
C20   C21   A    
C27   N1    A    
N2    Zn1   S    
O7    Zn1   S    
C4    C6    S    
C5    H12   S    
C17   H15   S    
C27   C28   A    
O8    Zn2   S    
C30   C34   S    
C14   C15   A    
C18   C19   A    
C7    C32   T    
O1    Zn1   S    
C3    C34   S    
C25   C26   A    
C9    C15   A    
C13   H3    S    
C14   C19   A    
C4    C30   S    
C9    H16   S    
C15   C16   A    
O4    Zn2   S    
C27   H5    S    
C2    C31   S    
C3    C5    S    
N1    Zn2   S    
C35   O10   S    
