data_mof_unit_32158.cif
_audit_creation_date              2012-12-10T19:19:04-0500
_audit_creation_method            fapswitch 2.2
_symmetry_space_group_name_H-M    P1
_symmetry_Int_Tables_number       1
_space_group_crystal_system       triclinic
_cell_length_a                    16.018857
_cell_length_b                    14.760664
_cell_length_c                    19.418626
_cell_angle_alpha                 90.000061
_cell_angle_beta                  89.998643
_cell_angle_gamma                 90.0
_cell_volume                      4591.51403446

loop_
_atom_site_label
_atom_site_type_symbol
_atom_type_description
_atom_site_fract_x
_atom_site_fract_y
_atom_site_fract_z
_atom_type_partial_charge
C1    C     C_R   0.340996 0.500000 0.500013 0.895216
C2    C     C_R   0.659004 0.500000 0.499987 0.895216
C3    C     C_1   0.822641 0.500000 0.499986 -0.001540
C4    C     C_1   0.177359 0.500000 0.500014 -0.001540
C5    C     C_1   0.252203 0.500000 0.500015 -0.120112
C6    C     C_1   0.747797 0.500000 0.499985 -0.120113
C7    C     C_R   0.576696 0.951519 0.503241 0.279131
C8    C     C_R   0.423304 0.048480 0.503253 0.279131
C9    C     C_R   0.423304 0.951519 0.496759 0.279130
C10   C     C_R   0.576696 0.048480 0.496747 0.279130
C11   C     C_R   0.500000 0.902956 0.500000 -0.307499
C12   C     C_R   0.500000 0.097044 0.500000 -0.307498
C13   C     C_1   0.500000 0.802634 0.500000 0.529006
C14   C     C_1   0.500000 0.197366 0.500000 0.529008
C15   C     C_R   0.499988 0.500000 0.366803 0.989420
C16   C     C_R   0.500012 0.500000 0.633197 0.989421
C17   C     C_R   0.456684 0.568604 0.252936 0.270929
C18   C     C_R   0.456719 0.431399 0.747070 0.270931
C19   C     C_R   0.543315 0.568604 0.747064 0.270929
C20   C     C_R   0.543281 0.431399 0.252930 0.270931
C21   C     C_R   0.469213 0.575802 0.181154 0.280360
C22   C     C_R   0.469248 0.424210 0.818852 0.280360
C23   C     C_R   0.530787 0.575802 0.818846 0.280359
C24   C     C_R   0.530752 0.424209 0.181148 0.280361
C25   C     C_R   0.499985 0.500009 0.145082 -0.280795
C26   C     C_R   0.500015 0.500009 0.854918 -0.280795
C27   C     C_R   0.499983 0.500000 0.290091 -0.362395
C28   C     C_R   0.500016 0.500001 0.709909 -0.362395
C29   C     C_R   0.500007 0.500015 0.930468 0.609703
C30   C     C_R   0.499993 0.500014 0.069532 0.609703
C31   C     C_R   0.956360 0.583286 0.500136 0.419413
C32   C     C_R   0.043640 0.416715 0.500152 0.419416
C33   C     C_R   0.043640 0.583285 0.499858 0.419414
C34   C     C_R   0.956360 0.416715 0.499852 0.419415
C35   C     C_R   0.912328 0.500000 0.499989 -0.267428
C36   C     C_R   0.087672 0.500000 0.500010 -0.267428
Cu1   Cu    Cu3+1 0.500000 0.589220 0.500000 1.139526
Cu2   Cu    Cu3+1 0.500000 0.410780 0.500000 1.139536
N1    N     N_R   0.573063 0.499831 0.034257 -0.121043
N2    N     N_R   0.426937 0.499832 0.965743 -0.121043
N3    N     N_R   0.573070 0.500197 0.965750 -0.121025
N4    N     N_R   0.426930 0.500198 0.034249 -0.121025
N5    N     N_1   0.500000 0.276710 0.500000 -0.110242
N6    N     N_1   0.500000 0.723290 0.500000 -0.110244
O1    O     O_R   0.380310 0.575320 0.500010 -0.566277
O2    O     O_R   0.619690 0.424680 0.499990 -0.566270
O3    O     O_R   0.619690 0.575320 0.499990 -0.566277
O4    O     O_R   0.380310 0.424680 0.500010 -0.566270
O5    O     O_R   0.499990 0.575370 0.400140 -0.538034
O6    O     O_R   0.500010 0.424630 0.599860 -0.538026
O7    O     O_R   0.500010 0.575370 0.599860 -0.538034
O8    O     O_R   0.499990 0.424630 0.400140 -0.538026
S1    S     S_3+6 0.379817 0.637329 0.293980 0.113934
O9    O     O_2   0.421738 0.717618 0.326624 -0.186188
O10   O     O_2   0.315787 0.669779 0.243064 -0.164853
O11   O     O_3   0.330014 0.576900 0.354663 -0.566988
H1    H     H_    0.283725 0.616325 0.370333 0.371695
S2    S     S_3+6 0.379852 0.362667 0.706034 0.113932
O12   O     O_2   0.421776 0.282380 0.673387 -0.186185
O13   O     O_2   0.315829 0.330214 0.756956 -0.164859
O14   O     O_3   0.330040 0.423093 0.645355 -0.566995
H2    H     H_    0.283746 0.383669 0.629697 0.371692
S3    S     S_3+6 0.620183 0.637330 0.706020 0.113934
O15   O     O_2   0.578261 0.717619 0.673377 -0.186188
O16   O     O_2   0.684212 0.669779 0.756936 -0.164854
O17   O     O_3   0.669986 0.576900 0.645336 -0.566988
H3    H     H_    0.716275 0.616326 0.629668 0.371696
S4    S     S_3+6 0.620147 0.362667 0.293966 0.113931
O18   O     O_2   0.578224 0.282380 0.326613 -0.186185
O19   O     O_2   0.684171 0.330213 0.243044 -0.164859
O20   O     O_3   0.669960 0.423092 0.354644 -0.566995
H4    H     H_    0.716253 0.383668 0.370303 0.371692
S5    S     S_3+6 0.453099 0.680201 0.136541 0.119291
O21   O     O_2   0.369391 0.678517 0.101624 -0.178930
O22   O     O_2   0.457006 0.759284 0.185200 -0.174909
O23   O     O_3   0.527842 0.693899 0.076587 -0.498878
H5    H     H_    0.523562 0.758120 0.062254 0.395855
S6    S     S_3+6 0.453142 0.319813 0.863471 0.119285
O24   O     O_2   0.369434 0.321493 0.898392 -0.178937
O25   O     O_2   0.457054 0.240726 0.814816 -0.174913
O26   O     O_3   0.527887 0.306129 0.923423 -0.498862
H6    H     H_    0.523613 0.241908 0.937758 0.395859
S7    S     S_3+6 0.546901 0.680202 0.863460 0.119291
O27   O     O_2   0.630609 0.678517 0.898376 -0.178931
O28   O     O_2   0.542995 0.759284 0.814800 -0.174909
O29   O     O_3   0.472158 0.693899 0.923414 -0.498878
H7    H     H_    0.476438 0.758121 0.937746 0.395855
S8    S     S_3+6 0.546857 0.319813 0.136528 0.119285
O30   O     O_2   0.630566 0.321492 0.101608 -0.178936
O31   O     O_2   0.542945 0.240726 0.185184 -0.174914
O32   O     O_3   0.472113 0.306129 0.076577 -0.498864
H8    H     H_    0.476385 0.241908 0.062243 0.395859
O33   O     O_3   0.082767 0.667035 0.499577 -0.590924
H9    H     H_    0.144101 0.660191 0.498471 0.338578
O34   O     O_3   0.917233 0.332965 0.499565 -0.590917
H10   H     H_    0.855900 0.339809 0.498427 0.338578
O35   O     O_3   0.917233 0.667035 0.500413 -0.590924
H11   H     H_    0.855899 0.660192 0.501518 0.338580
O36   O     O_3   0.082767 0.332965 0.500443 -0.590917
H12   H     H_    0.144100 0.339809 0.501580 0.338576
S9    S     S_3+6 0.672263 0.110465 0.485476 0.119462
O37   O     O_2   0.708735 0.129647 0.555296 -0.212651
O38   O     O_2   0.733934 0.057207 0.443555 -0.133397
O39   O     O_3   0.657385 0.209564 0.444683 -0.506286
H13   H     H_    0.710612 0.242963 0.450142 0.374262
S10   S     S_3+6 0.327734 0.889535 0.485503 0.119462
O40   O     O_2   0.291274 0.870354 0.555328 -0.212656
O41   O     O_2   0.266056 0.942793 0.443591 -0.133394
O42   O     O_3   0.342605 0.790435 0.444708 -0.506287
H14   H     H_    0.289378 0.757038 0.450173 0.374267
S11   S     S_3+6 0.327737 0.110465 0.514524 0.119462
O43   O     O_2   0.291265 0.129646 0.444704 -0.212650
O44   O     O_2   0.266065 0.057207 0.556445 -0.133397
O45   O     O_3   0.342614 0.209564 0.555317 -0.506286
H15   H     H_    0.289388 0.242963 0.549858 0.374262
S12   S     S_3+6 0.672265 0.889535 0.514497 0.119461
O46   O     O_2   0.708726 0.870353 0.444672 -0.212657
O47   O     O_2   0.733944 0.942793 0.556409 -0.133393
O48   O     O_3   0.657395 0.790435 0.555293 -0.506286
H16   H     H_    0.710622 0.757038 0.549827 0.374267

loop_
_geom_bond_atom_site_label_1
_geom_bond_atom_site_label_2
_ccdc_geom_bond_type
C16   C28   S    
C7    C10   A    
C4    C36   S    
O33   H9    S    
S5    O21   D    
O34   H10   S    
C16   O7    A    
C3    C6    T    
S3    O16   D    
O35   H11   S    
N1    N3    A    
S1    O9    D    
O11   H1    S    
C15   O5    A    
C7    C11   A    
S9    O37   D    
C23   S7    S    
S7    O27   D    
C1    C5    S    
C32   C36   A    
C16   O6    A    
Cu1   O7    S    
S6    O25   D    
Cu2   O8    S    
S10   O40   D    
S2    O13   D    
C21   S5    S    
C33   C36   A    
Cu1   O5    S    
S12   O46   D    
C34   C35   A    
C23   C26   A    
C18   S2    S    
C20   C24   A    
C19   S3    S    
C8    C9    A    
C31   C33   A    
Cu1   O3    S    
Cu2   O4    S    
S2    O14   S    
N2    N4    A    
O17   H3    S    
S3    O17   S    
S9    O38   D    
C18   C22   A    
S5    O22   D    
C2    C6    S    
O39   H13   S    
O45   H15   S    
O23   H5    S    
S1    O10   D    
C17   C27   A    
C18   C28   A    
C24   C25   A    
C22   S6    S    
C8    S11   S    
O32   H8    S    
O29   H7    S    
S4    O18   D    
S2    O12   D    
O26   H6    S    
C32   C34   A    
C7    S12   S    
C19   C23   A    
Cu1   Cu2   S    
C9    C11   A    
C15   C27   S    
O36   H12   S    
S8    O32   S    
C3    C35   S    
C8    C12   A    
S11   O44   D    
C15   O8    A    
C34   O34   S    
C19   C28   A    
C24   S8    S    
C10   C12   A    
S7    O28   D    
C12   C14   S    
S9    O39   S    
C2    O2    A    
S5    O23   S    
C31   C35   A    
Cu1   O1    S    
C17   S1    S    
S1    O11   S    
C25   C30   S    
C21   C25   A    
S11   O43   D    
C29   N3    A    
S6    O24   D    
C20   S4    S    
C10   S9    S    
S8    O31   D    
C4    C5    T    
C33   O33   S    
O48   H16   S    
S12   O48   S    
C1    O4    A    
Cu2   O6    S    
C20   C27   A    
C2    O3    A    
C32   O36   S    
Cu1   N6    S    
C9    S10   S    
O20   H4    S    
O42   H14   S    
C11   C13   S    
S6    O26   S    
C1    O1    A    
S10   O41   D    
S4    O20   S    
C29   N2    A    
S12   O47   D    
C30   N1    A    
S11   O45   S    
C31   O35   S    
O14   H2    S    
C17   C21   A    
Cu2   O2    S    
S3    O15   D    
Cu2   N5    S    
S7    O29   S    
S8    O30   D    
C26   C29   S    
S4    O19   D    
C22   C26   A    
C30   N4    A    
C13   N6    T    
C14   N5    T    
S10   O42   S    
