data_mof_unit_66244.cif
_audit_creation_date              2012-12-10T16:43:21-0500
_audit_creation_method            fapswitch 2.2
_symmetry_space_group_name_H-M    P1
_symmetry_Int_Tables_number       1
_space_group_crystal_system       triclinic
_cell_length_a                    18.453326
_cell_length_b                    18.482087
_cell_length_c                    18.448972
_cell_angle_alpha                 119.842049
_cell_angle_beta                  90.398241
_cell_angle_gamma                 119.749571
_cell_volume                      4461.11053273

loop_
_atom_site_label
_atom_site_type_symbol
_atom_type_description
_atom_site_fract_x
_atom_site_fract_y
_atom_site_fract_z
_atom_type_partial_charge
C1    C     C_R   0.361429 0.000342 0.138530 0.848133
C2    C     C_2   0.809174 0.004669 0.696977 -0.293753
C3    C     C_2   0.724260 0.943285 0.780398 -0.163088
C4    C     C_R   0.638208 0.999741 0.861184 0.851400
C5    C     C_2   0.691106 0.998762 0.803386 -0.292787
C6    C     C_2   0.280990 0.443890 0.723471 -0.160156
C7    C     C_2   0.192211 0.387700 0.691267 -0.292828
C8    C     C_2   0.337133 0.556200 0.777331 -0.160797
C9    C     C_2   0.304499 0.612293 0.808759 -0.292801
C10   C     C_2   0.280939 0.060042 0.337277 -0.163848
C11   C     C_2   0.192210 0.995499 0.304483 -0.292972
C12   C     C_R   0.114180 0.030212 0.808787 -0.173668
C13   C     C_2   0.337190 0.057604 0.281183 -0.159889
C14   C     C_2   0.304587 0.001516 0.192370 -0.295439
C15   C     C_2   0.775504 0.937678 0.217947 -0.163362
C16   C     C_R   0.639056 0.276994 0.138734 0.865403
C17   C     C_2   0.810998 0.006327 0.306031 -0.290262
C18   C     C_2   0.723757 0.941892 0.162061 -0.164686
C19   C     C_2   0.688972 0.995150 0.195505 -0.289604
C20   C     C_2   0.790492 0.553696 0.216818 0.020251
C21   C     C_2   0.803642 0.611508 0.304580 -0.347453
C22   C     C_2   0.726983 0.442042 0.161832 -0.205700
C23   C     C_R   0.180391 0.016401 0.781416 0.098443
C24   C     C_2   0.699228 0.387421 0.195684 -0.316243
C25   C     C_R   0.138414 0.277045 0.638267 0.851117
C26   C     C_R   0.862030 0.722764 0.361044 0.851245
C27   C     C_R   0.861862 0.000501 0.638973 0.846790
C28   C     C_R   0.361398 0.722955 0.861777 0.854746
C29   C     C_R   0.138386 0.999556 0.361365 0.852674
C30   C     C_R   0.861002 0.000642 0.360381 0.857010
C31   C     C_R   0.140015 0.001661 0.641709 0.782989
C32   C     C_R   0.638943 0.999359 0.139676 0.859036
C33   C     C_R   0.359849 0.001525 0.861611 0.781899
C34   C     C_R   0.234899 0.016224 0.835976 0.098237
C35   C     C_R   0.221267 0.029872 0.915970 -0.172907
C36   C     C_R   0.154376 0.041251 0.940403 -0.137439
C37   C     C_R   0.101034 0.041414 0.887014 -0.138457
C38   C     C_1   0.836912 0.597195 0.170935 0.226784
C39   C     C_R   0.303634 0.006443 0.810607 -0.072076
C40   C     C_R   0.320268 0.002327 0.735327 -0.204185
C41   C     C_R   0.267098 0.002494 0.682107 -0.205260
C42   C     C_R   0.196057 0.006781 0.702931 -0.072095
C43   C     C_2   0.778002 0.940853 0.721790 -0.165572
H1    H     H_    0.373625 0.996515 0.716446 0.157244
H2    H     H_    0.234632 0.955565 0.156254 0.151193
H3    H     H_    0.785552 0.877302 0.185102 0.181085
H4    H     H_    0.262977 0.034283 0.961556 0.146659
H5    H     H_    0.806148 0.070408 0.340472 0.150474
H6    H     H_    0.713119 0.898470 0.091408 0.178124
H7    H     H_    0.694352 0.034964 0.264688 0.149967
H8    H     H_    0.768028 0.577202 0.337316 0.147961
H9    H     H_    0.704713 0.403192 0.090285 0.183021
H10   H     H_    0.723373 0.422489 0.266079 0.155903
H11   H     H_    0.144788 0.051578 0.001801 0.137968
H12   H     H_    0.700787 0.044372 0.779177 0.151255
H13   H     H_    0.050065 0.051863 0.906993 0.138553
H14   H     H_    0.073204 0.034911 0.771610 0.147083
H15   H     H_    0.280196 0.996748 0.622944 0.157164
H16   H     H_    0.792970 0.884785 0.699360 0.177253
H17   H     H_    0.798049 0.063495 0.719862 0.152293
H18   H     H_    0.710899 0.896281 0.804302 0.175235
H19   H     H_    0.314804 0.406669 0.709295 0.176777
H20   H     H_    0.156042 0.421504 0.701858 0.152087
H21   H     H_    0.408207 0.593508 0.792177 0.175904
H22   H     H_    0.234495 0.578415 0.797509 0.152302
H23   H     H_    0.314622 0.116665 0.408415 0.176594
H24   H     H_    0.156218 0.936180 0.234437 0.154183
H25   H     H_    0.408231 0.105053 0.315022 0.176915
N1    N     N_1   0.873898 0.631643 0.134070 -0.199299
O1    O     O_3   0.500000 0.000000 0.000000 -0.488990
O2    O     O_R   0.054120 0.939900 0.325040 -0.640047
O3    O     O_R   0.884120 0.060070 0.444330 -0.645098
O4    O     O_R   0.325020 0.939940 0.054210 -0.647612
O5    O     O_R   0.175860 0.060090 0.615830 -0.638783
O6    O     O_R   0.884120 0.939900 0.324160 -0.643052
O7    O     O_R   0.055710 0.939940 0.615850 -0.644567
O8    O     O_R   0.885720 0.939940 0.614980 -0.646596
O9    O     O_R   0.174930 0.060060 0.445830 -0.643948
O10   O     O_R   0.054120 0.229160 0.614300 -0.644138
O11   O     O_R   0.885050 0.770830 0.325070 -0.630916
O12   O     O_R   0.614240 0.229150 0.054160 -0.640857
O13   O     O_R   0.614240 0.060060 0.885070 -0.644252
O14   O     O_R   0.614900 0.229170 0.174980 -0.646224
O15   O     O_R   0.445840 0.770840 0.885740 -0.643901
O16   O     O_R   0.615830 0.060100 0.175880 -0.646288
O17   O     O_R   0.324090 0.939910 0.884220 -0.644230
O18   O     O_R   0.615830 0.939930 0.055710 -0.645872
O19   O     O_R   0.444240 0.060060 0.884190 -0.637393
O20   O     O_R   0.325020 0.770840 0.885120 -0.639935
O21   O     O_R   0.445840 0.060100 0.175010 -0.642038
O22   O     O_R   0.614900 0.939900 0.885710 -0.644496
O23   O     O_3   0.999960 0.000000 0.500040 -0.490805
O24   O     O_R   0.174930 0.229160 0.614920 -0.642847
O25   O     O_R   0.885720 0.770850 0.445880 -0.639310
O26   O     O_R   0.885050 0.060100 0.614330 -0.642671
Zn1   Zn    Zn3+2 0.542440 0.085830 0.956610 0.967838
Zn2   Zn    Zn3+2 0.543390 0.085850 0.129220 0.966275
Zn3   Zn    Zn3+2 0.543390 0.914160 0.957530 0.962939
Zn4   Zn    Zn3+2 0.370780 0.914160 0.956640 0.968171
Zn5   Zn    Zn3+2 0.957510 0.914170 0.543430 0.964293
Zn6   Zn    Zn3+2 0.956570 0.085840 0.542520 0.969188
Zn7   Zn    Zn3+2 0.956570 0.914150 0.370820 0.979947
Zn8   Zn    Zn3+2 0.129180 0.085840 0.543400 0.963485

loop_
_geom_bond_atom_site_label_1
_geom_bond_atom_site_label_2
_ccdc_geom_bond_type
C26   O25   A    
C15   C18   S    
C21   C26   S    
O19   Zn1   S    
C25   O24   A    
C1    O21   A    
C31   C42   S    
C28   O15   A    
C41   C42   A    
C27   O26   A    
C35   C36   A    
C17   H5    S    
C35   H4    S    
O24   Zn8   S    
C12   C23   A    
C3    C43   S    
C33   C39   S    
C23   C42   A    
O20   Zn4   S    
C36   C37   A    
C33   O19   A    
C41   H15   S    
C18   C19   D    
C2    H17   S    
O3    Zn6   S    
O8    Zn5   S    
C15   C17   D    
C34   C35   A    
C12   C37   A    
O23   Zn8   S    
C37   H13   S    
C29   O9    A    
C8    C9    D    
O6    Zn7   S    
C28   O20   A    
O21   Zn2   S    
O1    Zn2   S    
C43   H16   S    
C4    O22   A    
C3    H18   S    
C18   H6    S    
C38   N1    T    
C16   C24   S    
C13   C14   D    
C17   C30   S    
C19   C32   S    
C11   H24   S    
C14   H2    S    
C10   H23   S    
O13   Zn1   S    
C34   C39   A    
C36   H11   S    
C39   C40   A    
O12   Zn1   S    
C31   O5    A    
C6    C8    S    
C3    C5    D    
C24   H10   S    
C32   O18   A    
C16   O14   A    
C26   O11   A    
O11   Zn7   S    
O1    Zn1   S    
C33   O17   A    
C20   C38   S    
O25   Zn5   S    
C2    C43   D    
C23   C34   A    
O17   Zn4   S    
C7    H20   S    
C2    C27   S    
O23   Zn6   S    
C8    H21   S    
C12   H14   S    
C40   C41   A    
O2    Zn7   S    
C20   C22   S    
C22   C24   D    
C21   H8    S    
O1    Zn4   S    
O23   Zn5   S    
C22   H9    S    
O4    Zn4   S    
O9    Zn8   S    
C25   O10   A    
C5    H12   S    
C4    C5    S    
C27   O8    A    
C10   C13   S    
C30   O3    A    
C6    C7    D    
O23   Zn7   S    
O7    Zn5   S    
C7    C25   S    
O15   Zn3   S    
O18   Zn3   S    
C1    O4    A    
C30   O6    A    
C19   H7    S    
C6    H19   S    
C31   O7    A    
C32   O16   A    
C16   O12   A    
O22   Zn3   S    
C9    H22   S    
O16   Zn2   S    
C10   C11   D    
O26   Zn6   S    
C40   H1    S    
C4    O13   A    
C20   C21   D    
C11   C29   S    
O14   Zn2   S    
O10   Zn6   S    
C1    C14   S    
C15   H3    S    
O1    Zn3   S    
C9    C28   S    
O5    Zn8   S    
C29   O2    A    
C13   H25   S    
