data_mof_unit_67466.cif
_audit_creation_date              2013-03-05T15:40:59-0500
_audit_creation_method            fapswitch 2.2
_symmetry_space_group_name_H-M    P1
_symmetry_Int_Tables_number       1
_space_group_crystal_system       triclinic
_cell_length_a                    10.830718
_cell_length_b                    8.652193
_cell_length_c                    7.627718
_cell_angle_alpha                 103.029739
_cell_angle_beta                  95.233476
_cell_angle_gamma                 92.70803
_cell_volume                      691.786752418

loop_
_atom_site_label
_atom_site_type_symbol
_atom_site_description
_atom_site_fract_x
_atom_site_fract_y
_atom_site_fract_z
_atom_type_partial_charge
O1    O     O_R   0.509140 0.286130 0.619770 -0.625267
O2    O     O_R   0.485380 0.256770 0.308360 -0.606025
C1    C     C_R   0.490433 0.200397 0.453973 0.786451
O3    O     O_R   0.329570 0.514650 0.655700 -0.570118
O4    O     O_R   0.305810 0.485300 0.344290 -0.567695
C2    C     C_R   0.261193 0.508063 0.503017 0.863530
Cu1   Cu    Cu3+1 0.514070 0.517380 0.684380 0.998026
Cu2   Cu    Cu3+1 0.485930 0.482620 0.315620 1.007504
O5    O     O_R   0.514620 0.743230 0.691640 -0.580196
O6    O     O_R   0.490860 0.713870 0.380230 -0.555439
O7    O     O_R   0.694190 0.514700 0.655710 -0.594173
O8    O     O_R   0.670430 0.485350 0.344300 -0.558611
C3    C     C_R   0.508281 0.799564 0.546189 0.981880
C4    C     C_R   0.738273 0.486769 0.496720 0.822759
C5    C     C_3   0.082140 0.489298 0.694756 0.132905
H1    H     H_    0.128980 0.385938 0.727023 0.119080
C6    C     C_3   0.938068 0.450627 0.676472 -0.137344
H2    H     H_    0.900252 0.530566 0.791477 0.245718
H3    H     H_    0.914193 0.733363 0.620129 0.193256
C7    C     C_3   0.067351 0.659622 0.455772 0.149889
C8    C     C_3   0.066146 0.363171 0.361496 -0.577349
C9    C     C_3   0.123079 0.510097 0.507792 -0.150977
H4    H     H_    0.101105 0.362112 0.230259 0.200278
H5    H     H_    0.097353 0.253742 0.401206 0.206999
C10   C     C_3   0.876780 0.483838 0.494464 -0.113281
C11   C     C_3   0.926549 0.656601 0.486151 0.044666
C12   C     C_3   0.923219 0.360645 0.330355 -0.039744
H6    H     H_    0.900561 0.411014 0.212821 0.222613
H7    H     H_    0.075302 0.647874 0.308819 0.187132
C13   C     C_2   0.485396 0.031440 0.429478 -0.276692
H8    H     H_    0.456756 0.958782 0.294524 0.196517
C14   C     C_2   0.516112 0.968301 0.569897 -0.270038
H9    H     H_    0.547466 0.040377 0.703592 0.138817
N1    N     N_2   0.464720 0.456420 0.038520 -0.073170
N2    N     N_2   0.535280 0.543580 0.961480 -0.195865
H10   H     H_    0.585552 0.637604 0.050249 0.249375
N3    N     N_R   0.123135 0.628426 0.845020 0.144616
O9    O     O_R   0.053231 0.746324 0.889332 -0.331343
O10   O     O_R   0.221461 0.623520 0.954412 -0.336826
N4    N     N_R   0.854343 0.723239 0.350954 0.126815
O11   O     O_R   0.786032 0.840977 0.404957 -0.408760
O12   O     O_R   0.860407 0.671181 0.178237 -0.388541
C15   C     C_3   0.401259 0.308467 0.930596 -0.007262
C16   C     C_3   0.282484 0.258049 0.001792 -0.794519
H11   H     H_    0.297911 0.219425 0.129486 0.273390
H12   H     H_    0.219539 0.355513 0.015688 0.255274
H13   H     H_    0.234123 0.154588 0.901473 0.253278
H14   H     H_    0.363682 0.321652 0.799048 0.214826
H15   H     H_    0.465485 0.211848 0.921256 0.147143
C17   C     C_3   0.903870 0.277087 0.687411 -0.375267
C18   C     C_3   0.891086 0.261305 0.875622 -0.838619
H16   H     H_    0.982069 0.295786 0.957151 0.254106
H17   H     H_    0.817417 0.337225 0.930559 0.269190
H18   H     H_    0.862797 0.135201 0.870380 0.275253
H19   H     H_    0.812377 0.232499 0.610583 0.232904
H20   H     H_    0.975889 0.197095 0.635883 0.253224
N5    N     N_R   0.135933 0.810852 0.549795 0.149545
O13   O     O_R   0.079876 0.927658 0.641241 -0.364721
O14   O     O_R   0.245202 0.842848 0.504573 -0.393168
C19   C     C_3   0.875164 0.181273 0.267562 -0.393410
C20   C     C_3   0.738465 0.148384 0.203406 -0.738473
H21   H     H_    0.690877 0.157703 0.325012 0.248801
H22   H     H_    0.703723 0.231310 0.122040 0.253177
H23   H     H_    0.720227 0.024689 0.120878 0.262629
H24   H     H_    0.926706 0.125110 0.153588 0.242158
H25   H     H_    0.899714 0.109148 0.365465 0.259169

loop_
_geom_bond_atom_site_label_1
_geom_bond_atom_site_label_2
_geom_bond_distance
_ccdc_geom_bond_type
C6    C17   1.551848 S    
C20   H23   1.110960 S    
Cu1   O7    1.983410 S    
C15   C16   1.523587 S    
C5    C6    1.567224 S    
N3    O9    1.300856 A    
C1    C13   1.429100 S    
C15   H14   1.080272 S    
C3    C14   1.427511 S    
C17   H19   1.109142 S    
C16   H13   1.111270 S    
O8    C4    1.314769 A    
Cu2   O8    1.988704 S    
C18   H18   1.110142 S    
C6    C10   1.574917 S    
C14   H9    1.083621 S    
N4    O12   1.301476 A    
C6    H2    1.111025 S    
C8    C12   1.542906 S    
C19   H25   1.098815 S    
Cu1   Cu2   2.747483 S    
C4    C10   1.503145 S    
Cu2   N1    2.064482 S    
C8    C9    1.549924 S    
C13   C14   1.331283 D    
C11   N4    1.473449 S    
N5    O13   1.301501 A    
C13   H8    1.087472 S    
C7    C11   1.563143 S    
C20   H22   1.106918 S    
O3    Cu1   1.988706 S    
O4    C2    1.321497 A    
Cu2   O6    1.946660 S    
N4    O11   1.300919 A    
C10   C11   1.581705 S    
C16   H12   1.101966 S    
C19   H24   1.107803 S    
C17   C18   1.490538 S    
O2    C1    1.307769 A    
C7    H7    1.114116 S    
C8    H4    1.100394 S    
C12   C19   1.565850 S    
C20   H21   1.090858 S    
N3    O10   1.300099 A    
O7    C4    1.319641 A    
O2    Cu2   1.942073 S    
N5    O14   1.297223 A    
O4    Cu2   1.983410 S    
C10   C12   1.587426 S    
C15   H15   1.106761 S    
C5    H1    1.112219 S    
C2    C9    1.500475 S    
C16   H11   1.100303 S    
O3    C2    1.310261 A    
N1    N2    1.313523 D    
C8    H5    1.115033 S    
C12   H6    1.095468 S    
Cu1   O5    1.942073 S    
H3    C11   1.109363 S    
O5    C3    1.306248 A    
C5    N3    1.481358 S    
C18   H17   1.109099 S    
C7    N5    1.471740 S    
O1    Cu1   1.946660 S    
Cu1   N2    2.064483 S    
O6    C3    1.306826 A    
C5    C9    1.576803 S    
C17   H20   1.107337 S    
N1    C15   1.458513 S    
C18   H16   1.106144 S    
C7    C9    1.567487 S    
C19   C20   1.509201 S    
O1    C1    1.306400 A    
N2    H10   1.029197 S    
