data_mof_unit_59812.cif
_audit_creation_date              2012-12-11T16:26:23-0500
_audit_creation_method            fapswitch 2.2
_symmetry_space_group_name_H-M    P1
_symmetry_Int_Tables_number       1
_space_group_crystal_system       triclinic
_cell_length_a                    6.936429
_cell_length_b                    17.533536
_cell_length_c                    19.460713
_cell_angle_alpha                 108.646482
_cell_angle_beta                  89.61503
_cell_angle_gamma                 90.54812
_cell_volume                      2242.45939166

loop_
_atom_site_label
_atom_site_type_symbol
_atom_type_description
_atom_site_fract_x
_atom_site_fract_y
_atom_site_fract_z
_atom_type_partial_charge
O1    O     O_R   0.494330 0.415720 0.413720 -0.534727
O2    O     O_R   0.819330 0.430070 0.560210 -0.549111
O3    O     O_R   0.994320 0.584280 0.586280 -0.535149
C1    C     C_R   0.650135 0.414551 0.581501 0.707152
O4    O     O_R   0.823730 0.406300 0.412670 -0.538941
O5    O     O_R   0.998760 0.560340 0.437690 -0.540839
C2    C     C_R   0.654956 0.383484 0.385046 0.694165
O6    O     O_R   0.489890 0.439660 0.562310 -0.534957
O7    O     O_3   0.662340 0.550560 0.508380 -0.369879
V1    V     V_3+5 0.935370 0.490620 0.498450 1.425455
O8    O     O_R   0.328750 0.569930 0.439790 -0.547878
C3    C     C_R   0.160665 0.584986 0.418079 0.703876
O9    O     O_R   0.324340 0.593700 0.587330 -0.539924
C4    C     C_R   0.155470 0.616534 0.614953 0.694566
V2    V     V_3+5 0.435940 0.509380 0.501550 1.424818
O10   O     O_3   0.159100 0.449440 0.491620 -0.364822
H1    H     H_    0.347024 0.868640 0.573463 0.121586
C5    C     C_R   0.035492 0.592284 0.749150 -0.254135
C6    C     C_R   0.976092 0.578580 0.812754 -0.202815
C7    C     C_R   0.963900 0.642289 0.877202 0.681233
C8    C     C_R   0.011038 0.720189 0.878470 -0.229401
C9    C     C_R   0.070233 0.736128 0.814600 -0.013675
C10   C     C_R   0.082768 0.670844 0.748565 0.074449
C11   C     C_R   0.120270 0.815244 0.816030 -0.143938
C12   C     C_R   0.182841 0.829073 0.751413 0.070720
C13   C     C_R   0.195410 0.763784 0.685376 0.064516
C14   C     C_R   0.145304 0.684671 0.683937 -0.156506
C15   C     C_R   0.230121 0.907644 0.750838 -0.153164
C16   C     C_R   0.289601 0.921338 0.687243 -0.114372
C17   C     C_R   0.301846 0.857625 0.622835 -0.109523
C18   C     C_R   0.254707 0.779734 0.621524 -0.141859
H2    H     H_    0.045258 0.540445 0.700766 0.135712
H3    H     H_    0.940510 0.518047 0.812008 0.143503
H4    H     H_    0.001795 0.767497 0.930145 0.124439
H5    H     H_    0.220311 0.959487 0.799216 0.104081
H6    H     H_    0.325238 0.981833 0.687902 0.128103
H7    H     H_    0.264097 0.732497 0.569813 0.101034
C19   C     C_R   0.990177 0.629463 0.324183 -0.206359
C20   C     C_R   0.152546 0.634118 0.368524 -0.083799
C21   C     C_R   0.306961 0.685426 0.364821 -0.232480
C22   C     C_R   0.299146 0.732217 0.318220 0.095340
C23   C     C_R   0.136535 0.726580 0.273556 0.057196
C24   C     C_R   0.981964 0.674719 0.276351 0.085786
C25   C     C_R   0.450959 0.784733 0.315550 -0.189690
C26   C     C_R   0.443072 0.830529 0.268453 -0.179813
C27   C     C_R   0.283067 0.824733 0.223217 0.086472
C28   C     C_R   0.128471 0.772895 0.226017 0.048990
C29   C     C_R   0.965850 0.767295 0.181364 0.081161
C30   C     C_R   0.814084 0.714744 0.184006 -0.144044
C31   C     C_R   0.821999 0.668913 0.231085 -0.186621
C32   C     C_R   0.274851 0.870003 0.175419 -0.209703
C33   C     C_R   0.112445 0.865503 0.131167 -0.087456
C34   C     C_R   0.957991 0.814180 0.134829 -0.143384
H8    H     H_    0.871038 0.589683 0.326107 0.122602
H9    H     H_    0.432310 0.689748 0.398885 0.127449
H10   H     H_    0.576599 0.790054 0.349613 0.135323
H11   H     H_    0.562843 0.870194 0.267127 0.146980
H12   H     H_    0.394028 0.909682 0.173452 0.185740
H13   H     H_    0.832596 0.809934 0.100802 0.145640
H14   H     H_    0.688451 0.709428 0.149940 0.149322
H15   H     H_    0.702245 0.629234 0.232391 0.129468
C35   C     C_R   0.468566 0.186162 0.867819 -0.229425
C36   C     C_R   0.623598 0.135608 0.869890 -0.076891
C37   C     C_R   0.783305 0.131685 0.823936 -0.175443
C38   C     C_R   0.787247 0.176471 0.775561 0.001558
C39   C     C_R   0.631458 0.227189 0.774092 0.055776
C40   C     C_R   0.472144 0.232374 0.820769 0.118018
C41   C     C_R   0.943554 0.170888 0.728135 -0.266146
C42   C     C_R   0.946965 0.215620 0.680053 0.603996
C43   C     C_R   0.793748 0.267225 0.678847 -0.033362
C44   C     C_R   0.634710 0.272658 0.725778 -0.022559
C45   C     C_R   0.478776 0.323474 0.724491 0.165256
C46   C     C_R   0.322230 0.328795 0.771822 -0.114537
C47   C     C_R   0.318797 0.283547 0.819433 -0.191795
C48   C     C_R   0.796480 0.313572 0.631803 -0.180055
C49   C     C_R   0.641637 0.364352 0.630090 -0.113848
C50   C     C_R   0.482402 0.368354 0.676221 -0.152113
H16   H     H_    0.345175 0.189982 0.903235 0.125919
H17   H     H_    0.902683 0.092472 0.824685 0.120386
H18   H     H_    0.063764 0.131913 0.728344 0.155455
H19   H     H_    0.918999 0.309881 0.596055 0.180939
H20   H     H_    0.363034 0.407631 0.675627 0.116089
H21   H     H_    0.201583 0.367573 0.771671 0.114989
H22   H     H_    0.195452 0.288273 0.854988 0.129019
H23   H     H_    0.791334 0.132172 0.433059 0.162831
C51   C     C_R   0.563252 0.407915 0.249161 -0.151985
C52   C     C_R   0.518469 0.421887 0.184569 -0.112357
C53   C     C_R   0.507091 0.357999 0.120257 -0.099758
C54   C     C_R   0.540255 0.279672 0.120072 -0.147903
C55   C     C_R   0.584688 0.263422 0.184954 0.052725
C56   C     C_R   0.596606 0.328928 0.250783 0.079439
C57   C     C_R   0.619679 0.183682 0.184703 -0.191149
C58   C     C_R   0.666146 0.169200 0.250669 -0.041771
C59   C     C_R   0.679558 0.235361 0.316363 0.006479
C60   C     C_R   0.644396 0.314912 0.316370 -0.148248
C61   C     C_R   0.696903 0.090104 0.253786 0.576016
C62   C     C_R   0.742502 0.077812 0.319091 -0.170763
C63   C     C_R   0.756788 0.142440 0.382571 -0.196858
C64   C     C_R   0.724878 0.220261 0.381616 -0.133531
H24   H     H_    0.572483 0.459817 0.297555 0.099951
H25   H     H_    0.493376 0.482686 0.184405 0.119408
H26   H     H_    0.473147 0.369172 0.070116 0.123378
H27   H     H_    0.531438 0.232292 0.068417 0.087329
H28   H     H_    0.765684 0.017344 0.320517 0.141137
H29   H     H_    0.735137 0.268282 0.432823 0.119012
O11   O     O_R   0.775200 0.060470 0.937800 -0.547360
O12   O     O_R   0.441110 0.093720 0.087350 -0.543244
O13   O     O_R   0.266330 0.939630 0.062280 -0.534833
C65   C     C_R   0.609714 0.116174 0.115336 0.831946
O14   O     O_R   0.445750 0.069950 0.939820 -0.553022
O15   O     O_R   0.271000 0.915700 0.913700 -0.539069
C66   C     C_R   0.614953 0.085510 0.918558 0.677305
O16   O     O_R   0.770530 0.084400 0.086380 -0.518769
O17   O     O_3   0.602830 0.949510 0.991680 -0.358586
V3    V     V_3+5 0.329710 0.009370 0.001550 1.452925
O18   O     O_R   0.940990 0.906170 0.912570 -0.544140
C67   C     C_R   0.109930 0.883393 0.884993 0.680389
O19   O     O_R   0.936350 0.929940 0.060100 -0.518657
C68   C     C_R   0.104416 0.914821 0.081759 0.745277
V4    V     V_3+5 0.829160 0.990450 0.998310 1.494965
O20   O     O_3   0.105910 0.050480 0.008320 -0.379762
F1    F     F_    0.100580 0.208479 0.634854 -0.694273
F2    F     F_    0.680405 0.023405 0.194780 -0.725675
F3    F     F_    0.907420 0.628516 0.939072 -0.687940

loop_
_geom_bond_atom_site_label_1
_geom_bond_atom_site_label_2
_ccdc_geom_bond_type
C41   H18   S    
C52   C53   A    
C58   C59   A    
V3    O20   S    
C46   C47   A    
C6    C7    A    
C1    O6    A    
O17   V3    S    
C34   H13   S    
O11   C66   A    
C26   C27   A    
V4    O20   S    
C12   C15   A    
C16   H6    S    
C26   H11   S    
C11   C67   S    
C16   C17   A    
C30   H14   S    
C35   C40   A    
C50   H20   S    
O13   V3    S    
C15   C16   A    
C51   C56   A    
O5    C3    A    
C17   C18   A    
C57   C65   S    
V2    O10   S    
O18   C67   A    
C5    C6    A    
C22   C23   A    
C36   C66   S    
O19   C68   A    
H23   C63   S    
C45   C50   A    
C52   H25   S    
O8    V2    S    
C39   C44   A    
C15   H5    S    
C41   C42   A    
C43   C44   A    
O1    V2    S    
C10   C14   A    
C4    C14   S    
C51   H24   S    
O7    V1    S    
C65   O16   A    
C38   C41   A    
C39   C40   A    
C13   C18   A    
O9    C4    A    
C54   H27   S    
H1    C17   S    
O12   C65   A    
O13   C68   A    
C42   C43   A    
C62   C63   A    
O19   V4    S    
C29   C34   A    
C64   H29   S    
C1    C49   S    
C32   C33   A    
C49   C50   A    
C6    H3    S    
C20   C21   A    
C32   H12   S    
C51   C52   A    
C48   H19   S    
C8    H4    S    
C12   C13   A    
C27   C32   A    
C18   H7    S    
O2    C1    A    
C48   C49   A    
C35   C36   A    
O16   V4    S    
C25   H10   S    
C55   C57   A    
C28   C29   A    
C19   H8    S    
C21   H9    S    
C61   C62   A    
C7    C8    A    
C13   C14   A    
C40   C47   A    
C11   C12   A    
O12   V3    S    
O3    C4    A    
C21   C22   A    
C63   C64   A    
O6    V2    S    
O9    V2    S    
C37   H17   S    
C9    C11   A    
C5    H2    S    
C23   C24   A    
O2    V1    S    
C33   C34   A    
O4    C2    A    
C27   C28   A    
C29   C30   A    
C61   F2    S    
O11   V4    S    
O1    C2    A    
C35   H16   S    
C25   C26   A    
C47   H22   S    
C45   C46   A    
O5    V1    S    
C53   H26   S    
O8    C3    A    
C24   C31   A    
C58   C61   A    
C2    C60   S    
O15   C67   A    
C59   C64   A    
C37   C38   A    
C3    C20   S    
O7    V2    S    
O4    V1    S    
O3    V1    S    
V1    O10   S    
C55   C56   A    
C19   C20   A    
C42   F1    S    
C5    C10   A    
C57   C58   A    
C22   C25   A    
C23   C28   A    
C38   C39   A    
C59   C60   A    
O14   C66   A    
C7    F3    S    
C62   H28   S    
C56   C60   A    
C36   C37   A    
C33   C68   S    
O18   V4    S    
C19   C24   A    
C44   C45   A    
C53   C54   A    
C30   C31   A    
C43   C48   A    
C31   H15   S    
C9    C10   A    
O15   V3    S    
C54   C55   A    
C8    C9    A    
O14   V3    S    
C46   H21   S    
O17   V4    S    
