data_mof_unit_58860.cif
_audit_creation_date              2012-10-26T19:52:48-0400
_audit_creation_method            fapswitch 2.2
_symmetry_space_group_name_H-M    P1
_symmetry_Int_Tables_number       1
_space_group_crystal_system       triclinic
_cell_length_a                    15.051144
_cell_length_b                    10.88406
_cell_length_c                    9.557525
_cell_angle_alpha                 90.67898
_cell_angle_beta                  89.697181
_cell_angle_gamma                 91.266664
_cell_volume                      1565.17811076

loop_
_atom_site_label
_atom_site_type_symbol
_atom_type_description
_atom_site_fract_x
_atom_site_fract_y
_atom_site_fract_z
_atom_type_partial_charge
C1    C     C_R   0.498144 0.262431 0.499327 0.546989
C2    C     C_R   0.185923 0.457359 0.381954 -0.131730
C3    C     C_R   0.232189 0.507485 0.496878 -0.032014
C4    C     C_R   0.328808 0.502508 0.499759 0.545155
C5    C     C_R   0.186254 0.563157 0.607173 -0.146396
C6    C     C_R   0.469133 0.063433 0.617187 0.055639
C7    C     C_R   0.492552 0.129126 0.497056 -0.019231
C8    C     C_R   0.512882 0.063580 0.373913 -0.173567
C9    C     C_R   0.515972 0.935669 0.374795 -0.157511
C10   C     C_R   0.503808 0.871596 0.500622 0.029869
C11   C     C_R   0.480906 0.937989 0.620942 0.022003
C12   C     C_R   0.907609 0.555430 0.611624 0.020979
C13   C     C_3   0.523831 0.947214 0.762404 0.137506
C14   C     C_3   0.498990 0.082646 0.764335 0.172425
C15   C     C_R   0.573593 0.537367 0.073370 0.141003
C16   C     C_R   0.503225 0.737820 0.500624 0.555670
C17   C     C_R   0.433116 0.444701 0.075589 -0.023193
C18   C     C_R   0.431713 0.444816 0.925380 0.359763
C19   C     C_R   0.574133 0.535472 0.926461 0.103693
C20   C     C_3   0.621119 0.656117 0.920686 -0.273927
C21   C     C_3   0.619212 0.659791 0.079520 -0.277780
C22   C     C_R   0.671319 0.500697 0.499535 0.546134
C23   C     C_R   0.952728 0.410988 0.263762 -0.111431
C24   C     C_R   0.815059 0.551464 0.612775 -0.131022
C25   C     C_R   0.768184 0.502898 0.497930 -0.004079
C26   C     C_R   0.813964 0.457836 0.380724 -0.141098
C27   C     C_R   0.906624 0.458610 0.379075 -0.040018
C28   C     C_R   0.953721 0.507553 0.494898 0.044369
C29   C     C_3   0.659479 0.962275 0.878259 -0.024147
C30   C     C_3   0.757769 0.933845 0.865874 -0.358574
C31   C     C_3   0.450958 0.117687 0.991366 0.003648
C32   C     C_3   0.368295 0.116048 0.083787 -0.365075
C33   C     C_3   0.281551 0.401091 0.894203 0.003316
C34   C     C_R   0.045560 0.407765 0.264072 0.268593
C35   C     C_3   0.216575 0.320380 0.810652 -0.336944
C36   C     C_3   0.102018 0.233458 0.164681 -0.023969
C37   C     C_3   0.038423 0.160129 0.070513 -0.383344
C38   C     C_R   0.093142 0.458078 0.378847 0.010632
C39   C     C_R   0.046885 0.508951 0.494027 0.015027
C40   C     C_R   0.093716 0.561466 0.608532 0.012014
C41   C     C_R   0.047308 0.610491 0.722986 -0.126358
C42   C     C_R   0.954698 0.606684 0.724993 -0.129721
Cu1   Cu    Cu3+1 0.500000 0.499980 0.640670 1.005664
Cu2   Cu    Cu3+1 0.500000 0.500020 0.359330 0.925212
H1    H     H_    0.779583 0.588019 0.701962 0.111143
H2    H     H_    0.575990 0.732378 0.122771 0.133924
H3    H     H_    0.916726 0.375192 0.173691 0.118238
H4    H     H_    0.222501 0.416263 0.296045 0.147135
H5    H     H_    0.222607 0.607601 0.691776 0.113628
H6    H     H_    0.082662 0.650497 0.811523 0.111941
H7    H     H_    0.919889 0.644088 0.814891 0.102550
H8    H     H_    0.530305 0.111068 0.278453 0.123766
H9    H     H_    0.630359 0.910266 0.967341 0.108191
H10   H     H_    0.654801 0.061892 0.902682 0.110283
H11   H     H_    0.789299 0.991731 0.783694 0.158902
H12   H     H_    0.531470 0.887939 0.278203 0.117510
H13   H     H_    0.791288 0.953636 0.967152 0.090588
H14   H     H_    0.766679 0.835777 0.837570 0.149814
H15   H     H_    0.488056 0.206088 0.007003 0.139575
H16   H     H_    0.493652 0.041302 0.024839 0.083873
H17   H     H_    0.385047 0.144656 0.192240 0.105891
H18   H     H_    0.319124 0.180422 0.043269 0.162189
H19   H     H_    0.337858 0.022179 0.084783 0.141664
H20   H     H_    0.267976 0.499345 0.875838 0.125212
H21   H     H_    0.268130 0.381632 0.005867 0.109459
H22   H     H_    0.221073 0.223300 0.843784 0.151924
H23   H     H_    0.489416 0.888457 0.841265 0.108093
H24   H     H_    0.147650 0.351479 0.828840 0.125899
H25   H     H_    0.232090 0.324607 0.697335 0.171582
H26   H     H_    0.095202 0.200577 0.274680 0.119307
H27   H     H_    0.170866 0.213081 0.131386 0.128378
H28   H     H_    0.044913 0.191764 0.960824 0.157151
H29   H     H_    0.054278 0.061064 0.074142 0.101305
H30   H     H_    0.968862 0.171567 0.106484 0.137788
H31   H     H_    0.554076 0.152036 0.774055 0.125934
H32   H     H_    0.382447 0.396712 0.134985 0.109590
H33   H     H_    0.689101 0.648331 0.877424 0.121722
H34   H     H_    0.579197 0.724757 0.870977 0.180660
H35   H     H_    0.686306 0.655570 0.127044 0.131846
H36   H     H_    0.777459 0.420221 0.291915 0.119921
N1    N     N_R   0.500570 0.500930 0.147930 -0.260292
N2    N     N_R   0.500570 0.500890 0.852020 -0.229226
O1    O     O_R   0.500000 0.319640 0.618810 -0.462949
O2    O     O_3   0.424412 0.104736 0.850491 -0.540942
O3    O     O_3   0.369376 0.373684 0.852512 -0.498415
O4    O     O_3   0.089454 0.361073 0.148275 -0.581793
O5    O     O_R   0.500010 0.319680 0.381230 -0.519772
O6    O     O_R   0.370250 0.499950 0.618800 -0.459923
O7    O     O_R   0.370260 0.499990 0.381220 -0.518101
O8    O     O_R   0.499990 0.680320 0.618770 -0.503915
O9    O     O_R   0.500000 0.680360 0.381190 -0.509271
O10   O     O_R   0.629740 0.500010 0.618780 -0.508165
O11   O     O_R   0.629750 0.500050 0.381200 -0.504826
O12   O     O_3   0.616834 0.931192 0.750559 -0.573156

loop_
_geom_bond_atom_site_label_1
_geom_bond_atom_site_label_2
_ccdc_geom_bond_type
C1    O5    A    
C37   H30   S    
C16   O8    A    
Cu1   O1    S    
C41   C42   A    
C19   C20   S    
C14   O2    S    
C33   H21   S    
C7    C8    A    
C15   N1    A    
C15   C19   A    
C26   C27   A    
C20   H33   S    
C12   C28   A    
Cu1   O6    S    
C36   C37   S    
C32   H17   S    
C21   H2    S    
C29   O12   S    
C29   H10   S    
C30   H13   S    
C34   O4    S    
C31   H15   S    
C33   O3    S    
C12   C42   A    
Cu2   O11   S    
C33   C35   S    
C8    C9    A    
C22   C25   S    
C17   H32   S    
C23   C27   A    
Cu2   O5    S    
C9    C10   A    
C8    H8    S    
C36   H27   S    
C42   H7    S    
C34   C38   A    
C13   C14   S    
C5    H5    S    
C36   H26   S    
C18   O3    S    
C23   H3    S    
Cu1   O8    S    
C24   C25   A    
Cu2   N1    S    
C39   C40   A    
C35   H22   S    
C36   O4    S    
C25   C26   A    
C26   H36   S    
C31   O2    S    
C31   H16   S    
Cu1   Cu2   S    
C29   C30   S    
C6    C14   S    
C2    C38   A    
C31   C32   S    
C23   C34   A    
C21   H35   S    
C17   C18   A    
C9    H12   S    
Cu2   O9    S    
C40   C41   A    
C22   O11   A    
C5    C40   A    
C24   H1    S    
C3    C4    S    
C19   N2    A    
C41   H6    S    
C6    C11   A    
C4    O7    A    
C13   H23   S    
C37   H29   S    
C1    C7    S    
C32   H19   S    
C3    C5    A    
C6    C7    A    
C4    O6    A    
C1    O1    A    
C30   H11   S    
C12   C24   A    
Cu1   O10   S    
C28   C39   A    
C20   H34   S    
C13   O12   S    
C2    H4    S    
C14   H31   S    
C2    C3    A    
C32   H18   S    
C10   C16   S    
C11   C13   S    
C38   C39   A    
C29   H9    S    
C35   H24   S    
C33   H20   S    
C30   H14   S    
C18   N2    A    
C17   N1    A    
C10   C11   A    
C15   C21   S    
C20   C21   S    
C35   H25   S    
C16   O9    A    
C37   H28   S    
C27   C28   A    
Cu1   N2    S    
C22   O10   A    
Cu2   O7    S    
