data_mof_unit_31822.cif
_audit_creation_date              2012-12-10T18:55:20-0500
_audit_creation_method            fapswitch 2.2
_symmetry_space_group_name_H-M    P1
_symmetry_Int_Tables_number       1
_space_group_crystal_system       triclinic
_cell_length_a                    10.725091
_cell_length_b                    9.800074
_cell_length_c                    27.755657
_cell_angle_alpha                 90.008737
_cell_angle_beta                  88.779175
_cell_angle_gamma                 89.999399
_cell_volume                      2916.64286384

loop_
_atom_site_label
_atom_site_type_symbol
_atom_type_description
_atom_site_fract_x
_atom_site_fract_y
_atom_site_fract_z
_atom_type_partial_charge
C1    C     C_R   0.259736 0.500019 0.499902 0.897496
C2    C     C_R   0.383247 0.509768 0.875749 -0.033650
C3    C     C_R   0.498629 0.500605 0.352866 -0.168016
C4    C     C_R   0.501295 0.500684 0.647135 -0.168001
C5    C     C_R   0.384924 0.541897 0.976585 0.069499
C6    C     C_R   0.614872 0.541888 0.023423 0.069491
C7    C     C_R   0.613337 0.562183 0.972859 -0.010238
C8    C     C_R   0.386455 0.562108 0.027156 -0.010226
C9    C     C_R   0.498599 0.545873 0.949509 0.080228
C10   C     C_R   0.501196 0.545792 0.050501 0.080231
C11   C     C_R   0.274278 0.508574 0.952713 -0.133446
C12   C     C_R   0.740264 0.500018 0.500097 0.897564
C13   C     C_R   0.725526 0.508551 0.047285 -0.133442
C14   C     C_R   0.272985 0.495995 0.903004 -0.100891
C15   C     C_R   0.726827 0.495915 0.096991 -0.100843
C16   C     C_R   0.499184 0.499976 0.405908 0.911159
C17   C     C_R   0.500807 0.499998 0.594093 0.911045
C18   C     C_R   0.278117 0.595677 0.055251 -0.137030
C19   C     C_R   0.721666 0.595833 0.944775 -0.137007
C20   C     C_R   0.063833 0.375711 0.499502 -0.210776
C21   C     C_R   0.936149 0.624626 0.500183 -0.176874
C22   C     C_R   0.936180 0.375707 0.500291 -0.210865
C23   C     C_R   0.502490 0.531273 0.101020 -0.041512
C24   C     C_R   0.063839 0.624627 0.500019 -0.177223
C25   C     C_R   0.872636 0.500121 0.500270 0.010382
C26   C     C_R   0.127365 0.500124 0.499727 0.010389
C27   C     C_R   0.591112 0.072114 0.522828 -0.058498
C28   C     C_R   0.408784 0.927985 0.477254 -0.071847
C29   C     C_R   0.408885 0.072097 0.477173 -0.058687
C30   C     C_R   0.591214 0.928003 0.522747 -0.071625
C31   C     C_R   0.395453 0.507948 0.177961 0.536994
C32   C     C_R   0.604367 0.508215 0.822041 0.537040
C33   C     C_R   0.617572 0.502474 0.174493 0.578980
C34   C     C_R   0.497312 0.531423 0.898985 -0.041528
C35   C     C_R   0.382248 0.502622 0.825504 0.578973
C36   C     C_R   0.560324 0.397730 0.276555 -0.117690
C37   C     C_R   0.439563 0.397859 0.723438 -0.117829
C38   C     C_R   0.559702 0.395153 0.326604 -0.048334
C39   C     C_R   0.440207 0.395248 0.673388 -0.048197
C40   C     C_R   0.440596 0.609463 0.328011 -0.142273
C41   C     C_R   0.559265 0.609591 0.671998 -0.142361
C42   C     C_R   0.452655 0.616953 0.277358 -0.074886
C43   C     C_R   0.547138 0.617136 0.722649 -0.074876
C44   C     C_R   0.509196 0.507603 0.251906 0.217286
C45   C     C_R   0.390111 0.536181 0.128280 -0.092575
C46   C     C_R   0.490634 0.507774 0.748093 0.217378
C47   C     C_2   0.362689 0.711093 0.354685 0.993387
C48   C     C_2   0.637167 0.711224 0.645335 0.993529
C49   C     C_2   0.405517 0.736732 0.250190 0.983029
C50   C     C_2   0.594148 0.736988 0.749825 0.982915
C51   C     C_2   0.167144 0.614774 0.135244 1.073359
C52   C     C_2   0.832622 0.615128 0.864786 1.073335
C53   C     C_R   0.372071 0.283274 0.649697 0.118898
C54   C     C_R   0.422445 0.151039 0.648016 -0.101246
C55   C     C_R   0.359585 0.046672 0.624153 -0.093429
C56   C     C_R   0.609691 0.536413 0.871728 -0.092582
C57   C     C_R   0.245836 0.073339 0.602388 -0.125348
C58   C     C_R   0.194480 0.204313 0.604543 -0.113429
C59   C     C_R   0.257534 0.309330 0.627888 -0.095195
C60   C     C_R   0.627824 0.283182 0.350286 0.118868
C61   C     C_R   0.577218 0.151069 0.352111 -0.100926
C62   C     C_R   0.640072 0.046715 0.375973 -0.093548
C63   C     C_R   0.754042 0.073269 0.397590 -0.125275
C64   C     C_R   0.805622 0.204120 0.395290 -0.113581
C65   C     C_R   0.742571 0.309131 0.371950 -0.095589
C66   C     C_2   0.174768 0.674649 0.033324 0.921936
C67   C     C_R   0.278446 0.576018 0.105748 -0.100167
C68   C     C_2   0.825003 0.674781 0.966730 0.921899
C69   C     C_R   0.721339 0.576267 0.894271 -0.100166
C70   C     C_R   0.616564 0.509638 0.124250 -0.033634
H1    H     H_    0.663704 0.126934 0.541136 0.135426
H2    H     H_    0.811686 0.487641 0.027801 0.178540
H3    H     H_    0.112286 0.278689 0.498939 0.149696
H4    H     H_    0.887672 0.721651 0.500279 0.142856
H5    H     H_    0.887738 0.278680 0.500694 0.149742
H6    H     H_    0.112306 0.721652 0.500090 0.142906
H7    H     H_    0.215977 0.743900 0.399961 0.329451
H8    H     H_    0.783930 0.744041 0.600090 0.329398
H9    H     H_    0.438177 0.875211 0.197646 0.362300
H10   H     H_    0.561327 0.875455 0.802375 0.362273
H11   H     H_    0.993812 0.565946 0.158562 0.370233
H12   H     H_    0.335933 0.873294 0.459153 0.140445
H13   H     H_    0.006023 0.566484 0.841487 0.370219
H14   H     H_    0.510898 0.129504 0.664528 0.171142
H15   H     H_    0.398920 0.945122 0.622403 0.177428
H16   H     H_    0.197377 0.992434 0.583955 0.128398
H17   H     H_    0.105776 0.224423 0.588141 0.137381
H18   H     H_    0.217549 0.410820 0.628867 0.129924
H19   H     H_    0.488594 0.129630 0.335715 0.171056
H20   H     H_    0.600558 0.945265 0.377839 0.177429
H21   H     H_    0.802497 0.992374 0.416021 0.128440
H22   H     H_    0.894492 0.224139 0.411578 0.137403
H23   H     H_    0.336294 0.126902 0.458865 0.135372
H24   H     H_    0.782729 0.410531 0.370859 0.130267
H25   H     H_    0.125726 0.823750 0.987265 0.368081
H26   H     H_    0.874025 0.823784 0.012847 0.368062
H27   H     H_    0.664065 0.873326 0.540849 0.140351
H28   H     H_    0.396793 0.314836 0.743630 0.170925
H29   H     H_    0.603104 0.314700 0.256359 0.170974
H30   H     H_    0.185519 0.472699 0.886105 0.216043
H31   H     H_    0.814299 0.472619 0.113883 0.216012
H32   H     H_    0.188120 0.487621 0.972191 0.178517
N1    N     N_R   0.507791 0.503880 0.200269 -0.337817
N2    N     N_R   0.492032 0.504082 0.799730 -0.337808
N3    N     N_R   0.500000 0.857200 0.500000 -0.091364
N4    N     N_R   0.500000 0.142800 0.500000 -0.080700
O1    O     O_R   0.316770 0.614620 0.500000 -0.629489
O2    O     O_2   0.709742 0.485281 0.795840 -0.519209
O3    O     O_2   0.272738 0.495814 0.802542 -0.546253
O4    O     O_2   0.727088 0.495711 0.197453 -0.546308
O5    O     O_2   0.384911 0.833041 0.350930 -0.657629
O6    O     O_R   0.263806 0.665987 0.384227 -0.789741
O7    O     O_2   0.614883 0.833165 0.649074 -0.657614
O8    O     O_R   0.736112 0.666125 0.615818 -0.789724
O9    O     O_2   0.300407 0.780727 0.258222 -0.533758
O10   O     O_R   0.480888 0.796461 0.214283 -0.795699
O11   O     O_2   0.699210 0.781120 0.741798 -0.533775
O12   O     O_R   0.683230 0.385380 0.500000 -0.634317
O13   O     O_R   0.518711 0.796634 0.785736 -0.795745
O14   O     O_2   0.167931 0.720313 0.158733 -0.568157
O15   O     O_R   0.062798 0.529454 0.136597 -0.743685
O16   O     O_2   0.831767 0.720671 0.841312 -0.568168
O17   O     O_R   0.937038 0.529904 0.863429 -0.743651
O18   O     O_2   0.066078 0.650427 0.044373 -0.603420
O19   O     O_R   0.202949 0.776827 0.999636 -0.757784
O20   O     O_2   0.933696 0.650599 0.955672 -0.603377
O21   O     O_R   0.796808 0.776884 0.000456 -0.757794
O22   O     O_R   0.683230 0.614620 0.500000 -0.629521
O23   O     O_R   0.316770 0.385380 0.500000 -0.634365
O24   O     O_R   0.500030 0.614650 0.428760 -0.614885
O25   O     O_R   0.499970 0.385350 0.571240 -0.604534
O26   O     O_R   0.499970 0.614650 0.571240 -0.614892
O27   O     O_R   0.500030 0.385350 0.428760 -0.604599
O28   O     O_2   0.290094 0.484928 0.204159 -0.519219
Zn1   Zn    Zn3+2 0.500000 0.653120 0.500000 0.965004
Zn2   Zn    Zn3+2 0.500000 0.346880 0.500000 0.973376

loop_
_geom_bond_atom_site_label_1
_geom_bond_atom_site_label_2
_ccdc_geom_bond_type
C2    C35   A    
C40   C47   S    
C34   C56   A    
C23   C45   A    
C17   O25   A    
C50   O11   D    
O24   Zn1   S    
C58   H17   S    
C54   H14   S    
C53   C59   A    
O12   Zn2   S    
C53   C54   A    
C30   H27   S    
C28   C29   A    
C24   C26   A    
C5    C11   A    
C1    O23   A    
C52   O17   S    
C4    C41   A    
C47   O6    S    
C57   H16   S    
C59   H18   S    
O1    Zn1   S    
C52   C69   S    
C52   O16   D    
C3    C38   A    
C22   C25   A    
C45   C67   A    
O27   Zn2   S    
C32   N2    A    
C11   H32   S    
C16   O24   A    
C35   O3    S    
N3    Zn1   S    
C2    C34   A    
N4    Zn2   S    
H10   O13   S    
H9    O10   S    
C27   C30   A    
C41   C43   A    
C23   C70   A    
H8    O8    S    
C42   C44   A    
C22   H5    S    
C31   O28   S    
C16   O27   A    
C37   H28   S    
C44   N1    S    
C61   H19   S    
C28   H12   S    
C50   O13   S    
O25   Zn2   S    
O22   Zn1   S    
C24   H6    S    
C27   N4    A    
C58   C59   A    
C46   N2    S    
C21   H4    S    
C8    C18   A    
H26   O21   S    
H11   O15   S    
C60   C61   A    
C31   N1    A    
C55   H15   S    
H7    O6    S    
C5    C9    A    
C62   C63   A    
O23   Zn2   S    
H25   O19   S    
C4    C39   A    
C28   N3    A    
C51   O14   D    
C19   C68   S    
C51   C67   S    
C15   H31   S    
C13   C15   A    
C68   O21   S    
C33   C70   A    
C1    O1    A    
C38   C60   S    
C4    C17   S    
C65   H24   S    
C49   O9    D    
C20   C22   A    
C60   C65   A    
C35   N2    A    
C7    C19   A    
C55   C57   A    
C30   N3    A    
C31   C45   A    
C1    C26   S    
C51   O15   S    
C66   O18   D    
C29   N4    A    
C36   C44   A    
C64   H22   S    
C68   O20   D    
C27   H1    S    
C48   O8    S    
C12   O12   A    
C7    C9    A    
C15   C70   A    
C21   C25   A    
C54   C55   A    
C33   N1    A    
C3    C40   A    
C5    C8    A    
C43   C50   S    
C14   H30   S    
C6    C7    A    
C12   O22   A    
C13   H2    S    
C10   C23   A    
C18   C66   S    
C66   O19   S    
C12   C25   S    
C64   C65   A    
C36   C38   A    
C18   C67   A    
C37   C39   A    
C6    C13   A    
C29   H23   S    
C57   C58   A    
C39   C53   S    
C20   C26   A    
O26   Zn1   S    
C47   O5    D    
C62   H20   S    
C40   C42   A    
C11   C14   A    
C41   C48   S    
C20   H3    S    
C36   H29   S    
C61   C62   A    
C2    C14   A    
C43   C46   A    
C19   C69   A    
C6    C10   A    
C42   C49   S    
C63   C64   A    
C49   O10   S    
C8    C10   A    
C56   C69   A    
C32   O2    S    
C21   C24   A    
C63   H21   S    
C33   O4    S    
H13   O17   S    
C37   C46   A    
C32   C56   A    
C3    C16   S    
C9    C34   A    
C48   O7    D    
C17   O26   A    
