data_mof_unit_54040.cif
_audit_creation_date              2012-10-26T20:14:30-0400
_audit_creation_method            fapswitch 2.2
_symmetry_space_group_name_H-M    P1
_symmetry_Int_Tables_number       1
_space_group_crystal_system       triclinic
_cell_length_a                    7.773067
_cell_length_b                    9.094769
_cell_length_c                    17.402406
_cell_angle_alpha                 89.986531
_cell_angle_beta                  86.590442
_cell_angle_gamma                 89.997625
_cell_volume                      1228.07234467

loop_
_atom_site_label
_atom_site_type_symbol
_atom_type_description
_atom_site_fract_x
_atom_site_fract_y
_atom_site_fract_z
_atom_type_partial_charge
C1    C     C_R   0.499997 0.780006 0.500019 0.534906
C2    C     C_R   0.378666 0.545974 0.226609 0.255308
C3    C     C_R   0.602609 0.587360 0.852009 -0.094125
C4    C     C_R   0.385978 0.545680 0.146637 -0.088455
C5    C     C_R   0.444632 0.565525 0.893252 -0.004903
C6    C     C_R   0.542737 0.521929 0.104230 -0.002173
C7    C     C_R   0.297857 0.529495 0.854666 -0.133460
C8    C     C_R   0.691644 0.492216 0.143051 -0.136173
C9    C     C_R   0.310362 0.507991 0.775485 -0.182901
C10   C     C_R   0.684412 0.486474 0.223084 -0.183420
C11   C     C_2   0.431275 0.577261 0.977037 -0.135989
C12   C     C_R   0.500001 0.219976 0.500017 0.552894
C13   C     C_2   0.554696 0.522473 0.019580 -0.130220
C14   C     C_3   0.795416 0.745837 0.720385 -0.007472
C15   C     C_3   0.964136 0.772064 0.673543 -0.335270
C16   C     C_3   0.198436 0.726356 0.272118 -0.008530
C17   C     C_3   0.032571 0.758087 0.320078 -0.334761
C18   C     C_1   0.499998 0.934609 0.500035 -0.065678
C19   C     C_1   0.500004 0.065332 0.500033 -0.056689
C20   C     C_R   0.478924 0.505659 0.650169 0.548222
C21   C     C_R   0.520844 0.503222 0.349716 0.547769
C22   C     C_R   0.469270 0.525777 0.733798 0.011205
C23   C     C_R   0.528140 0.511842 0.265516 0.009200
C24   C     C_R   0.615592 0.570791 0.772338 0.255372
Cu1   Cu    Cu3+1 0.330920 0.500000 0.500000 1.017823
Cu2   Cu    Cu3+1 0.669080 0.500000 0.500000 1.017222
H1    H     H_    0.174744 0.513698 0.886164 0.121619
H2    H     H_    0.688685 0.791389 0.687491 0.131145
H3    H     H_    0.962047 0.715049 0.617246 0.187174
H4    H     H_    0.982339 0.891673 0.663127 0.098325
H5    H     H_    0.073900 0.730113 0.705182 0.153039
H6    H     H_    0.187844 0.776617 0.214205 0.116198
H7    H     H_    0.306914 0.778890 0.301087 0.129705
H8    H     H_    0.039622 0.710504 0.378536 0.186815
H9    H     H_    0.013429 0.878733 0.325398 0.097054
H10   H     H_    0.920911 0.709852 0.292169 0.153990
H11   H     H_    0.813645 0.472318 0.111344 0.117885
H12   H     H_    0.266610 0.562642 0.119232 0.108467
H13   H     H_    0.716000 0.619193 0.881288 0.110368
H14   H     H_    0.800768 0.460837 0.251671 0.160855
H15   H     H_    0.195803 0.476484 0.746995 0.161663
H16   H     H_    0.669056 0.473581 0.991054 0.121117
H17   H     H_    0.314099 0.625143 0.002745 0.112007
H18   H     H_    0.801003 0.805973 0.775940 0.116868
N1    N     N_1   0.923170 0.500000 0.500010 -0.091132
N2    N     N_1   0.076830 0.500000 0.499990 -0.091092
O1    O     O_R   0.357240 0.711600 0.500000 -0.513135
O2    O     O_3   0.222031 0.572688 0.266115 -0.544119
O3    O     O_R   0.642760 0.288400 0.500000 -0.494190
O4    O     O_R   0.642760 0.711600 0.500000 -0.513265
O5    O     O_R   0.357240 0.288400 0.500000 -0.493697
O6    O     O_R   0.340660 0.500000 0.613590 -0.523688
O7    O     O_R   0.659340 0.500000 0.386410 -0.522952
O8    O     O_R   0.626230 0.500000 0.613600 -0.451571
O9    O     O_R   0.373770 0.500000 0.386400 -0.449759
O10   O     O_3   0.773411 0.593396 0.733084 -0.545396

loop_
_geom_bond_atom_site_label_1
_geom_bond_atom_site_label_2
_ccdc_geom_bond_type
C14   O10   S    
Cu1   O5    S    
C15   H5    S    
C17   H10   S    
C16   H7    S    
C24   O10   S    
C1    O4    A    
Cu1   O1    S    
C2    C4    A    
C2    O2    S    
C16   O2    S    
Cu2   O4    S    
C12   O3    A    
C1    C18   S    
Cu1   O6    S    
C3    H13   S    
C20   O6    A    
N1    N2    T    
C6    C13   S    
C21   O7    A    
C11   C13   D    
C3    C24   A    
Cu2   O8    S    
C12   C19   S    
C20   O8    A    
C13   H16   S    
C4    H12   S    
C15   H3    S    
C5    C7    A    
C21   C23   S    
C5    C11   S    
C10   C23   A    
C22   C24   A    
C11   H17   S    
C4    C6    A    
C16   H6    S    
C17   H8    S    
Cu2   O7    S    
C7    C9    A    
C12   O5    A    
C7    H1    S    
C15   H4    S    
C14   H18   S    
C9    C22   A    
C8    H11   S    
Cu2   O3    S    
C2    C23   A    
C21   O9    A    
C14   C15   S    
C18   C19   T    
C10   H14   S    
C6    C8    A    
C17   H9    S    
Cu2   N1    S    
C14   H2    S    
Cu1   Cu2   S    
C9    H15   S    
Cu1   N2    S    
C8    C10   A    
C1    O1    A    
Cu1   O9    S    
C20   C22   S    
C16   C17   S    
C3    C5    A    
