data_mof_unit_50633.cif
_audit_creation_date              2012-12-10T18:43:07-0500
_audit_creation_method            fapswitch 2.2
_symmetry_space_group_name_H-M    P1
_symmetry_Int_Tables_number       1
_space_group_crystal_system       triclinic
_cell_length_a                    10.945013
_cell_length_b                    9.967527
_cell_length_c                    10.727691
_cell_angle_alpha                 90.009117
_cell_angle_beta                  93.328694
_cell_angle_gamma                 90.006399
_cell_volume                      1168.35982875

loop_
_atom_site_label
_atom_site_type_symbol
_atom_type_description
_atom_site_fract_x
_atom_site_fract_y
_atom_site_fract_z
_atom_type_partial_charge
C1    C     C_R   0.260259 0.501702 0.502782 0.874674
C2    C     C_R   0.739661 0.501735 0.496679 0.874454
C3    C     C_R   0.497475 0.499946 0.262803 0.927144
C4    C     C_R   0.502661 0.499969 0.737205 0.928049
C5    C     C_2   0.494851 0.388205 0.933038 -0.172736
C6    C     C_2   0.507101 0.388344 0.067096 -0.172920
C7    C     C_2   0.515055 0.500175 0.869566 -0.334056
C8    C     C_2   0.485527 0.500055 0.130442 -0.333553
C9    C     C_R   0.061404 0.389153 0.511698 0.076798
C10   C     C_R   0.938141 0.389322 0.485065 0.077468
C11   C     C_R   0.872242 0.509702 0.492649 -0.185015
C12   C     C_R   0.127519 0.509583 0.505314 -0.185033
C13   C     C_R   0.935592 0.636231 0.500995 0.054117
C14   C     C_R   0.064252 0.636145 0.496575 0.053880
C15   C     C_R   0.560182 0.070343 0.595793 0.069689
C16   C     C_R   0.439942 0.070321 0.404106 0.068270
C17   C     C_R   0.545067 0.927503 0.601885 0.147810
C18   C     C_R   0.455054 0.927475 0.398062 0.148544
H1    H     H_    0.469895 0.294466 0.886935 0.162700
H2    H     H_    0.532978 0.294960 0.113328 0.162422
H3    H     H_    0.544954 0.593196 0.914249 0.150751
H4    H     H_    0.454837 0.592719 0.085671 0.150524
N1    N     N_R   0.500000 0.857200 0.500000 -0.105806
N2    N     N_R   0.500000 0.142810 0.500000 -0.138291
O1    O     O_R   0.316770 0.614620 0.499990 -0.625651
O2    O     O_R   0.683230 0.614620 0.500010 -0.625719
O3    O     O_R   0.316800 0.385290 0.500000 -0.649466
O4    O     O_R   0.683200 0.385290 0.500000 -0.649406
O5    O     O_R   0.500000 0.614630 0.319080 -0.602668
O6    O     O_R   0.500000 0.614630 0.680920 -0.602507
O7    O     O_R   0.500030 0.385300 0.319080 -0.641142
O8    O     O_R   0.499970 0.385300 0.680920 -0.640872
Zn1   Zn    Zn3+2 0.500000 0.653120 0.500000 0.938155
Zn2   Zn    Zn3+2 0.500000 0.346880 0.500000 0.898935
N3    N     N_3   0.115083 0.263831 0.550987 -0.455324
H5    H     H_    0.165695 0.223567 0.480955 0.233170
H6    H     H_    0.168670 0.277137 0.633993 0.204761
N4    N     N_3   0.884131 0.264416 0.444856 -0.455068
H7    H     H_    0.834186 0.223237 0.514968 0.233350
H8    H     H_    0.829747 0.278693 0.362516 0.204021
C19   C     C_3   0.869700 0.773328 0.503238 -0.348562
C20   C     C_3   0.827635 0.816354 0.369150 -0.312496
C21   C     C_3   0.807553 0.966825 0.358623 -0.934766
H9    H     H_    0.739217 0.000367 0.424201 0.269459
H10   H     H_    0.895966 0.018896 0.379182 0.278254
H11   H     H_    0.773463 0.992704 0.262111 0.251897
H12   H     H_    0.898144 0.788224 0.303260 0.205726
H13   H     H_    0.741679 0.764688 0.337390 0.257062
H14   H     H_    0.796817 0.779138 0.569342 0.199694
H15   H     H_    0.925536 0.852383 0.550727 0.183126
C22   C     C_3   0.130176 0.773166 0.493949 -0.348031
C23   C     C_3   0.171345 0.817170 0.628053 -0.312579
C24   C     C_3   0.190102 0.967842 0.638136 -0.935994
H16   H     H_    0.258544 0.001767 0.572837 0.269908
H17   H     H_    0.101327 0.018909 0.616907 0.278529
H18   H     H_    0.223460 0.994448 0.734711 0.252113
H19   H     H_    0.100833 0.788594 0.693785 0.205870
H20   H     H_    0.257642 0.766572 0.660388 0.257163
H21   H     H_    0.203566 0.778421 0.428395 0.199531
H22   H     H_    0.074549 0.851741 0.445449 0.182631
C25   C     C_3   0.639657 0.141383 0.696994 -0.373031
C26   C     C_3   0.767149 0.079006 0.727275 -0.448964
C27   C     C_3   0.855854 0.180122 0.790535 -0.869088
H23   H     H_    0.868731 0.268488 0.729807 0.264907
H24   H     H_    0.820369 0.214793 0.879990 0.262276
H25   H     H_    0.946310 0.131769 0.810457 0.255218
H26   H     H_    0.760826 0.995221 0.794151 0.222573
H27   H     H_    0.806484 0.040384 0.641379 0.229878
H28   H     H_    0.657783 0.243143 0.666136 0.282834
H29   H     H_    0.589771 0.146900 0.783799 0.177814
C28   C     C_3   0.361289 0.141561 0.302395 -0.372739
C29   C     C_3   0.234283 0.078949 0.269884 -0.450635
C30   C     C_3   0.146251 0.180153 0.205778 -0.868714
H30   H     H_    0.132234 0.268175 0.266619 0.264664
H31   H     H_    0.183048 0.215407 0.117137 0.262403
H32   H     H_    0.056133 0.131629 0.184208 0.255189
H33   H     H_    0.241755 0.995661 0.202654 0.222975
H34   H     H_    0.193724 0.039732 0.354901 0.230272
H35   H     H_    0.342311 0.242937 0.333829 0.282503
H36   H     H_    0.412321 0.147996 0.216384 0.179193
N5    N     N_3   0.573004 0.855538 0.715224 -0.411186
H37   H     H_    0.663202 0.821789 0.717833 0.166003
H38   H     H_    0.556214 0.913606 0.793462 0.158921
N6    N     N_3   0.427828 0.855575 0.284544 -0.410920
H39   H     H_    0.337435 0.822386 0.280937 0.165458
H40   H     H_    0.445891 0.913476 0.206571 0.159208

loop_
_geom_bond_atom_site_label_1
_geom_bond_atom_site_label_2
_ccdc_geom_bond_type
C25   H29   S    
C27   H24   S    
C30   H30   S    
N3    H5    S    
C13   C19   S    
N5    H37   S    
C24   H16   S    
C1    C12   S    
C17   N1    A    
C26   H26   S    
N3    H6    S    
N6    H40   S    
N4    H7    S    
O5    Zn1   S    
C19   C20   S    
C3    O5    A    
C29   H34   S    
N5    H38   S    
N1    Zn1   S    
C18   N6    S    
C9    C10   A    
C27   H25   S    
O4    Zn2   S    
C16   N2    A    
C13   C14   A    
C1    O1    A    
C30   H31   S    
C16   C28   S    
C4    C7    S    
C2    C11   S    
C19   H14   S    
C28   H36   S    
C21   H11   S    
C24   H17   S    
O3    Zn2   S    
C18   N1    A    
N6    H39   S    
C3    C8    S    
C23   H19   S    
C5    C7    D    
C6    C8    D    
C7    H3    S    
N2    Zn2   S    
C28   H35   S    
C22   C23   S    
O8    Zn2   S    
C21   H9    S    
C29   H33   S    
O2    Zn1   S    
C8    H4    S    
C14   C22   S    
C26   C27   S    
C15   C25   S    
O7    Zn2   S    
C2    O2    A    
C20   H13   S    
C3    O7    A    
C21   H10   S    
C4    O8    A    
C23   H20   S    
C15   N2    A    
C12   C14   A    
C30   H32   S    
C22   H21   S    
C20   C21   S    
C19   H15   S    
C23   C24   S    
C9    N3    S    
C24   H18   S    
C25   H28   S    
C15   C17   A    
O6    Zn1   S    
C29   C30   S    
C5    H1    S    
C6    H2    S    
C26   H27   S    
C10   N4    S    
C28   C29   S    
N4    H8    S    
C11   C13   A    
C5    C6    S    
C17   N5    S    
C20   H12   S    
C25   C26   S    
C9    C12   A    
C10   C11   A    
C27   H23   S    
C16   C18   A    
C1    O3    A    
C2    O4    A    
C22   H22   S    
C4    O6    A    
O1    Zn1   S    
