data_mof_unit_49704.cif
_audit_creation_date              2012-12-11T17:05:34-0500
_audit_creation_method            fapswitch 2.2
_symmetry_space_group_name_H-M    P1
_symmetry_Int_Tables_number       1
_space_group_crystal_system       triclinic
_cell_length_a                    6.959856
_cell_length_b                    14.525697
_cell_length_c                    16.01697
_cell_angle_alpha                 90.228959
_cell_angle_beta                  89.952889
_cell_angle_gamma                 89.970371
_cell_volume                      1619.25006731

loop_
_atom_site_label
_atom_site_type_symbol
_atom_type_description
_atom_site_fract_x
_atom_site_fract_y
_atom_site_fract_z
_atom_type_partial_charge
O1    O     O_R   0.494380 0.415640 0.412830 -0.536000
O2    O     O_R   0.823960 0.405540 0.586560 -0.544059
O3    O     O_R   0.994270 0.584360 0.587170 -0.535645
C1    C     C_R   0.655183 0.383426 0.615147 0.692574
O4    O     O_R   0.824090 0.404620 0.413450 -0.542695
O5    O     O_R   0.994400 0.583430 0.412820 -0.536498
C2    C     C_R   0.655416 0.382421 0.384524 0.696411
O6    O     O_R   0.494250 0.416570 0.587180 -0.536210
O7    O     O_3   0.660800 0.558670 0.500000 -0.373721
V1    V     V_3+5 0.935650 0.489120 0.500000 1.385501
O8    O     O_R   0.324110 0.594460 0.413440 -0.539596
C3    C     C_R   0.155093 0.616660 0.384803 0.701655
O9    O     O_R   0.323980 0.595380 0.586550 -0.549801
C4    C     C_R   0.154242 0.619298 0.614086 0.678749
V2    V     V_3+5 0.435660 0.510880 0.500000 1.377934
O10   O     O_3   0.160640 0.441330 0.500000 -0.369486
C5    C     C_3   0.927064 0.721879 0.699874 0.225227
H1    H     H_    0.848029 0.659499 0.721445 0.056450
C6    C     C_3   0.916304 0.792069 0.773589 -0.319377
H2    H     H_    0.823963 0.762432 0.823545 0.110081
H3    H     H_    0.847108 0.857953 0.756323 0.145655
H4    H     H_    0.221772 0.808157 0.604788 0.144467
H5    H     H_    0.188094 0.914285 0.713236 0.114281
C7    C     C_3   0.264113 0.776928 0.665174 -0.316076
C8    C     C_3   0.217311 0.648363 0.766500 -0.406525
C9    C     C_3   0.140296 0.690606 0.683924 0.085950
H6    H     H_    0.368862 0.625560 0.758108 0.152114
H7    H     H_    0.132142 0.586175 0.782909 0.124470
C10   C     C_3   0.120049 0.811689 0.809478 0.078359
C11   C     C_3   0.248031 0.848593 0.737251 -0.327541
C12   C     C_3   0.206822 0.719120 0.839388 -0.335938
H8    H     H_    0.117877 0.690506 0.890877 0.127038
H9    H     H_    0.353685 0.730742 0.864765 0.149352
H10   H     H_    0.416924 0.756216 0.658415 0.145821
H11   H     H_    0.394785 0.864186 0.760969 0.145271
C13   C     C_R   0.274745 0.750974 0.188032 0.098776
C14   C     C_R   0.118296 0.810952 0.179777 -0.112608
C15   C     C_R   0.965920 0.800912 0.236969 -0.180382
H12   H     H_    0.842742 0.845951 0.233369 0.130765
C16   C     C_R   0.977514 0.737434 0.303188 -0.178479
H13   H     H_    0.861869 0.734657 0.348212 0.132418
C17   C     C_R   0.142428 0.682555 0.314502 -0.111331
C18   C     C_R   0.286602 0.688454 0.253728 0.097088
C19   C     C_3   0.496303 0.704954 0.264438 -0.413822
C20   C     C_3   0.483479 0.772657 0.192609 -0.396262
H14   H     H_    0.583242 0.642832 0.249418 0.171725
H15   H     H_    0.529234 0.738359 0.325312 0.170370
H16   H     H_    0.562362 0.749519 0.135908 0.172080
H17   H     H_    0.509759 0.845245 0.211668 0.166987
C21   C     C_R   0.493464 0.316420 0.741499 0.095139
C22   C     C_R   0.647499 0.317283 0.685154 -0.111418
C23   C     C_R   0.798857 0.254896 0.699431 -0.180407
H18   H     H_    0.921114 0.253168 0.657845 0.132372
C24   C     C_R   0.787608 0.189559 0.763958 -0.182372
H19   H     H_    0.902158 0.139772 0.770423 0.124365
C25   C     C_R   0.624366 0.184504 0.815880 -0.110351
C26   C     C_R   0.481921 0.251518 0.805123 0.101451
C27   C     C_3   0.270958 0.239890 0.793372 -0.407470
C28   C     C_3   0.283438 0.311099 0.724372 -0.397648
H20   H     H_    0.187479 0.263919 0.848500 0.174234
H21   H     H_    0.234039 0.169873 0.770239 0.163609
H22   H     H_    0.208109 0.376516 0.739788 0.163977
H23   H     H_    0.252832 0.282642 0.661249 0.170947
C29   C     C_R   0.491068 0.251497 0.309391 0.100868
C30   C     C_R   0.647492 0.311522 0.317591 -0.112228
C31   C     C_R   0.799890 0.300695 0.260445 -0.179131
H24   H     H_    0.923113 0.345674 0.263989 0.130820
C32   C     C_R   0.788261 0.236497 0.194308 -0.180042
C33   C     C_R   0.623226 0.181667 0.182936 -0.110576
C34   C     C_R   0.479148 0.188284 0.243758 0.098083
C35   C     C_3   0.269393 0.204670 0.233171 -0.414785
C36   C     C_3   0.282287 0.273120 0.304918 -0.396409
H25   H     H_    0.182648 0.142699 0.248316 0.171924
H26   H     H_    0.236229 0.237453 0.172281 0.170494
H27   H     H_    0.203637 0.250559 0.361692 0.172504
H28   H     H_    0.255809 0.345515 0.285795 0.166896
O11   O     O_R   0.771490 0.080820 0.910070 -0.539780
O12   O     O_R   0.441590 0.092730 0.083780 -0.538758
O13   O     O_R   0.271350 0.913900 0.084390 -0.535774
C37   C     C_R   0.610540 0.115132 0.112546 0.694959
O14   O     O_R   0.441780 0.091820 0.910670 -0.539752
O15   O     O_R   0.271540 0.912980 0.910040 -0.540124
C38   C     C_R   0.610800 0.113750 0.881910 0.692105
O16   O     O_R   0.771300 0.081740 0.084420 -0.539071
O17   O     O_3   0.604960 0.938700 0.997240 -0.370374
V3    V     V_3+5 0.330090 0.008230 0.997220 1.386048
O18   O     O_R   0.941820 0.901930 0.910640 -0.545578
C39   C     C_R   0.110505 0.880595 0.881077 0.663562
O19   O     O_R   0.941630 0.902840 0.083750 -0.541915
C40   C     C_R   0.110336 0.881020 0.112721 0.697171
V4    V     V_3+5 0.830090 0.986410 0.997190 1.378146
O20   O     O_3   0.105080 0.055990 0.997200 -0.367773
N1    N     N_2   0.832573 0.752268 0.622823 -0.510585
H29   H     H_    0.720010 0.711472 0.603195 0.264738
C41   C     C_3   0.812372 0.848316 0.600289 -0.593537
H30   H     H_    0.789940 0.853373 0.531851 0.196133
H31   H     H_    0.942024 0.888554 0.616305 0.204703
H32   H     H_    0.684974 0.878507 0.631976 0.184990
H33   H     H_    0.904007 0.233133 0.149354 0.130100

loop_
_geom_bond_atom_site_label_1
_geom_bond_atom_site_label_2
_ccdc_geom_bond_type
C8    C12   S    
C31   C32   A    
O18   C39   A    
N1    H29   S    
O18   V4    S    
C41   H30   S    
C37   O16   A    
O17   V4    S    
C41   H32   S    
O17   V3    S    
C19   C20   S    
C8    H7    S    
C14   C15   A    
C14   C40   S    
C5    C9    S    
C13   C14   A    
C6    H3    S    
C7    C9    S    
O5    C3    A    
C15   H12   S    
O12   C37   A    
O11   C38   A    
C27   H20   S    
V2    O10   S    
C25   C26   A    
O13   C40   A    
C3    C17   S    
O8    V2    S    
C6    H2    S    
C19   H14   S    
C32   C33   A    
C10   C39   S    
C12   H9    S    
C34   C35   S    
O1    V2    S    
O16   V4    S    
C29   C34   A    
O19   V4    S    
O7    V1    S    
O14   V3    S    
C19   H15   S    
C1    O6    A    
O12   V3    S    
C27   H21   S    
C16   C17   A    
C31   H24   S    
N1    C41   S    
O9    C4    A    
C36   H27   S    
O14   C38   A    
C23   C24   A    
C21   C22   A    
C24   C25   A    
C1    C22   S    
C22   C23   A    
H5    C11   S    
V4    O20   S    
O4    C2    A    
C27   C28   S    
O15   V3    S    
C7    H10   S    
O2    C1    A    
C18   C19   S    
C10   C11   S    
C2    C30   S    
C12   H8    S    
C20   H17   S    
C5    H1    S    
C13   C20   S    
C4    C9    S    
O3    C4    A    
C11   H11   S    
C16   H13   S    
O6    V2    S    
O9    V2    S    
H4    C7    S    
C5    N1    S    
C17   C18   A    
C21   C28   S    
C6    C10   S    
C23   H18   S    
C25   C38   S    
C35   H25   S    
C20   H16   S    
C24   H19   S    
O11   V4    S    
C28   H22   S    
O1    C2    A    
C21   C26   A    
C13   C18   A    
O5    V1    S    
C35   H26   S    
O8    C3    A    
C41   H31   S    
C8    H6    S    
C28   H23   S    
C29   C30   A    
C8    C9    S    
C32   H33   S    
C35   C36   S    
C10   C12   S    
O3    V1    S    
V3    O20   S    
C15   C16   A    
C26   C27   S    
C36   H28   S    
O15   C39   A    
C5    C6    S    
C29   C36   S    
O7    V2    S    
C33   C34   A    
C7    C11   S    
O4    V1    S    
C30   C31   A    
C33   C37   S    
V1    O10   S    
O19   C40   A    
O13   V3    S    
O2    V1    S    
