data_mof_unit_8518.cif
_audit_creation_date              2012-12-10T17:01:34-0500
_audit_creation_method            fapswitch 2.2
_symmetry_space_group_name_H-M    P1
_symmetry_Int_Tables_number       1
_space_group_crystal_system       triclinic
_cell_length_a                    12.908661
_cell_length_b                    10.729622
_cell_length_c                    10.04383
_cell_angle_alpha                 90.078914
_cell_angle_beta                  97.3908
_cell_angle_gamma                 90.876947
_cell_volume                      1379.39409579

loop_
_atom_site_label
_atom_site_type_symbol
_atom_type_description
_atom_site_fract_x
_atom_site_fract_y
_atom_site_fract_z
_atom_type_partial_charge
C1    C     C_R   0.498210 0.262681 0.499442 0.907496
C2    C     C_2   0.490258 0.130762 0.497333 -0.324679
C3    C     C_2   0.572395 0.553659 0.937615 -0.250836
C4    C     C_R   0.298337 0.507781 0.473105 0.943755
C5    C     C_2   0.558849 0.576270 0.085821 0.622665
C6    C     C_R   0.503566 0.737279 0.500606 0.905332
C7    C     C_R   0.701895 0.498831 0.526991 0.891216
C8    C     C_R   0.814565 0.499333 0.544698 -0.173467
C9    C     C_R   0.185725 0.520864 0.454893 -0.382047
C10   C     C_R   0.019473 0.477793 0.322389 0.411452
C11   C     C_R   0.126252 0.499244 0.328475 0.323359
C12   C     C_R   0.029364 0.527823 0.561657 -0.064298
C13   C     C_R   0.136066 0.549355 0.567304 0.394172
C14   C     C_3   0.657845 0.763916 0.088139 -0.001786
C15   C     C_3   0.772507 0.732100 0.079939 -0.321571
C16   C     C_3   0.815297 0.804879 0.968074 -0.918289
C17   C     C_3   0.387428 0.343654 0.097771 0.179814
C18   C     C_3   0.375497 0.213544 0.034840 -0.370504
C19   C     C_3   0.269964 0.154020 0.050981 -0.974181
C20   C     C_3   0.844756 0.400342 0.857456 0.075283
C21   C     C_3   0.767757 0.297579 0.798548 -0.322939
C22   C     C_3   0.786348 0.174213 0.872126 -1.000833
C23   C     C_R   0.970665 0.496364 0.437758 -0.105703
C24   C     C_3   0.941757 0.307269 0.212470 0.057742
C25   C     C_3   0.021991 0.232063 0.148664 -0.309590
C26   C     C_3   0.999780 0.092556 0.156447 -1.006889
C27   C     C_3   0.199956 0.613168 0.171388 0.148683
C28   C     C_3   0.109209 0.676194 0.085639 -0.332172
C29   C     C_3   0.142288 0.805897 0.043816 -1.037660
C30   C     C_3   0.173579 0.733928 0.678633 0.065937
C31   C     C_3   0.277161 0.804196 0.714285 -0.306276
C32   C     C_3   0.261162 0.944569 0.721428 -1.003092
C33   C     C_R   0.863471 0.487158 0.429839 -0.274560
C34   C     C_R   0.873871 0.513037 0.671838 0.483135
C35   C     C_R   0.981000 0.533784 0.678512 -0.249170
C36   C     C_2   0.507565 0.933235 0.388672 -0.157322
C37   C     C_2   0.515701 0.868956 0.503049 -0.329027
C38   C     C_2   0.514025 0.067329 0.391251 -0.174204
H1    H     H_    0.817687 0.471806 0.332831 0.216415
H2    H     H_    0.612544 0.781815 0.988129 0.128385
H3    H     H_    0.820227 0.754609 0.177434 0.219972
H4    H     H_    0.780722 0.630870 0.061593 0.239915
H5    H     H_    0.770129 0.781114 0.869345 0.278545
H6    H     H_    0.897984 0.780215 0.964766 0.274378
H7    H     H_    0.810702 0.906577 0.986148 0.256559
H8    H     H_    0.330692 0.406661 0.040045 0.114417
H9    H     H_    0.368708 0.338204 0.201780 0.214644
H10   H     H_    0.383906 0.219813 0.926242 0.227617
H11   H     H_    0.438160 0.152796 0.083601 0.225062
H12   H     H_    0.642325 0.586861 0.899308 0.195445
H13   H     H_    0.260269 0.146927 0.159002 0.269799
H14   H     H_    0.265582 0.058559 0.008017 0.273581
H15   H     H_    0.205994 0.209935 0.997494 0.275977
H16   H     H_    0.831817 0.416714 0.962995 0.191460
H17   H     H_    0.926907 0.368997 0.860245 0.130950
H18   H     H_    0.686523 0.326704 0.806061 0.265039
H19   H     H_    0.776206 0.281964 0.691199 0.203396
H20   H     H_    0.868399 0.144712 0.871696 0.274938
H21   H     H_    0.733614 0.101198 0.820996 0.270488
H22   H     H_    0.768840 0.182945 0.976917 0.263342
H23   H     H_    0.429653 0.485896 0.884288 0.199037
H24   H     H_    0.863053 0.288600 0.157438 0.150761
H25   H     H_    0.938197 0.273533 0.317016 0.134250
H26   H     H_    0.020668 0.259505 0.041999 0.223088
H27   H     H_    0.101137 0.252342 0.202123 0.244149
H28   H     H_    0.012811 0.060741 0.262387 0.269393
H29   H     H_    0.053208 0.042345 0.098074 0.281437
H30   H     H_    0.918171 0.069930 0.113554 0.272464
H31   H     H_    0.265245 0.603755 0.110232 0.142504
H32   H     H_    0.230097 0.674888 0.257779 0.121942
H33   H     H_    0.084288 0.618736 0.994957 0.236223
H34   H     H_    0.026042 0.551038 0.775349 0.171243
H35   H     H_    0.041904 0.684982 0.143528 0.231091
H36   H     H_    0.161959 0.865959 0.133918 0.274639
H37   H     H_    0.077944 0.848692 0.976136 0.268190
H38   H     H_    0.211966 0.800431 0.990205 0.273828
H39   H     H_    0.120865 0.755070 0.754458 0.164411
H40   H     H_    0.136105 0.770144 0.579793 0.119583
H41   H     H_    0.317110 0.770731 0.812004 0.219721
H42   H     H_    0.327672 0.785376 0.635681 0.230290
H43   H     H_    0.230288 0.980834 0.620798 0.269053
H44   H     H_    0.336981 0.992120 0.755450 0.266855
H45   H     H_    0.496269 0.887641 0.291086 0.182125
H46   H     H_    0.205297 0.966217 0.793174 0.272520
H47   H     H_    0.534028 0.912049 0.601156 0.150046
H48   H     H_    0.537126 0.113984 0.303545 0.176149
H49   H     H_    0.462140 0.087054 0.583383 0.150693
H50   H     H_    0.657044 0.853890 0.142850 0.164900
N1    N     N_2   0.501130 0.501330 0.852280 -0.194344
N2    N     N_2   0.501160 0.501360 0.147950 0.006967
O1    O     O_R   0.499980 0.319060 0.613040 -0.626917
O2    O     O_3   0.490671 0.386090 0.093222 -0.615372
O3    O     O_3   0.826754 0.514567 0.788164 -0.647186
O4    O     O_3   0.963706 0.436738 0.203014 -0.648937
O5    O     O_3   0.171264 0.491806 0.210756 -0.627924
O6    O     O_3   0.191882 0.603770 0.680242 -0.619190
O7    O     O_R   0.500020 0.319100 0.386900 -0.614043
O8    O     O_R   0.346340 0.499960 0.594380 -0.566457
O9    O     O_R   0.346380 0.500000 0.368250 -0.642521
O10   O     O_R   0.499980 0.680900 0.613100 -0.635956
O11   O     O_R   0.500020 0.680940 0.386960 -0.586600
O12   O     O_R   0.653620 0.500000 0.631750 -0.585978
O13   O     O_R   0.653660 0.500040 0.405620 -0.590986
O14   O     O_3   0.610596 0.672544 0.162937 -0.637171
Zn1   Zn    Zn3+2 0.499980 0.499970 0.650990 0.951033
Zn2   Zn    Zn3+2 0.500020 0.500030 0.349010 0.991730

loop_
_geom_bond_atom_site_label_1
_geom_bond_atom_site_label_2
_ccdc_geom_bond_type
C20   O3    S    
C4    O8    A    
O1    Zn1   S    
C27   O5    S    
C34   O3    S    
C7    C8    S    
C29   H38   S    
C32   H43   S    
C12   C23   A    
O10   Zn1   S    
C33   H1    S    
O8    Zn1   S    
C38   H48   S    
C26   H29   S    
C37   H47   S    
C36   C37   D    
C34   C35   A    
C22   H22   S    
C30   C31   S    
C10   O4    S    
C36   H45   S    
C15   C16   S    
O12   Zn1   S    
C1    C2    S    
C6    O11   A    
C9    C13   A    
C30   O6    S    
C30   H39   S    
C14   O14   S    
C19   H14   S    
C23   C33   A    
C7    O12   A    
C16   H6    S    
C5    N2    D    
C27   H31   S    
C19   H15   S    
C5    O14   S    
C1    O1    A    
C7    O13   A    
C21   C22   S    
C17   O2    S    
C20   H17   S    
C28   H35   S    
C3    H12   S    
H23   N1    S    
C32   H46   S    
C13   O6    S    
C26   H28   S    
C31   H42   S    
C25   H27   S    
C17   H8    S    
C15   H3    S    
C20   H16   S    
C1    O7    A    
C22   H21   S    
C18   C19   S    
C29   H36   S    
C25   C26   S    
C25   H26   S    
C6    O10   A    
C21   H19   S    
C24   O4    S    
C2    C38   D    
N2    O2    S    
C31   C32   S    
C17   C18   S    
C6    C37   S    
C2    H49   S    
C8    C34   A    
C24   C25   S    
C12   C35   A    
C9    C11   A    
C16   H5    S    
N2    Zn2   S    
C27   H32   S    
O7    Zn2   S    
C35   H34   S    
C24   H25   S    
C28   H33   S    
C11   O5    S    
O11   Zn2   S    
O9    Zn2   S    
C28   C29   S    
C24   H24   S    
C17   H9    S    
C15   H4    S    
C3    C5    S    
C18   H10   S    
C16   H7    S    
C22   H20   S    
C21   H18   S    
C31   H41   S    
C29   H37   S    
C10   C23   A    
C32   H44   S    
C3    N1    D    
C26   H30   S    
C36   C38   S    
C14   H50   S    
O13   Zn2   S    
C8    C33   A    
C10   C11   A    
C14   H2    S    
C30   H40   S    
C19   H13   S    
C20   C21   S    
C4    O9    A    
N1    Zn1   S    
C27   C28   S    
C14   C15   S    
C12   C13   A    
C4    C9    S    
C18   H11   S    
