data_mof_unit_64903.cif
_audit_creation_date              2012-12-10T19:05:35-0500
_audit_creation_method            fapswitch 2.2
_symmetry_space_group_name_H-M    P1
_symmetry_Int_Tables_number       1
_space_group_crystal_system       triclinic
_cell_length_a                    10.522831
_cell_length_b                    13.077428
_cell_length_c                    13.623771
_cell_angle_alpha                 85.574167
_cell_angle_beta                  89.971184
_cell_angle_gamma                 92.20791
_cell_volume                      1867.79889259

loop_
_atom_site_label
_atom_site_type_symbol
_atom_type_description
_atom_site_fract_x
_atom_site_fract_y
_atom_site_fract_z
_atom_type_partial_charge
C1    C     C_R   0.498218 0.481112 0.685026 0.908137
C2    C     C_3   0.041907 0.597089 0.499905 0.452634
C3    C     C_3   0.040948 0.445684 0.581495 0.029574
C4    C     C_3   0.959052 0.554315 0.418505 0.029573
C5    C     C_3   0.122900 0.502681 0.499385 -0.279914
C6    C     C_3   0.877100 0.497318 0.500615 -0.279915
C7    C     C_3   0.040797 0.458679 0.417917 -0.000921
C8    C     C_3   0.959203 0.541320 0.582084 -0.000922
C9    C     C_1   0.506153 0.534008 0.211959 -0.086281
C10   C     C_1   0.493844 0.465992 0.788041 -0.086280
C11   C     C_2   0.512679 0.543841 0.020920 0.117715
C12   C     C_R   0.501782 0.518888 0.314974 0.908137
C13   C     C_2   0.487310 0.456160 0.979080 0.117716
C14   C     C_1   0.490154 0.457514 0.875413 0.056277
C15   C     C_1   0.509838 0.542487 0.124587 0.056278
C16   C     C_3   0.996212 0.230220 0.491142 0.137825
C17   C     C_3   0.959276 0.131043 0.551722 -0.736676
C18   C     C_3   0.003789 0.769779 0.508861 0.137822
C19   C     C_3   0.040725 0.868959 0.448285 -0.736675
C20   C     C_2   0.473303 0.034723 0.467215 0.025732
C21   C     C_2   0.526698 0.965276 0.532785 0.025732
C22   C     C_1   0.522695 0.854124 0.521708 0.202403
C23   C     C_1   0.477305 0.145876 0.478292 0.202403
C24   C     C_R   0.742725 0.498845 0.500475 0.981197
C25   C     C_R   0.257275 0.501154 0.499526 0.981197
C26   C     C_3   0.958093 0.402911 0.500096 0.452637
H1    H     H_    0.093214 0.255554 0.514496 0.157096
H2    H     H_    0.131417 0.902009 0.475914 0.261091
H3    H     H_    0.000556 0.213817 0.412490 0.184973
H4    H     H_    0.868586 0.097990 0.524093 0.261089
H5    H     H_    0.034948 0.074947 0.546053 0.204460
H6    H     H_    0.947517 0.146085 0.630278 0.288831
H7    H     H_    0.999444 0.786179 0.587513 0.184974
H8    H     H_    0.906788 0.744446 0.485505 0.157098
H9    H     H_    0.052478 0.853920 0.369727 0.288829
H10   H     H_    0.965055 0.925058 0.453958 0.204459
I1    I     I_    0.113296 0.362546 0.710063 -0.239647
I2    I     I_    0.886704 0.637453 0.289938 -0.239644
I3    I     I_    0.114934 0.400555 0.287280 -0.240964
I4    I     I_    0.885066 0.599444 0.712722 -0.240964
I5    I     I_    0.440687 0.313248 0.058964 -0.180657
I6    I     I_    0.559302 0.686753 0.941036 -0.180658
I7    I     I_    0.620446 0.012814 0.660300 -0.269238
I8    I     I_    0.379554 0.987186 0.339700 -0.269235
N1    N     N_1   0.479750 0.234530 0.484780 -0.072676
N2    N     N_1   0.520250 0.765470 0.515220 -0.072675
O1    O     O_R   0.492590 0.402510 0.634760 -0.600998
O2    O     O_3   0.097571 0.697270 0.496842 -0.566182
O3    O     O_R   0.507410 0.597490 0.365240 -0.600997
O4    O     O_R   0.505590 0.572960 0.644530 -0.594725
O5    O     O_R   0.494410 0.427040 0.355470 -0.594725
O6    O     O_R   0.679550 0.414790 0.495140 -0.565577
O7    O     O_R   0.320450 0.585210 0.504860 -0.565576
O8    O     O_R   0.692550 0.585240 0.504910 -0.626403
O9    O     O_R   0.307450 0.414760 0.495090 -0.626404
O10   O     O_3   0.902429 0.302730 0.503159 -0.566181
Zn1   Zn    Zn3+2 0.491320 0.386190 0.493470 1.052909
Zn2   Zn    Zn3+2 0.508680 0.613810 0.506530 1.052909

loop_
_geom_bond_atom_site_label_1
_geom_bond_atom_site_label_2
_ccdc_geom_bond_type
C24   O6    A    
C2    C4    S    
O7    Zn2   S    
C16   O10   S    
C23   N1    T    
O1    Zn1   S    
C11   C13   D    
C1    O4    A    
C2    O2    S    
C20   C23   S    
C6    C24   S    
C16   H1    S    
C13   I5    S    
C12   O3    A    
C9    C15   T    
C19   H9    S    
C13   C14   S    
N2    Zn2   S    
C19   H2    S    
C18   H8    S    
N1    Zn1   S    
C6    C26   S    
C7    C26   S    
C17   H4    S    
C4    C7    S    
C5    C25   S    
C22   N2    T    
C25   O7    A    
C18   C19   S    
C19   H10   S    
O9    Zn1   S    
O8    Zn2   S    
C17   H5    S    
C18   H7    S    
C2    C8    S    
C2    C5    S    
C9    C12   S    
C1    C10   S    
C26   O10   S    
C24   O8    A    
O6    Zn1   S    
O4    Zn2   S    
O5    Zn1   S    
C12   O5    A    
C20   C21   D    
C3    I1    S    
C11   I6    S    
C4    C6    S    
C3    C8    S    
C10   C14   T    
C5    C7    S    
C17   H6    S    
C7    I3    S    
C1    O1    A    
C6    C8    S    
C8    I4    S    
C20   I8    S    
C16   H3    S    
C21   C22   S    
C11   C15   S    
C3    C26   S    
C21   I7    S    
O3    Zn2   S    
C25   O9    A    
C4    I2    S    
C16   C17   S    
C3    C5    S    
C18   O2    S    
