data_mof_unit_66442.cif
_audit_creation_date              2012-12-10T18:49:01-0500
_audit_creation_method            fapswitch 2.2
_symmetry_space_group_name_H-M    P1
_symmetry_Int_Tables_number       1
_space_group_crystal_system       triclinic
_cell_length_a                    10.730209
_cell_length_b                    9.921034
_cell_length_c                    14.146744
_cell_angle_alpha                 90.000028
_cell_angle_beta                  91.511713
_cell_angle_gamma                 90.0
_cell_volume                      1505.4641998

loop_
_atom_site_label
_atom_site_type_symbol
_atom_type_description
_atom_site_fract_x
_atom_site_fract_y
_atom_site_fract_z
_atom_type_partial_charge
Br1   Br    Br    0.688122 0.165765 0.646789 -0.411411
Br2   Br    Br    0.311878 0.834235 0.353211 -0.411411
Br3   Br    Br    0.311878 0.165765 0.353211 -0.411411
Br4   Br    Br    0.688122 0.834235 0.646789 -0.411411
C1    C     C_R   0.260044 0.500000 0.499947 0.885259
C2    C     C_1   0.500082 0.500000 0.957366 0.046749
C3    C     C_R   0.063828 0.377102 0.500098 -0.146160
C4    C     C_R   0.936172 0.622898 0.499902 -0.146160
C5    C     C_R   0.936172 0.377102 0.499902 -0.146160
C6    C     C_R   0.063828 0.622897 0.500098 -0.146160
C7    C     C_R   0.872524 0.500000 0.499936 -0.038232
C8    C     C_R   0.127475 0.500000 0.500064 -0.038232
C9    C     C_R   0.577601 0.071731 0.560431 0.235127
C10   C     C_R   0.422399 0.928269 0.439569 0.235127
C11   C     C_R   0.422399 0.071731 0.439569 0.235127
C12   C     C_R   0.739956 0.500000 0.500053 0.885259
C13   C     C_R   0.577601 0.928269 0.560431 0.235128
C14   C     C_R   0.499777 0.500000 0.329290 0.906592
C15   C     C_R   0.500223 0.500000 0.670710 0.906592
C16   C     C_1   0.499722 0.500000 0.227802 -0.130725
C17   C     C_1   0.500278 0.500000 0.772198 -0.130725
C18   C     C_1   0.499763 0.500000 0.142534 0.036052
C19   C     C_1   0.500237 0.500000 0.857465 0.036052
C20   C     C_1   0.499918 0.500000 0.042634 0.046750
H1    H     H_    0.112102 0.281206 0.500310 0.194376
H2    H     H_    0.887898 0.718794 0.499690 0.194376
H3    H     H_    0.887898 0.281206 0.499690 0.194376
H4    H     H_    0.112102 0.718794 0.500310 0.194376
N1    N     N_R   0.500000 0.857200 0.500000 -0.161930
N2    N     N_R   0.500000 0.142800 0.500000 -0.161929
O1    O     O_R   0.316770 0.614620 0.499990 -0.594796
O2    O     O_R   0.683230 0.385380 0.500010 -0.594796
O3    O     O_R   0.683230 0.614620 0.500010 -0.594796
O4    O     O_R   0.316770 0.385380 0.499990 -0.594796
O5    O     O_R   0.500000 0.614690 0.373720 -0.565740
O6    O     O_R   0.500000 0.385310 0.626280 -0.565740
O7    O     O_R   0.500000 0.614690 0.626280 -0.565740
O8    O     O_R   0.500000 0.385310 0.373720 -0.565740
Zn1   Zn    Zn3+2 0.500000 0.653120 0.500000 1.033443
Zn2   Zn    Zn3+2 0.500000 0.346880 0.500000 1.033443

loop_
_geom_bond_atom_site_label_1
_geom_bond_atom_site_label_2
_ccdc_geom_bond_type
O5    Zn1   S    
C12   O3    A    
C12   O2    A    
C13   N1    A    
C14   O5    A    
C3    H1    S    
C9    C13   A    
C2    C20   T    
C1    O4    A    
N1    Zn1   S    
C17   C19   T    
C14   O8    A    
N2    Zn2   S    
O7    Zn1   S    
O8    Zn2   S    
C5    C7    A    
O3    Zn1   S    
C6    C8    A    
C1    C8    S    
C4    C7    A    
O4    Zn2   S    
C2    C19   S    
C15   C17   S    
O1    Zn1   S    
C14   C16   S    
C15   O6    A    
O2    Zn2   S    
C3    C8    A    
Br2   C10   S    
C18   C20   S    
Br1   C9    S    
Br4   C13   S    
C10   N1    A    
C9    N2    A    
O6    Zn2   S    
Br3   C11   S    
C5    H3    S    
C11   N2    A    
C4    C6    A    
C7    C12   S    
C6    H4    S    
C3    C5    A    
C10   C11   A    
C15   O7    A    
C4    H2    S    
C16   C18   T    
C1    O1    A    
