data_mof_unit_45866.cif
_audit_creation_date              2012-12-10T18:07:31-0500
_audit_creation_method            fapswitch 2.2
_symmetry_space_group_name_H-M    P1
_symmetry_Int_Tables_number       1
_space_group_crystal_system       triclinic
_cell_length_a                    11.54277
_cell_length_b                    12.600013
_cell_length_c                    13.129224
_cell_angle_alpha                 81.964401
_cell_angle_beta                  90.561279
_cell_angle_gamma                 102.460601
_cell_volume                      1845.80621739

loop_
_atom_site_label
_atom_site_type_symbol
_atom_type_description
_atom_site_fract_x
_atom_site_fract_y
_atom_site_fract_z
_atom_type_partial_charge
C1    C     C_R   0.488074 0.438366 0.691267 0.855182
C2    C     C_R   0.536145 0.600393 0.198640 -0.147370
C3    C     C_R   0.368632 0.315574 0.829506 -0.198008
C4    C     C_R   0.308542 0.313811 0.920615 -0.098303
C5    C     C_R   0.346986 0.394852 0.983134 0.106935
C6    C     C_R   0.461533 0.467573 0.963498 0.036804
C7    C     C_R   0.524581 0.465083 0.872119 0.037451
C8    C     C_R   0.515416 0.543634 0.029228 0.065227
C9    C     C_R   0.614516 0.629061 0.994564 0.041557
C10   C     C_R   0.674996 0.623147 0.904637 -0.237261
C11   C     C_R   0.638378 0.535155 0.850513 0.118697
C12   C     C_R   0.717802 0.500893 0.500127 0.882803
C13   C     C_R   0.483557 0.527773 0.132667 -0.286808
C14   C     C_R   0.618458 0.697569 0.159223 0.102224
C15   C     C_R   0.468697 0.398633 0.800601 -0.109013
C16   C     C_R   0.325818 0.088188 0.352692 0.067250
C17   C     C_R   0.632160 0.796803 0.634588 -0.010106
C18   C     C_R   0.641795 0.892719 0.677415 -0.252471
C19   C     C_R   0.579757 0.971398 0.635605 0.151778
C20   C     C_R   0.516680 0.957334 0.542624 -0.022477
C21   C     C_R   0.501615 0.853646 0.507846 0.212444
C22   C     C_R   0.464725 0.038353 0.484533 -0.029155
C23   C     C_R   0.515563 0.561772 0.308493 0.861161
C24   C     C_R   0.382542 0.009232 0.406002 0.126316
C25   C     C_R   0.362387 0.903424 0.380047 -0.228146
C26   C     C_R   0.424314 0.828581 0.427658 -0.207974
C27   C     C_R   0.497956 0.149433 0.495693 -0.019720
C28   C     C_R   0.355064 0.194612 0.375803 -0.016333
C29   C     C_R   0.282204 0.499137 0.499822 0.894546
C30   C     C_1   0.838790 0.502235 0.500579 -0.175379
C31   C     C_1   0.940848 0.501185 0.500448 0.020305
C32   C     C_1   0.059162 0.498901 0.499945 0.016949
C33   C     C_1   0.161210 0.497803 0.499636 -0.174372
C34   C     C_R   0.659027 0.711141 0.057055 0.125446
H1    H     H_    0.302334 0.878436 0.319872 0.191304
H2    H     H_    0.572176 0.180880 0.541003 0.169867
H3    H     H_    0.676028 0.734154 0.670169 0.141852
H4    H     H_    0.691246 0.902238 0.747271 0.167716
H5    H     H_    0.408866 0.750805 0.400679 0.210600
H6    H     H_    0.757944 0.679905 0.881369 0.147813
H7    H     H_    0.426370 0.451784 0.165535 0.173825
H8    H     H_    0.327210 0.262010 0.775514 0.180652
H9    H     H_    0.223603 0.257186 0.936361 0.173189
H10   H     H_    0.311663 0.256714 0.337481 0.151138
N1    N     N_R   0.440320 0.222190 0.444690 -0.120407
N2    N     N_R   0.559060 0.776980 0.554780 -0.127250
O1    O     O_R   0.471500 0.366730 0.627160 -0.594239
O2    O     O_R   0.509620 0.544830 0.662520 -0.609943
O3    O     O_R   0.646490 0.410960 0.482310 -0.598433
O4    O     O_R   0.684610 0.589050 0.517670 -0.626952
O5    O     O_R   0.490380 0.455170 0.337480 -0.605714
O6    O     O_R   0.528500 0.633270 0.372840 -0.652087
O7    O     O_R   0.315390 0.410950 0.482330 -0.608110
O8    O     O_R   0.353510 0.589040 0.517690 -0.616056
Zn1   Zn    Zn3+2 0.474550 0.381080 0.476390 0.963894
Zn2   Zn    Zn3+2 0.525450 0.618920 0.523610 0.929537
N3    N     N_3   0.670545 0.778290 0.222843 -0.408899
H11   H     H_    0.715661 0.741557 0.282454 0.206306
H12   H     H_    0.602977 0.808496 0.253526 0.209057
I1    I     I_    0.197775 0.056230 0.236992 -0.397581
I2    I     I_    0.560903 0.083693 0.739192 -0.392952
N4    N     N_3   0.749927 0.805685 0.020533 -0.415979
H13   H     H_    0.828114 0.780193 0.007234 0.187541
H14   H     H_    0.722877 0.844170 0.951392 0.190242
N5    N     N_3   0.258660 0.411704 0.051843 -0.460498
H15   H     H_    0.257731 0.360200 0.121646 0.196012
H16   H     H_    0.270517 0.494150 0.061816 0.200677
N6    N     N_3   0.723421 0.512745 0.781636 -0.450567
H17   H     H_    0.728396 0.566896 0.713361 0.196790
H18   H     H_    0.700238 0.432092 0.765427 0.187481

loop_
_geom_bond_atom_site_label_1
_geom_bond_atom_site_label_2
_ccdc_geom_bond_type
C16   C28   A    
C12   O4    A    
C21   C26   A    
C14   N3    S    
C1    O2    A    
C14   C34   A    
C6    C7    A    
C1    C15   S    
C4    H9    S    
C27   H2    S    
C9    C10   A    
C23   O5    A    
C19   C20   A    
C30   C31   T    
N5    H15   S    
O3    Zn1   S    
C32   C33   T    
C27   N1    A    
N4    H13   S    
C7    C15   A    
C17   C18   A    
C18   H4    S    
C24   C25   A    
C16   C24   A    
C17   H3    S    
C11   N6    S    
C7    C11   A    
C2    C13   A    
C23   O6    A    
C8    C13   A    
C26   H5    S    
C29   O7    A    
C25   H1    S    
C6    C8    A    
C22   C24   A    
O1    Zn1   S    
C25   C26   A    
C19   I2    S    
C9    C34   A    
C12   O3    A    
N3    H11   S    
C22   C27   A    
O7    Zn1   S    
C16   I1    S    
C5    C6    A    
C2    C14   A    
O8    Zn2   S    
C28   N1    A    
N3    H12   S    
C29   O8    A    
C3    C4    A    
C21   N2    A    
C29   C33   S    
C34   N4    S    
C3    H8    S    
C3    C15   A    
C17   N2    A    
N1    Zn1   S    
C8    C9    A    
C5    N5    S    
C18   C19   A    
C10   C11   A    
N2    Zn2   S    
C2    C23   S    
O2    Zn2   S    
N6    H18   S    
C13   H7    S    
C1    O1    A    
C10   H6    S    
N4    H14   S    
O5    Zn1   S    
C12   C30   S    
C20   C21   A    
N6    H17   S    
C28   H10   S    
C31   C32   S    
O4    Zn2   S    
O6    Zn2   S    
C20   C22   A    
C4    C5    A    
N5    H16   S    
