data_mof_unit_21023.cif
_audit_creation_date              2013-03-05T15:48:11-0500
_audit_creation_method            fapswitch 2.2
_symmetry_space_group_name_H-M    P1
_symmetry_Int_Tables_number       1
_space_group_crystal_system       triclinic
_cell_length_a                    21.024391
_cell_length_b                    7.130884
_cell_length_c                    14.064064
_cell_angle_alpha                 90.007053
_cell_angle_beta                  98.687652
_cell_angle_gamma                 89.991874
_cell_volume                      2084.32733221

loop_
_atom_site_label
_atom_site_type_symbol
_atom_site_description
_atom_site_fract_x
_atom_site_fract_y
_atom_site_fract_z
_atom_type_partial_charge
O1    O     O_R   0.447130 0.507140 0.597350 -0.599131
O2    O     O_R   0.552870 0.007140 0.402650 -0.599009
O3    O     O_R   0.578910 0.181280 0.586990 -0.590216
O4    O     O_R   0.421090 0.681280 0.413010 -0.590379
C1    C     C_R   0.604637 0.344417 0.606947 1.039829
C2    C     C_R   0.395364 0.844426 0.393050 1.039941
O5    O     O_R   0.449230 0.177860 0.608640 -0.586899
O6    O     O_R   0.550770 0.677860 0.391360 -0.587064
O7    O     O_R   0.422260 0.000770 0.424450 -0.570713
O8    O     O_R   0.577740 0.500770 0.575550 -0.570772
C3    C     C_R   0.432647 0.346681 0.633801 1.096792
C4    C     C_R   0.567352 0.846641 0.366195 1.097050
O9    O     O_3   0.491310 0.336980 0.439550 -0.282591
O10   O     O_3   0.508690 0.836980 0.560450 -0.282371
V1    V     V_3+5 0.501610 0.064760 0.511210 1.281068
V2    V     V_3+5 0.498390 0.564760 0.488790 1.280882
C5    C     C_R   0.619363 0.957669 0.129198 -0.171178
C6    C     C_R   0.380588 0.459878 0.870542 -0.171298
H1    H     H_    0.697808 0.960152 0.001594 0.184466
H2    H     H_    0.302171 0.463578 0.998144 0.184692
H3    H     H_    0.597937 0.002330 0.057794 0.185584
H4    H     H_    0.401984 0.505559 0.941794 0.185431
C7    C     C_R   0.607270 0.860222 0.289963 -0.372446
C8    C     C_R   0.392762 0.360464 0.710080 -0.372330
C9    C     C_R   0.919196 0.854487 0.301394 -0.243055
C10   C     C_R   0.080862 0.352880 0.698704 -0.243272
C11   C     C_R   0.884004 0.869161 0.377652 0.444478
C12   C     C_R   0.116037 0.366849 0.622410 0.444559
C13   C     C_R   0.816876 0.881369 0.357410 -0.238862
C14   C     C_R   0.183148 0.379759 0.642612 -0.239369
C15   C     C_R   0.783676 0.869238 0.262363 0.071843
C16   C     C_R   0.216360 0.368970 0.737694 0.071785
C17   C     C_R   0.820222 0.870858 0.184690 -0.058593
C18   C     C_R   0.179819 0.371312 0.815360 -0.058038
C19   C     C_R   0.714824 0.869942 0.242328 0.075888
C20   C     C_R   0.285213 0.370262 0.757721 0.075861
C21   C     C_R   0.685423 0.923689 0.149138 0.046676
C22   C     C_R   0.314558 0.425358 0.850726 0.047005
C23   C     C_R   0.721536 0.934246 0.074414 -0.222789
C24   C     C_R   0.278439 0.436689 0.925420 -0.222848
C25   C     C_R   0.786804 0.892191 0.089546 0.306454
C26   C     C_R   0.213220 0.393957 0.910443 0.305951
C27   C     C_R   0.673895 0.818527 0.310243 -0.180361
C28   C     C_R   0.326181 0.318169 0.689971 -0.180631
C29   C     C_R   0.580138 0.932790 0.199521 0.352142
C30   C     C_R   0.419826 0.434277 0.800285 0.352641
C31   C     C_R   0.888630 0.859808 0.205971 -0.208151
C32   C     C_R   0.111416 0.359584 0.794104 -0.208033
H5    H     H_    0.971256 0.846870 0.316051 0.167565
H6    H     H_    0.028813 0.344666 0.684074 0.167659
H7    H     H_    0.791151 0.909530 0.416634 0.163016
H8    H     H_    0.208844 0.407372 0.583308 0.163027
C33   C     C_1   0.166100 0.857266 0.169618 -0.127285
C34   C     C_1   0.833908 0.357238 0.830360 -0.127057
C35   C     C_1   0.218485 0.855070 0.220820 0.133880
C36   C     C_1   0.781522 0.355025 0.779158 0.133536
C37   C     C_1   0.280312 0.853527 0.280618 0.103770
C38   C     C_1   0.719694 0.353470 0.719364 0.103627
C39   C     C_1   0.332807 0.851069 0.331517 -0.202444
C40   C     C_1   0.667196 0.351025 0.668471 -0.202551
O11   O     O_R   0.922300 0.202240 0.924350 -0.563098
O12   O     O_R   0.077700 0.702240 0.075650 -0.563342
O13   O     O_R   0.050780 0.535130 0.891350 -0.600490
O14   O     O_R   0.949220 0.035130 0.108650 -0.600063
C41   C     C_R   0.069443 0.368283 0.868220 0.998857
C42   C     C_R   0.930589 0.868317 0.131823 0.998584
O15   O     O_R   0.921100 0.531560 0.912990 -0.551311
O16   O     O_R   0.078900 0.031560 0.087010 -0.551296
O17   O     O_R   0.947120 0.708470 0.097370 -0.573197
O18   O     O_R   0.052880 0.208470 0.902630 -0.572936
C43   C     C_R   0.896180 0.363495 0.892720 0.986426
C44   C     C_R   0.103827 0.863501 0.107262 0.985952
O19   O     O_3   0.008710 0.375800 0.060400 -0.274298
O20   O     O_3   0.991290 0.875800 0.939600 -0.274218
V3    V     V_3+5 0.998380 0.648080 0.988790 1.297156
V4    V     V_3+5 0.001620 0.148080 0.011210 1.297407
N1    N     N_R   0.512445 0.973683 0.176293 0.236292
O21   O     O_R   0.492679 0.104370 0.114196 -0.359528
O22   O     O_R   0.469937 0.866858 0.207651 -0.429543
N2    N     N_R   0.487475 0.475765 0.823349 0.236376
O23   O     O_R   0.507124 0.607349 0.884984 -0.359797
O24   O     O_R   0.530071 0.368715 0.792328 -0.429369
C45   C     C_2   0.697775 0.697327 0.394433 0.996410
O25   O     O_2   0.685473 0.735673 0.474469 -0.651239
O26   O     O_R   0.735264 0.539976 0.381606 -0.774921
H9    H     H_    0.749052 0.468897 0.443740 0.330703
C46   C     C_2   0.302399 0.195808 0.606203 0.996981
O27   O     O_2   0.314593 0.233314 0.526022 -0.651467
O28   O     O_R   0.265116 0.038331 0.619577 -0.774886
H10   H     H_    0.251394 0.966425 0.557681 0.330567
N3    N     N_R   0.916438 0.875550 0.475523 0.250972
O29   O     O_R   0.978974 0.870545 0.494212 -0.342835
O30   O     O_R   0.883776 0.884404 0.546998 -0.380103
N4    N     N_R   0.083597 0.371769 0.524520 0.250928
O31   O     O_R   0.021066 0.366266 0.505839 -0.342760
O32   O     O_R   0.116256 0.379686 0.453018 -0.380027
N5    N     N_R   0.815837 0.854425 0.006367 0.221663
O33   O     O_R   0.822371 0.679928 0.983457 -0.406432
O34   O     O_R   0.813046 0.980681 0.939193 -0.410398
N6    N     N_R   0.184269 0.356371 0.993744 0.221751
O35   O     O_R   0.187677 0.481960 0.061303 -0.410815
O36   O     O_R   0.177178 0.181912 0.016208 -0.406016

loop_
_geom_bond_atom_site_label_1
_geom_bond_atom_site_label_2
_geom_bond_distance
_ccdc_geom_bond_type
C14   C16   1.414077 A    
C46   O27   1.223246 D    
O13   C41   1.309063 A    
C7    C29   1.411377 A    
C11   C13   1.399682 A    
C27   C45   1.490482 S    
C33   C35   1.221569 T    
O1    C3    1.308488 A    
O2    C4    1.308573 A    
C2    O7    1.297050 A    
N5    O33   1.297785 A    
O15   V3    1.985857 S    
C23   C25   1.389211 A    
N1    O21   1.301669 A    
O5    C3    1.316460 A    
C4    C7    1.461189 S    
O20   V4    2.182850 S    
C16   C20   1.432384 A    
C19   C21   1.414951 A    
C5    C29   1.391486 A    
C10   H6    1.084076 S    
H2    C24   1.085191 S    
C37   C39   1.221539 T    
C42   O17   1.305937 A    
C38   C40   1.221538 T    
C41   O18   1.305886 A    
C3    C8    1.461314 S    
C7    C27   1.418124 A    
C12   N4    1.441579 S    
C34   C43   1.462325 S    
C18   C26   1.422591 A    
C15   C17   1.427381 A    
C11   N3    1.441587 S    
C32   C41   1.465249 S    
C28   C46   1.490375 S    
C19   C27   1.426779 A    
C9    C31   1.398189 A    
C31   C42   1.465361 S    
O15   C43   1.321752 A    
C10   C32   1.398119 A    
O11   C43   1.322064 A    
C24   C26   1.389326 A    
O6    V2    2.048713 S    
C22   C24   1.388414 A    
O19   V3    2.183015 S    
C6    C30   1.391531 A    
N5    O34   1.300004 A    
N1    O22   1.301079 A    
O11   V4    1.951164 S    
C34   C36   1.221573 T    
O20   V3    1.762598 S    
N2    O24   1.301090 A    
N3    O29   1.301769 A    
O26   H9    1.013963 S    
C5    H3    1.084515 S    
O14   C42   1.308973 A    
O4    V2    1.985966 S    
C26   N6    1.424921 S    
N3    O30   1.301746 A    
C45   O25   1.223346 D    
O16   C44   1.321652 A    
N6    O36   1.297719 A    
O14   V4    2.048664 S    
O12   C44   1.322129 A    
O1    V2    2.039301 S    
C5    C21   1.395917 A    
N4    O32   1.301740 A    
O2    V1    2.039162 S    
H1    C23   1.085146 S    
O4    C2    1.295692 A    
C45   O26   1.398367 S    
C35   C37   1.437654 S    
O18   V4    2.043608 S    
C17   C31   1.426278 A    
O19   V4    1.762480 S    
C15   C19   1.432356 A    
O12   V3    1.951200 S    
C20   C28   1.426719 A    
C9    C11   1.395807 A    
C20   C22   1.414949 A    
O3    V1    1.986049 S    
C13   H7    1.078253 S    
C14   H8    1.078179 S    
C1    C40   1.461883 S    
C6    H4    1.084634 S    
C2    C39   1.461885 S    
N2    O23   1.301620 A    
O3    C1    1.295710 A    
O16   V4    1.985773 S    
C10   C12   1.395692 A    
C8    C30   1.411418 A    
C46   O28   1.398454 S    
C6    C22   1.395954 A    
C17   C25   1.422434 A    
C12   C14   1.399627 A    
C21   C23   1.388395 A    
O8    V2    1.966020 S    
C30   N2    1.440972 S    
O13   V3    2.048409 S    
C8    C28   1.418091 A    
O5    V1    2.048458 S    
N6    O35   1.299688 A    
C36   C38   1.437659 S    
O17   V3    2.043467 S    
C25   N5    1.424496 S    
O7    V1    1.966060 S    
N4    O31   1.301762 A    
C9    H5    1.084098 S    
C1    O8    1.297054 A    
C18   C32   1.426444 A    
C13   C15   1.414101 A    
O9    V2    1.763136 S    
O10   V1    1.763254 S    
C29   N1    1.441079 S    
O28   H10   1.013898 S    
C33   C44   1.462307 S    
O6    C4    1.316378 A    
C16   C18   1.427295 A    
