data_mof_unit_15391.cif
_audit_creation_date              2012-12-11T17:07:35-0500
_audit_creation_method            fapswitch 2.2
_symmetry_space_group_name_H-M    P1
_symmetry_Int_Tables_number       1
_space_group_crystal_system       triclinic
_cell_length_a                    6.955743
_cell_length_b                    14.486527
_cell_length_c                    16.095475
_cell_angle_alpha                 89.947156
_cell_angle_beta                  90.013838
_cell_angle_gamma                 89.985127
_cell_volume                      1621.8526448

loop_
_atom_site_label
_atom_site_type_symbol
_atom_type_description
_atom_site_fract_x
_atom_site_fract_y
_atom_site_fract_z
_atom_type_partial_charge
O1    O     O_R   0.505720 0.583900 0.413310 -0.537824
O2    O     O_R   0.175940 0.594920 0.586080 -0.525988
O3    O     O_R   0.005640 0.416100 0.586690 -0.539249
C1    C     C_R   0.344690 0.616981 0.614821 0.708369
O4    O     O_R   0.176000 0.594930 0.413930 -0.545336
O5    O     O_R   0.005700 0.416110 0.413310 -0.537995
C2    C     C_R   0.344705 0.617020 0.385220 0.705962
O6    O     O_R   0.505660 0.583890 0.586690 -0.538164
O7    O     O_3   0.339200 0.441330 0.500000 -0.368310
V1    V     V_3+5 0.064350 0.510880 0.500000 1.452064
O8    O     O_R   0.675980 0.405080 0.413920 -0.536000
C3    C     C_R   0.844779 0.385373 0.383382 0.682802
O9    O     O_R   0.675920 0.405070 0.586070 -0.539899
C4    C     C_R   0.844765 0.383016 0.614475 0.690566
V2    V     V_3+5 0.564340 0.489120 0.500000 1.444810
O10   O     O_3   0.839360 0.558670 0.500000 -0.357257
H1    H     H_    0.122133 0.091944 0.514286 0.119583
C5    C     C_R   0.710721 0.427435 0.779904 -0.148710
C6    C     C_R   0.646722 0.451414 0.858997 -0.130665
C7    C     C_R   0.659167 0.388307 0.923852 -0.117075
C8    C     C_R   0.735630 0.300725 0.910105 -0.133009
C9    C     C_R   0.800229 0.273989 0.830256 0.069432
C10   C     C_R   0.787611 0.338715 0.763760 0.071803
C11   C     C_R   0.879752 0.185118 0.816433 -0.183802
C12   C     C_R   0.946402 0.160972 0.736018 0.069589
C13   C     C_R   0.934007 0.225746 0.669540 0.068472
C14   C     C_R   0.854776 0.314682 0.683399 -0.185993
C15   C     C_R   0.022329 0.072072 0.719784 -0.145746
C16   C     C_R   0.085641 0.047972 0.640610 -0.126850
C17   C     C_R   0.073733 0.111181 0.575808 -0.122790
C18   C     C_R   0.998240 0.198947 0.589656 -0.132270
H2    H     H_    0.700137 0.479510 0.731940 0.097455
H3    H     H_    0.588211 0.519573 0.870078 0.109619
H4    H     H_    0.610366 0.407472 0.985330 0.114222
H5    H     H_    0.744747 0.254738 0.962950 0.097463
H6    H     H_    0.032490 0.019917 0.767720 0.109360
H7    H     H_    0.143239 0.979651 0.629430 0.126966
H8    H     H_    0.989398 0.245006 0.536850 0.106186
C19   C     C_R   0.742065 0.178694 0.245833 0.034531
C20   C     C_R   0.882815 0.183860 0.184000 -0.191057
C21   C     C_R   0.023208 0.253268 0.191838 -0.154037
H9    H     H_    0.136529 0.258605 0.145925 0.135873
C22   C     C_R   0.009068 0.322211 0.253445 0.327014
C23   C     C_R   0.858206 0.318519 0.313695 -0.173159
C24   C     C_R   0.730941 0.243649 0.309344 -0.019270
C25   C     C_3   0.515982 0.242503 0.309353 -0.421061
C26   C     C_3   0.527913 0.171930 0.239249 0.226499
H10   H     H_    0.454397 0.309628 0.289324 0.199255
H11   H     H_    0.456353 0.214822 0.368420 0.176295
H12   H     H_    0.470540 0.196981 0.178834 0.119772
C27   C     C_R   0.506997 0.749143 0.688296 0.036948
C28   C     C_R   0.352658 0.687550 0.681354 -0.133594
C29   C     C_R   0.201484 0.696930 0.738948 -0.115997
H13   H     H_    0.079390 0.650974 0.736055 0.126711
C30   C     C_R   0.212936 0.761089 0.804575 -0.194007
H14   H     H_    0.098198 0.763444 0.849826 0.124214
C31   C     C_R   0.376924 0.816989 0.815126 -0.092855
C32   C     C_R   0.519530 0.811874 0.753899 0.033812
C33   C     C_3   0.730919 0.798277 0.763309 -0.461580
C34   C     C_3   0.717838 0.729755 0.691693 0.225776
H15   H     H_    0.767282 0.765041 0.823530 0.144504
H16   H     H_    0.813520 0.861999 0.748838 0.178099
H17   H     H_    0.750569 0.657219 0.709167 0.096109
C35   C     C_R   0.507953 0.748615 0.311247 0.100552
C36   C     C_R   0.352579 0.687674 0.318744 -0.109954
C37   C     C_R   0.200762 0.697481 0.261504 -0.164770
H18   H     H_    0.078079 0.651926 0.264776 0.124937
C38   C     C_R   0.212523 0.761413 0.195652 -0.183069
H19   H     H_    0.097497 0.764014 0.150523 0.126708
C39   C     C_R   0.377020 0.816897 0.184837 -0.108750
C40   C     C_R   0.519929 0.811616 0.245928 0.129733
C41   C     C_3   0.730576 0.796549 0.236426 -0.419439
C42   C     C_3   0.717606 0.728231 0.307894 -0.398704
H20   H     H_    0.815179 0.859352 0.251792 0.182412
H21   H     H_    0.766314 0.763575 0.176064 0.166999
H22   H     H_    0.794087 0.751684 0.364731 0.185768
H23   H     H_    0.746602 0.655711 0.289156 0.164083
O11   O     O_R   0.229140 0.916090 0.913340 -0.546289
O12   O     O_R   0.558860 0.905090 0.086080 -0.540058
O13   O     O_R   0.729100 0.083920 0.086690 -0.534266
C43   C     C_R   0.389884 0.882943 0.114757 0.733905
O14   O     O_R   0.558860 0.905090 0.913930 -0.540990
O15   O     O_R   0.729100 0.083920 0.913310 -0.536745
C44   C     C_R   0.389839 0.882982 0.885239 0.693884
O16   O     O_R   0.229140 0.916080 0.086720 -0.537744
O17   O     O_3   0.395570 0.058660 0.000020 -0.365590
V3    V     V_3+5 0.670450 0.989140 0.000000 1.420641
O18   O     O_R   0.058810 0.094980 0.913910 -0.540131
C45   C     C_R   0.889951 0.116877 0.885409 0.690359
O19   O     O_R   0.058810 0.094980 0.086060 -0.534058
C46   C     C_R   0.890095 0.116916 0.114743 0.725540
V4    V     V_3+5 0.170450 0.010950 0.999970 1.433499
O20   O     O_3   0.895460 0.941370 0.999990 -0.378863
O21   O     O_3   0.137252 0.394666 0.248409 -0.660849
H24   H     H_    0.075224 0.450876 0.270784 0.276261
O22   O     O_3   0.456488 0.084266 0.261168 -0.635662
H25   H     H_    0.522361 0.063249 0.312607 0.292292
O23   O     O_3   0.816073 0.758500 0.619677 -0.625102
H26   H     H_    0.773127 0.821905 0.605092 0.292876

loop_
_geom_bond_atom_site_label_1
_geom_bond_atom_site_label_2
_ccdc_geom_bond_type
C37   C38   A    
C30   H14   S    
C21   H9    S    
O15   V3    S    
C6    C7    A    
C1    O6    A    
C11   C45   S    
O12   V3    S    
C31   C32   A    
C29   H13   S    
C23   C24   A    
C12   C15   A    
C25   H11   S    
C13   C14   A    
C1    C28   S    
C34   H17   S    
C15   C16   A    
O13   V3    S    
C34   O23   S    
O5    C3    A    
C17   C18   A    
O14   V3    S    
C22   O21   S    
C5    C6    A    
C35   C40   A    
C39   C43   S    
O8    V2    S    
O18   V4    S    
C38   H19   S    
C35   C42   S    
C39   C40   A    
O1    V2    S    
C10   C14   A    
C4    C14   S    
O7    V1    S    
C19   C24   A    
C7    H4    S    
C37   H18   S    
C13   C18   A    
C8    C9    A    
H1    C17   S    
C21   C22   A    
C41   H21   S    
O16   V4    S    
C26   H12   S    
O4    C2    A    
C29   C30   A    
O15   C45   A    
C25   H10   S    
C33   H15   S    
C5    C10   A    
C11   C12   A    
C41   H20   S    
C6    H3    S    
C19   C20   A    
O12   C43   A    
O17   V3    S    
O11   V4    S    
C12   C13   A    
C24   C25   S    
C27   C28   A    
O2    C1    A    
C22   C23   A    
C16   C17   A    
C2    C36   S    
O19   V4    S    
C26   O22   S    
O22   H25   S    
C31   C44   S    
C27   C32   A    
O18   C45   A    
O3    C4    A    
C20   C21   A    
C36   C37   A    
O6    V2    S    
O14   C44   A    
C30   C31   A    
C42   H22   S    
C9    C11   A    
C5    H2    S    
O2    V1    S    
C28   C29   A    
C19   C26   S    
C25   C26   S    
C33   H16   S    
O1    C2    A    
C41   C42   S    
O5    V1    S    
O8    C3    A    
C8    H5    S    
C18   H8    S    
C35   C36   A    
O13   C46   A    
O9    V2    S    
C32   C33   S    
O4    V1    S    
C3    C23   S    
O3    V1    S    
V1    O10   S    
O19   C46   A    
V3    O20   S    
V4    O20   S    
C20   C46   S    
O7    V2    S    
O21   H24   S    
O11   C44   A    
C33   C34   S    
C40   C41   S    
C7    C8    A    
C15   H6    S    
C38   C39   A    
O23   H26   S    
C16   H7    S    
C42   H23   S    
C9    C10   A    
O17   V4    S    
C27   C34   S    
O9    C4    A    
C43   O16   A    
V2    O10   S    
