data_mof_unit_14372.cif
_audit_creation_date              2012-12-11T17:36:10-0500
_audit_creation_method            fapswitch 2.2
_symmetry_space_group_name_H-M    P1
_symmetry_Int_Tables_number       1
_space_group_crystal_system       triclinic
_cell_length_a                    25.65915
_cell_length_b                    6.904635
_cell_length_c                    21.659471
_cell_angle_alpha                 90.170556
_cell_angle_beta                  96.627453
_cell_angle_gamma                 89.877916
_cell_volume                      3811.67910187

loop_
_atom_site_label
_atom_site_type_symbol
_atom_type_description
_atom_site_fract_x
_atom_site_fract_y
_atom_site_fract_z
_atom_type_partial_charge
O1    O     O_R   0.208650 0.594520 0.175450 -0.532451
O2    O     O_R   0.791350 0.405480 0.824550 -0.528242
O3    O     O_R   0.291350 0.094520 0.324550 -0.532230
O4    O     O_R   0.708650 0.905480 0.675450 -0.529146
O5    O     O_R   0.192980 0.260780 0.300160 -0.540657
O6    O     O_R   0.807020 0.739220 0.699840 -0.538290
O7    O     O_R   0.307020 0.760780 0.199840 -0.540566
O8    O     O_R   0.692980 0.239220 0.800160 -0.539635
C1    C     C_R   0.178961 0.433151 0.318535 0.692137
C2    C     C_R   0.820808 0.566783 0.681216 0.692490
C3    C     C_R   0.320838 0.932526 0.181180 0.691509
C4    C     C_R   0.678430 0.067350 0.817755 0.695417
O9    O     O_R   0.202550 0.264660 0.174420 -0.536299
O10   O     O_R   0.797450 0.735340 0.825580 -0.539082
O11   O     O_R   0.297450 0.764660 0.325580 -0.535741
O12   O     O_R   0.702550 0.235340 0.674420 -0.539981
O13   O     O_R   0.300990 0.096480 0.197920 -0.537877
O14   O     O_R   0.699010 0.903520 0.802080 -0.537123
O15   O     O_R   0.199010 0.596480 0.302080 -0.538019
O16   O     O_R   0.800990 0.403520 0.697920 -0.538802
C5    C     C_R   0.190885 0.433160 0.150853 0.707449
C6    C     C_R   0.809712 0.566065 0.848680 0.708616
C7    C     C_R   0.309169 0.933408 0.349121 0.708457
C8    C     C_R   0.690227 0.065821 0.651396 0.704030
O17   O     O_3   0.282290 0.427760 0.257860 -0.362958
O18   O     O_3   0.717710 0.572240 0.742140 -0.364590
O19   O     O_3   0.217710 0.927760 0.242140 -0.363384
O20   O     O_3   0.782290 0.072240 0.757860 -0.363134
V1    V     V_3+5 0.244010 0.152080 0.248540 1.404032
V2    V     V_3+5 0.755990 0.847920 0.751460 1.401174
V3    V     V_3+5 0.255990 0.652080 0.251460 1.404664
V4    V     V_3+5 0.744010 0.347920 0.748540 1.398672
C9    C     C_R   0.656863 0.051045 0.591284 -0.073879
C10   C     C_R   0.341782 0.936673 0.409963 -0.072963
C11   C     C_R   0.843060 0.552340 0.908866 -0.076720
C12   C     C_R   0.158195 0.435492 0.090080 -0.071184
C13   C     C_R   0.651027 0.992292 0.480232 0.004409
C14   C     C_R   0.349482 0.857213 0.519857 0.012627
C15   C     C_R   0.848937 0.501702 0.020259 0.003389
C16   C     C_R   0.149963 0.348712 0.980622 0.015746
C17   C     C_R   0.680828 0.028244 0.537333 -0.203680
C18   C     C_R   0.318954 0.883992 0.462670 -0.197987
C19   C     C_R   0.819118 0.534588 0.962983 -0.200632
C20   C     C_R   0.180746 0.378056 0.037506 -0.199439
C21   C     C_R   0.602085 0.036708 0.588268 -0.215420
C22   C     C_R   0.396251 0.962631 0.414373 -0.206064
C23   C     C_R   0.897811 0.535733 0.911941 -0.217588
C24   C     C_R   0.103790 0.464177 0.085775 -0.205802
C25   C     C_R   0.571260 0.970401 0.533663 0.066051
C26   C     C_R   0.429264 0.915255 0.469420 0.066057
C27   C     C_R   0.928563 0.472156 0.966887 0.066782
C28   C     C_R   0.070515 0.414478 0.031105 0.065845
C29   C     C_R   0.596107 0.956567 0.478427 0.035134
C30   C     C_R   0.405125 0.877216 0.523812 0.036735
C31   C     C_R   0.903791 0.463874 0.022231 0.035077
C32   C     C_R   0.094399 0.370973 0.976836 0.036640
C33   C     C_R   0.516503 0.921548 0.531724 0.014099
C34   C     C_R   0.485441 0.908165 0.472204 0.014106
C35   C     C_R   0.983187 0.420595 0.969009 0.015088
C36   C     C_R   0.014337 0.410319 0.028524 0.014150
C37   C     C_R   0.512299 0.865189 0.419326 0.068741
C38   C     C_R   0.491829 0.868088 0.585401 0.071412
C39   C     C_R   0.987506 0.372985 0.081712 0.068392
C40   C     C_R   0.007585 0.361281 0.915608 0.069484
C41   C     C_R   0.566648 0.893505 0.423632 -0.190623
C42   C     C_R   0.436920 0.855981 0.580458 -0.195973
C43   C     C_R   0.933226 0.403938 0.077374 -0.190728
C44   C     C_R   0.062443 0.346569 0.920445 -0.194625
H1    H     H_    0.586433 0.858191 0.383657 0.159634
H2    H     H_    0.419054 0.827810 0.622250 0.158829
H3    H     H_    0.913452 0.372878 0.117612 0.158662
H4    H     H_    0.080162 0.313679 0.878799 0.158869
H5    H     H_    0.412019 0.023323 0.374954 0.102663
H6    H     H_    0.584399 0.082425 0.628348 0.105542
H7    H     H_    0.088293 0.528732 0.124947 0.102455
H8    H     H_    0.915568 0.577322 0.871589 0.106964
H9    H     H_    0.276945 0.859237 0.458708 0.126968
H10   H     H_    0.723084 0.043700 0.539748 0.132743
H11   H     H_    0.222698 0.351424 0.041348 0.119862
H12   H     H_    0.776898 0.551760 0.960560 0.137855
C45   C     C_R   0.436458 0.813861 0.090938 -0.163142
C46   C     C_R   0.582748 0.190245 0.934560 -0.157634
C47   C     C_R   0.063225 0.309304 0.407055 -0.173401
C48   C     C_R   0.938307 0.673133 0.593884 -0.176857
H13   H     H_    0.464223 0.696902 0.087692 0.119783
H14   H     H_    0.574930 0.310000 0.964573 0.120219
H15   H     H_    0.036749 0.189054 0.410604 0.117764
H16   H     H_    0.967436 0.786160 0.592640 0.127434
C49   C     C_R   0.397771 0.795253 0.131504 -0.190444
C50   C     C_R   0.622554 0.208878 0.895593 -0.170184
C51   C     C_R   0.102752 0.292413 0.367673 -0.185089
C52   C     C_R   0.899505 0.695365 0.633965 -0.189400
H17   H     H_    0.396450 0.664151 0.158606 0.125584
H18   H     H_    0.644511 0.342819 0.896288 0.128065
H19   H     H_    0.106003 0.158937 0.341987 0.125595
H20   H     H_    0.899658 0.823892 0.662778 0.126211
C53   C     C_R   0.361846 0.945878 0.137705 -0.074038
C54   C     C_R   0.634792 0.054258 0.857500 -0.075139
C55   C     C_R   0.137052 0.447207 0.360828 -0.071924
C56   C     C_R   0.861693 0.551158 0.637700 -0.061469
C57   C     C_R   0.365492 0.114484 0.102130 -0.188085
C58   C     C_R   0.605645 0.882173 0.858558 -0.198732
C59   C     C_R   0.130863 0.618949 0.394603 -0.185293
C60   C     C_R   0.862948 0.386773 0.599378 -0.197627
H21   H     H_    0.338338 0.232995 0.106378 0.126184
H22   H     H_    0.614299 0.761940 0.829128 0.121588
H23   H     H_    0.156994 0.739877 0.390082 0.122768
H24   H     H_    0.833333 0.275705 0.601293 0.122183
C61   C     C_R   0.403765 0.134277 0.060889 0.113455
C62   C     C_R   0.565007 0.862822 0.896655 0.114781
C63   C     C_R   0.091740 0.636546 0.434953 0.111606
C64   C     C_R   0.900739 0.362586 0.557510 0.107865
C65   C     C_R   0.439640 0.981373 0.054937 0.109957
C66   C     C_R   0.553580 0.018656 0.935491 0.110231
C67   C     C_R   0.057569 0.479402 0.441304 0.116323
C68   C     C_R   0.939787 0.508756 0.555499 0.122577
C69   C     C_1   0.479745 0.993140 0.012594 -0.066084
C70   C     C_1   0.513188 0.004405 0.977384 -0.063732
C71   C     C_1   0.016207 0.490848 0.481867 -0.077574
C72   C     C_1   0.981539 0.499078 0.515508 -0.071844
C73   C     C_2   0.679278 0.994190 0.424076 0.746366
O21   O     O_2   0.659411 0.070078 0.376064 -0.556275
O22   O     O_R   0.730044 0.917752 0.427250 -0.665794
H25   H     H_    0.745742 0.930562 0.386594 0.303667
C74   C     C_2   0.321207 0.796529 0.572653 0.741213
O23   O     O_2   0.337571 0.662034 0.606090 -0.561965
O24   O     O_R   0.273769 0.886498 0.581635 -0.661941
H26   H     H_    0.257335 0.830322 0.618005 0.299665
C75   C     C_2   0.820809 0.508717 0.076458 0.749718
O25   O     O_2   0.840660 0.588769 0.123848 -0.557302
O26   O     O_R   0.770228 0.431851 0.074035 -0.660801
H27   H     H_    0.754680 0.447822 0.114712 0.308398
C76   C     C_2   0.177799 0.283124 0.927917 0.738036
O27   O     O_2   0.161655 0.144385 0.896123 -0.560699
O28   O     O_R   0.224482 0.374075 0.917019 -0.667050
H28   H     H_    0.240688 0.314388 0.880880 0.297108
C77   C     C_3   0.487798 0.758345 0.360913 -0.346412
C78   C     C_3   0.462061 0.565366 0.375534 -0.294683
C79   C     C_3   0.435802 0.470311 0.316201 -0.742925
H29   H     H_    0.405107 0.567376 0.292739 0.228087
H30   H     H_    0.465295 0.437706 0.283887 0.225401
H31   H     H_    0.416881 0.333038 0.327831 0.210929
H32   H     H_    0.492439 0.465723 0.398379 0.202661
H33   H     H_    0.431831 0.586523 0.407544 0.210263
H34   H     H_    0.460800 0.850405 0.330474 0.162185
H35   H     H_    0.518467 0.721544 0.330444 0.177340
C80   C     C_3   0.520636 0.784670 0.645494 -0.351635
C81   C     C_3   0.555010 0.608904 0.633545 -0.295597
C82   C     C_3   0.581886 0.526922 0.694508 -0.738922
H36   H     H_    0.607927 0.637857 0.719019 0.229528
H37   H     H_    0.552291 0.480728 0.725055 0.215094
H38   H     H_    0.606025 0.399411 0.684769 0.217794
H39   H     H_    0.585763 0.648604 0.603923 0.210315
H40   H     H_    0.530173 0.494224 0.609024 0.200516
H41   H     H_    0.542531 0.894225 0.675015 0.155585
H42   H     H_    0.491830 0.731982 0.676239 0.174195
C83   C     C_3   0.011842 0.268325 0.140487 -0.347210
C84   C     C_3   0.036526 0.072198 0.126437 -0.292906
C85   C     C_3   0.061960 0.977132 0.186063 -0.745737
H43   H     H_    0.093377 0.071552 0.209316 0.227802
H44   H     H_    0.032190 0.950115 0.218405 0.225305
H45   H     H_    0.079770 0.836764 0.174828 0.210488
H46   H     H_    0.005659 0.974558 0.103591 0.203147
H47   H     H_    0.067040 0.089145 0.094612 0.209632
H48   H     H_    0.039499 0.359868 0.170288 0.161751
H49   H     H_    0.981211 0.236456 0.171396 0.176819
C86   C     C_3   0.978461 0.274734 0.856108 -0.347772
C87   C     C_3   0.943295 0.103034 0.869109 -0.297199
C88   C     C_3   0.917403 0.014431 0.808544 -0.737988
H50   H     H_    0.893093 0.124560 0.781165 0.233910
H51   H     H_    0.947616 0.957719 0.780347 0.211735
H52   H     H_    0.891737 0.892876 0.819059 0.218619
H53   H     H_    0.911961 0.148862 0.897211 0.210823
H54   H     H_    0.967351 0.990167 0.895618 0.201195
H55   H     H_    0.957058 0.383493 0.825853 0.157647
H56   H     H_    0.007093 0.216913 0.825818 0.178268
C89   C     C_3   0.406166 0.324270 0.026799 -0.401966
C90   C     C_3   0.361584 0.342059 0.973514 -0.300513
C91   C     C_3   0.355343 0.551244 0.951040 -0.712242
H57   H     H_    0.341233 0.643706 0.987790 0.236479
H58   H     H_    0.393275 0.609382 0.939429 0.226908
H59   H     H_    0.326272 0.557906 0.908969 0.237787
H60   H     H_    0.370229 0.247399 0.934340 0.196846
H61   H     H_    0.323781 0.294707 0.988934 0.216346
H62   H     H_    0.402830 0.442434 0.060833 0.184161
H63   H     H_    0.444367 0.344396 0.008254 0.174918
C92   C     C_3   0.535348 0.673676 0.895140 -0.382865
C93   C     C_3   0.483609 0.686260 0.852341 -0.304495
C94   C     C_3   0.458858 0.486162 0.841722 -0.758645
H64   H     H_    0.483930 0.392780 0.815427 0.228202
H65   H     H_    0.454227 0.415580 0.886761 0.233698
H66   H     H_    0.419663 0.500267 0.814450 0.230899
H67   H     H_    0.455908 0.783498 0.873400 0.198583
H68   H     H_    0.490744 0.747044 0.806560 0.196869
H69   H     H_    0.559752 0.557038 0.877750 0.180608
H70   H     H_    0.527816 0.631802 0.942821 0.172911
C95   C     C_3   0.086350 0.825621 0.469114 -0.393660
C96   C     C_3   0.108960 0.810925 0.537580 -0.289945
C97   C     C_3   0.102119 0.001709 0.571548 -0.733607
H71   H     H_    0.122434 0.120893 0.549665 0.240259
H72   H     H_    0.059797 0.037973 0.570278 0.218145
H73   H     H_    0.119236 0.988316 0.620822 0.225067
H74   H     H_    0.088938 0.694422 0.561037 0.201877
H75   H     H_    0.151466 0.775251 0.540734 0.213221
H76   H     H_    0.107531 0.942319 0.447182 0.180341
H77   H     H_    0.044333 0.868587 0.465241 0.179379
C98   C     C_3   0.894171 0.177844 0.518207 -0.372984
C99   C     C_3   0.932582 0.137602 0.470458 -0.325421
C100  C     C_3   0.918269 0.951649 0.434148 -0.745223
H78   H     H_    0.917926 0.826864 0.466188 0.240888
H79   H     H_    0.878961 0.965865 0.407083 0.242989
H80   H     H_    0.947655 0.923052 0.401378 0.213028
H81   H     H_    0.931098 0.257965 0.436397 0.215867
H82   H     H_    0.972856 0.120113 0.494754 0.197842
H83   H     H_    0.895960 0.052933 0.550640 0.180968
H84   H     H_    0.853903 0.180331 0.492844 0.195462

loop_
_geom_bond_atom_site_label_1
_geom_bond_atom_site_label_2
_ccdc_geom_bond_type
O17   V3    S    
C47   H15   S    
O1    C5    A    
C83   C84   S    
C92   H70   S    
O19   V1    S    
C9    C21   A    
C88   H50   S    
C55   C59   A    
C80   C81   S    
C10   C18   A    
C56   C60   A    
C11   C23   A    
C90   C91   S    
C25   C33   A    
O28   H28   S    
C5    C12   S    
C42   H2    S    
O7    C3    A    
C6    C11   S    
C35   C40   A    
C99   H81   S    
C36   C39   A    
C82   H36   S    
C40   C44   A    
C77   H34   S    
C23   H8    S    
C14   C18   A    
C40   C86   S    
C78   H32   S    
C82   H37   S    
O4    C8    A    
C79   H31   S    
C25   C29   A    
C44   H4    S    
C43   H3    S    
C57   C61   A    
C60   H24   S    
O1    V3    S    
C100  H80   S    
C89   H62   S    
O2    V4    S    
O3    V1    S    
C28   C36   A    
O3    C7    A    
C1    O15   A    
C15   C31   A    
C2    O16   A    
C99   C100  S    
C16   C32   A    
O2    C6    A    
C97   H73   S    
C85   H44   S    
C12   C24   A    
C96   C97   S    
C10   C22   A    
C11   C19   A    
C62   C66   A    
C16   C20   A    
C27   C31   A    
C90   H60   S    
C84   H47   S    
C91   H59   S    
C13   C29   A    
C34   C37   A    
O11   C7    A    
C77   C78   S    
O15   V3    S    
C35   C36   A    
O12   C8    A    
C13   C17   A    
C57   H21   S    
C88   H51   S    
C24   H7    S    
C95   H77   S    
C95   C96   S    
C81   H40   S    
O10   V2    S    
O20   V4    S    
C50   H18   S    
O5    V1    S    
C52   H20   S    
O17   V1    S    
C87   H53   S    
C79   H29   S    
C39   C43   A    
C62   C92   S    
O7    V3    S    
C38   C42   A    
O19   V3    S    
C98   C99   S    
O8    V4    S    
C47   C67   A    
C77   H35   S    
O22   H25   S    
C81   C82   S    
C46   C66   A    
C95   H76   S    
C82   H38   S    
C83   H48   S    
C86   C87   S    
C60   C64   A    
O18   V4    S    
C15   C19   A    
C15   C75   S    
C33   C38   A    
C19   H12   S    
C32   C44   A    
C51   H19   S    
O4    V2    S    
C89   H63   S    
C68   C72   S    
C49   C53   A    
C21   H6    S    
C26   C34   A    
C94   H66   S    
C87   H54   S    
O5    C1    A    
C17   H10   S    
C23   C27   A    
C76   O27   D    
C85   H43   S    
C14   C30   A    
C21   C25   A    
O8    C4    A    
C7    C10   S    
C53   C57   A    
C98   H83   S    
C100  H78   S    
C85   H45   S    
O9    C5    A    
C26   C30   A    
C2    C56   S    
C80   H42   S    
C73   O21   D    
C66   C70   S    
C84   H46   S    
C65   C69   S    
C87   C88   S    
O6    V2    S    
C93   H67   S    
O18   V2    S    
C67   C71   S    
C38   C80   S    
C96   H75   S    
C74   O23   D    
C88   H52   S    
C13   C73   S    
C48   C68   A    
C12   C20   A    
C27   C35   A    
C81   H39   S    
C39   C83   S    
C4    O14   A    
O26   H27   S    
C64   C68   A    
C14   C74   S    
C29   C41   A    
C52   C56   A    
C97   H72   S    
C75   O25   D    
O16   V4    S    
O9    V1    S    
C3    O13   A    
C99   H82   S    
C92   H69   S    
C4    C54   S    
C20   H11   S    
C48   H16   S    
C64   C98   S    
C83   H49   S    
O6    C2    A    
C31   C43   A    
C71   C72   T    
O11   V3    S    
O24   H26   S    
C30   C42   A    
C59   C63   A    
C61   C65   A    
C80   H41   S    
O12   V4    S    
C47   C51   A    
C16   C76   S    
C22   C26   A    
C8    C9    S    
C46   C50   A    
C3    C53   S    
C59   H23   S    
C9    C17   A    
O10   C6    A    
O20   V2    S    
C45   C49   A    
C92   C93   S    
C54   C58   A    
O13   V1    S    
C63   C95   S    
C46   H14   S    
C79   H30   S    
C37   C77   S    
C33   C34   A    
C84   C85   S    
C78   H33   S    
C41   H1    S    
C75   O26   S    
C98   H84   S    
C100  H79   S    
C58   H22   S    
C86   H55   S    
C97   H71   S    
C37   C41   A    
C49   H17   S    
C94   H64   S    
C45   H13   S    
C73   O22   S    
C58   C62   A    
C78   C79   S    
O14   V2    S    
C93   H68   S    
C91   H57   S    
C61   C89   S    
C24   C28   A    
C18   H9    S    
C1    C55   S    
C89   C90   S    
C45   C65   A    
C96   H74   S    
C74   O24   S    
C76   O28   S    
C93   C94   S    
C63   C67   A    
C86   H56   S    
C48   C52   A    
C51   C55   A    
C69   C70   T    
C50   C54   A    
C22   H5    S    
C90   H61   S    
C28   C32   A    
C94   H65   S    
C91   H58   S    
