data_mof_unit_24100.cif
_audit_creation_date              2012-12-10T19:09:24-0500
_audit_creation_method            fapswitch 2.2
_symmetry_space_group_name_H-M    P1
_symmetry_Int_Tables_number       1
_space_group_crystal_system       monoclinic
_cell_length_a                    15.84741
_cell_length_b                    15.11123
_cell_length_c                    10.233617
_cell_angle_alpha                 89.491355
_cell_angle_beta                  90.0
_cell_angle_gamma                 90.0
_cell_volume                      2450.58716907

loop_
_atom_site_label
_atom_site_type_symbol
_atom_type_description
_atom_site_fract_x
_atom_site_fract_y
_atom_site_fract_z
_atom_type_partial_charge
Br1   Br    Br    0.068689 0.829560 0.376146 -0.334181
Br2   Br    Br    0.035270 0.321349 0.858279 -0.250350
Br3   Br    Br    0.938953 0.683459 0.836789 -0.259857
Br4   Br    Br    0.857796 0.624675 0.097927 -0.404721
Br5   Br    Br    0.438953 0.816541 0.163211 -0.259857
Br6   Br    Br    0.357796 0.875325 0.902073 -0.404721
Br7   Br    Br    0.581352 0.164005 0.856549 -0.238326
Br8   Br    Br    0.535270 0.178651 0.141721 -0.250350
Br9   Br    Br    0.170614 0.521178 0.132137 -0.132166
Br10  Br    Br    0.177252 0.464581 0.838587 -0.291490
Br11  Br    Br    0.112019 0.652664 0.904920 -0.255307
Br12  Br    Br    0.210980 0.730928 0.209965 -0.203373
Br13  Br    Br    0.016836 0.687057 0.171021 -0.236591
Br14  Br    Br    0.612019 0.847336 0.095080 -0.255307
Br15  Br    Br    0.516836 0.812942 0.828979 -0.236591
Br16  Br    Br    0.670614 0.978822 0.867863 -0.132166
Br17  Br    Br    0.677252 0.035419 0.161412 -0.291490
Br18  Br    Br    0.121355 0.171853 0.316898 -0.329311
Br19  Br    Br    0.061827 0.182032 0.594307 -0.340842
Br20  Br    Br    0.621355 0.328147 0.683102 -0.329311
Br21  Br    Br    0.561827 0.317968 0.405693 -0.340842
Br22  Br    Br    0.568689 0.670440 0.623853 -0.334181
Br23  Br    Br    0.710980 0.769071 0.790035 -0.203373
Br24  Br    Br    0.081352 0.335995 0.143451 -0.238325
C1    C     C_R   0.123025 0.378981 0.500212 0.906430
C2    C     C_R   0.880160 0.620202 0.498960 0.908521
C3    C     C_R   0.380160 0.879798 0.501040 0.908521
C4    C     C_R   0.383931 0.122440 0.500811 0.900943
C5    C     C_3   0.822499 0.256126 0.620595 -0.390073
C6    C     C_3   0.833377 0.243618 0.382470 -0.423278
C7    C     C_3   0.769488 0.695268 0.361201 -0.391694
C8    C     C_3   0.845424 0.778186 0.535501 -0.333520
C9    C     C_3   0.269488 0.804732 0.638799 -0.391694
C10   C     C_3   0.345424 0.721814 0.464498 -0.333519
C11   C     C_3   0.322499 0.243874 0.379405 -0.390073
C12   C     C_R   0.118591 0.624053 0.498972 0.925506
C13   C     C_3   0.333377 0.256381 0.617530 -0.423278
C14   C     C_3   0.191392 0.744198 0.631534 0.186492
C15   C     C_3   0.277245 0.650598 0.488121 0.138888
C16   C     C_3   0.267903 0.325881 0.394703 0.236422
C17   C     C_3   0.250573 0.309785 0.633821 0.215835
C18   C     C_3   0.767903 0.174118 0.605297 0.236422
C19   C     C_3   0.750573 0.190215 0.366179 0.215835
C20   C     C_3   0.691392 0.755801 0.368466 0.186492
C21   C     C_3   0.777245 0.849402 0.511879 0.138888
C22   C     C_3   0.732616 0.356997 0.479118 -0.396420
C23   C     C_R   0.618591 0.875947 0.501028 0.925506
C24   C     C_3   0.741467 0.653858 0.589781 -0.429777
C25   C     C_3   0.241467 0.846142 0.410219 -0.429777
C26   C     C_3   0.232616 0.143003 0.520882 -0.396420
C27   C     C_3   0.819172 0.310030 0.494808 -0.088119
C28   C     C_3   0.811061 0.685976 0.496916 -0.125899
C29   C     C_3   0.311061 0.814024 0.503084 -0.125899
C30   C     C_3   0.319172 0.189970 0.505192 -0.088118
C31   C     C_3   0.187567 0.695599 0.496690 -0.221711
C32   C     C_3   0.195087 0.307716 0.501150 -0.230586
C33   C     C_3   0.695087 0.192284 0.498850 -0.230586
C34   C     C_R   0.623025 0.121019 0.499788 0.906430
C35   C     C_3   0.687567 0.804401 0.503310 -0.221711
C36   C     C_3   0.178770 0.770570 0.384697 0.553029
C37   C     C_3   0.160406 0.208435 0.487321 0.502444
C38   C     C_3   0.660406 0.291565 0.512679 0.502444
C39   C     C_3   0.678770 0.729430 0.615303 0.553029
C40   C     C_3   0.072843 0.455497 0.075740 0.406576
C41   C     C_3   0.066058 0.443309 0.917967 0.439158
C42   C     C_3   0.004765 0.592193 0.924470 0.384307
C43   C     C_3   0.978963 0.589281 0.076084 0.423153
C44   C     C_3   0.504765 0.907807 0.075530 0.384307
C45   C     C_3   0.926346 0.447075 0.078406 -0.387731
C46   C     C_3   0.478963 0.910719 0.923916 0.423153
C47   C     C_3   0.572843 0.044503 0.924260 0.406576
C48   C     C_3   0.566058 0.056690 0.082033 0.439158
C49   C     C_3   0.917774 0.463932 0.921076 -0.386196
C50   C     C_3   0.417774 0.036068 0.078924 -0.386196
C51   C     C_3   0.426346 0.052925 0.921594 -0.387731
C52   C     C_R   0.883931 0.377559 0.499189 0.900943
Cl1   Cl    Cl    0.098165 0.804533 0.675983 -0.419538
Cl2   Cl    Cl    0.290124 0.562462 0.376405 -0.452491
Cl3   Cl    Cl    0.257729 0.359387 0.233021 -0.363356
Cl4   Cl    Cl    0.207199 0.260290 0.777858 -0.421953
Cl5   Cl    Cl    0.757729 0.140613 0.766979 -0.363356
Cl6   Cl    Cl    0.707199 0.239710 0.222142 -0.421953
Cl7   Cl    Cl    0.598165 0.695467 0.324016 -0.419538
Cl8   Cl    Cl    0.790124 0.937538 0.623595 -0.452491
H1    H     H_    0.800702 0.298374 0.702869 0.258155
H2    H     H_    0.886638 0.198094 0.406321 0.198913
H3    H     H_    0.816016 0.727298 0.294978 0.243955
H4    H     H_    0.902030 0.794859 0.476412 0.223028
H5    H     H_    0.316016 0.772702 0.705022 0.243955
H6    H     H_    0.402030 0.705141 0.523588 0.223028
H7    H     H_    0.388248 0.264825 0.356469 0.241189
H8    H     H_    0.386638 0.301906 0.593679 0.198913
H9    H     H_    0.201772 0.693382 0.707126 0.197709
H10   H     H_    0.291485 0.617475 0.583290 0.150051
H11   H     H_    0.308227 0.380229 0.432437 0.172131
H12   H     H_    0.853766 0.276661 0.290102 0.260110
H13   H     H_    0.268476 0.379021 0.655251 0.166456
H14   H     H_    0.808227 0.119771 0.567563 0.172131
H15   H     H_    0.768476 0.120978 0.344749 0.166456
H16   H     H_    0.701772 0.806618 0.292874 0.197709
H17   H     H_    0.791485 0.882525 0.416710 0.150051
H18   H     H_    0.729873 0.417292 0.540882 0.178074
H19   H     H_    0.726331 0.382747 0.377534 0.245258
H20   H     H_    0.709927 0.595885 0.544152 0.205532
H21   H     H_    0.766984 0.626279 0.682802 0.234799
H22   H     H_    0.209927 0.904115 0.455848 0.205532
H23   H     H_    0.752154 0.629169 0.322362 0.264065
H24   H     H_    0.266984 0.873720 0.317197 0.234799
H25   H     H_    0.229873 0.082708 0.459118 0.178074
H26   H     H_    0.226331 0.117252 0.622466 0.245258
H27   H     H_    0.930071 0.375062 0.096318 0.230821
H28   H     H_    0.894615 0.403654 0.872010 0.242007
H29   H     H_    0.864714 0.509577 0.899068 0.236121
H30   H     H_    0.865881 0.458285 0.129965 0.245097
H31   H     H_    0.364714 0.990423 0.100932 0.236121
H32   H     H_    0.365881 0.041715 0.870035 0.245097
H33   H     H_    0.430071 0.124938 0.903682 0.230821
H34   H     H_    0.865146 0.777874 0.638953 0.292659
H35   H     H_    0.394615 0.096345 0.127990 0.242007
H36   H     H_    0.252154 0.870831 0.677638 0.264065
H37   H     H_    0.365146 0.722126 0.361047 0.292659
H38   H     H_    0.300702 0.201626 0.297131 0.258155
H39   H     H_    0.353766 0.223339 0.709898 0.260110
H40   H     H_    0.888248 0.235175 0.643531 0.241189
N1    N     N_3   0.998760 0.500000 0.138610 -0.195396
N2    N     N_3   0.998760 0.500000 0.861390 -0.201231
N3    N     N_3   0.498760 1.000000 0.138610 -0.201231
N4    N     N_3   0.498760 0.000000 0.861390 -0.195396
O1    O     O_R   0.092530 0.407440 0.616040 -0.546895
O2    O     O_R   0.907330 0.407420 0.383960 -0.631489
O3    O     O_R   0.907330 0.592580 0.383960 -0.589532
O4    O     O_R   0.907330 0.592580 0.616040 -0.591783
O5    O     O_R   0.407330 0.907420 0.616040 -0.589532
O6    O     O_R   0.407330 0.907420 0.383960 -0.591783
O7    O     O_R   0.407330 0.092580 0.383960 -0.624115
O8    O     O_R   0.407330 0.092580 0.616040 -0.631489
O9    O     O_R   0.092530 0.407440 0.383960 -0.529003
O10   O     O_R   0.092530 0.592560 0.383960 -0.525359
O11   O     O_R   0.092530 0.592560 0.616040 -0.580041
O12   O     O_R   0.592530 0.907440 0.616040 -0.525359
O13   O     O_R   0.592530 0.907440 0.383960 -0.580041
O14   O     O_R   0.592530 0.092560 0.383960 -0.546895
O15   O     O_R   0.592530 0.092560 0.616040 -0.529003
O16   O     O_R   0.907330 0.407420 0.616040 -0.624115
Zn1   Zn    Zn3+2 0.999890 0.500000 0.654960 1.059201
Zn2   Zn    Zn3+2 0.999890 0.500000 0.345040 1.080659
Zn3   Zn    Zn3+2 0.499890 0.000000 0.654960 1.080659
Zn4   Zn    Zn3+2 0.499890 0.000000 0.345040 1.059201

loop_
_geom_bond_atom_site_label_1
_geom_bond_atom_site_label_2
_ccdc_geom_bond_type
C6    C27   S    
C5    C18   S    
O2    Zn2   S    
C4    O7    A    
C45   H27   S    
C8    C21   S    
C51   H33   S    
C1    C32   S    
C7    C28   S    
Br2   C41   S    
C1    O1    A    
C17   Cl4   S    
C33   C38   S    
C15   H10   S    
O15   Zn3   S    
C50   H35   S    
C22   H18   S    
C26   C30   S    
C25   C36   S    
C22   C38   S    
O4    Zn1   S    
C19   H15   S    
C9    H5    S    
N1    Zn2   S    
C18   H14   S    
Br7   C47   S    
Br9   C40   S    
C20   C35   S    
C49   N2    S    
C8    H4    S    
C5    H40   S    
C26   H26   S    
C49   H29   S    
O12   Zn3   S    
O3    Zn2   S    
C51   N4    S    
C8    C28   S    
C6    H12   S    
O13   Zn4   S    
Br22  C39   S    
C13   H39   S    
C52   O2    A    
C34   O15   A    
C15   C31   S    
C14   C31   S    
C50   N3    S    
C16   C32   S    
C23   O12   A    
C45   C49   S    
O5    Zn3   S    
C6    H2    S    
O1    Zn1   S    
Br11  C42   S    
N3    Zn4   S    
C20   Cl7   S    
Br23  C39   S    
C42   C43   S    
C45   N1    S    
Br24  C40   S    
C31   C36   S    
C11   C30   S    
Br20  C38   S    
Br16  C47   S    
Br5   C44   S    
C18   Cl5   S    
C18   C33   S    
N2    Zn1   S    
C25   H24   S    
C9    C29   S    
C45   H30   S    
Br8   C48   S    
C7    H3    S    
C50   C51   S    
C48   N3    S    
C10   C15   S    
C3    O5    A    
C15   Cl2   S    
O14   Zn4   S    
O9    Zn2   S    
C27   C52   S    
C7    C20   S    
Br1   C36   S    
C4    C30   S    
C24   C39   S    
C22   C27   S    
C26   H25   S    
C42   N2    S    
C1    O9    A    
C10   H6    S    
C17   C32   S    
C2    C28   S    
C34   O14   A    
C24   H21   S    
C16   Cl3   S    
Br18  C37   S    
C44   N3    S    
Br21  C38   S    
C21   H17   S    
Br17  C48   S    
C13   C30   S    
C52   O16   A    
C10   C29   S    
C44   C46   S    
O7    Zn4   S    
C10   H37   S    
C17   H13   S    
C6    C19   S    
Br3   C42   S    
C16   H11   S    
C2    O4    A    
C49   H28   S    
Br13  C43   S    
Br10  C41   S    
C46   N4    S    
C21   Cl8   S    
Br6   C46   S    
Br15  C46   S    
O11   Zn1   S    
C13   H8    S    
C4    O8    A    
C3    O6    A    
C7    H23   S    
C11   H38   S    
C8    H34   S    
O16   Zn1   S    
Br4   C43   S    
C3    C29   S    
N4    Zn3   S    
C25   H22   S    
C14   Cl1   S    
O6    Zn4   S    
C22   H19   S    
C23   O13   A    
C35   C39   S    
C9    C14   S    
O10   Zn2   S    
C40   C41   S    
C43   N1    S    
C11   C16   S    
C5    H1    S    
C47   C48   S    
C12   C31   S    
C41   N2    S    
C20   H16   S    
C33   C34   S    
Br19  C37   S    
C25   C29   S    
C50   H31   S    
C14   H9    S    
C13   C17   S    
C47   N4    S    
C12   O11   A    
O8    Zn3   S    
C19   C33   S    
C5    C27   S    
C23   C35   S    
Br12  C36   S    
C24   C28   S    
C9    H36   S    
C21   C35   S    
C40   N1    S    
C26   C37   S    
Br14  C44   S    
C32   C37   S    
C51   H32   S    
C12   O10   A    
C2    O3    A    
C19   Cl6   S    
C11   H7    S    
C24   H20   S    
