data_mof_unit_13557.cif
_audit_creation_date              2012-12-11T15:27:11-0500
_audit_creation_method            fapswitch 2.2
_symmetry_space_group_name_H-M    P1
_symmetry_Int_Tables_number       1
_space_group_crystal_system       triclinic
_cell_length_a                    13.95182
_cell_length_b                    13.951852
_cell_length_c                    27.433217
_cell_angle_alpha                 90.003184
_cell_angle_beta                  89.997423
_cell_angle_gamma                 119.998033
_cell_volume                      4624.64821525

loop_
_atom_site_label
_atom_site_type_symbol
_atom_type_description
_atom_site_fract_x
_atom_site_fract_y
_atom_site_fract_z
_atom_type_partial_charge
C1    C     C_R   0.233843 0.787598 0.568455 0.553144
C2    C     C_R   0.212404 0.446249 0.568456 0.553155
C3    C     C_R   0.553752 0.766157 0.568456 0.553151
C4    C     C_3   0.704629 0.756275 0.784397 -0.263076
C5    C     C_3   0.243723 0.948349 0.784402 -0.263083
C6    C     C_3   0.051650 0.295373 0.784403 -0.263084
C7    C     C_3   0.684880 0.744626 0.728588 -0.310070
C8    C     C_3   0.255372 0.940254 0.728592 -0.310074
C9    C     C_3   0.059747 0.315126 0.728594 -0.310074
C10   C     C_1   0.716677 0.866349 0.857150 -0.066009
C11   C     C_1   0.133650 0.850321 0.857150 -0.066010
C12   C     C_1   0.149677 0.283319 0.857149 -0.066007
C13   C     C_1   0.637079 0.819885 0.656787 0.084996
C14   C     C_1   0.180113 0.817206 0.656785 0.084987
C15   C     C_1   0.182801 0.362921 0.656786 0.085001
C16   C     C_1   0.606021 0.799665 0.615139 0.071857
C17   C     C_1   0.200334 0.806366 0.615137 0.071859
C18   C     C_1   0.193639 0.393980 0.615139 0.071862
C19   C     C_R   0.106474 0.219247 0.948578 0.541853
C20   C     C_R   0.780752 0.887225 0.948578 0.541830
C21   C     C_R   0.112776 0.893526 0.948578 0.541846
C22   C     C_R   0.613753 0.806942 0.385572 0.026536
C23   C     C_R   0.193039 0.806737 0.385563 0.026551
C24   C     C_R   0.193300 0.386330 0.385556 0.026550
C25   C     C_R   0.606160 0.890295 0.360172 -0.122708
C26   C     C_R   0.109924 0.715713 0.360113 -0.122692
C27   C     C_R   0.284360 0.394381 0.360085 -0.122708
C28   C     C_R   0.634022 0.908405 0.311274 -0.122483
C29   C     C_R   0.091799 0.725490 0.311222 -0.122469
C30   C     C_R   0.274585 0.366489 0.311194 -0.122520
C31   C     C_R   0.672416 0.845362 0.287381 0.037756
C32   C     C_R   0.154579 0.827024 0.287381 0.037765
C33   C     C_R   0.173017 0.327592 0.287373 0.037749
C34   C     C_R   0.233243 0.787516 0.431596 0.537111
C35   C     C_R   0.212489 0.445728 0.431595 0.537094
C36   C     C_R   0.554286 0.766757 0.431598 0.537112
C37   C     C_R   0.690855 0.770093 0.313991 -0.113673
C38   C     C_R   0.229599 0.920772 0.314041 -0.113614
C39   C     C_R   0.079249 0.308733 0.314050 -0.113622
C40   C     C_R   0.660937 0.750383 0.362842 -0.126584
C41   C     C_R   0.249342 0.910542 0.362886 -0.126556
C42   C     C_R   0.089477 0.338708 0.362897 -0.126620
C43   C     C_R   0.656715 0.758895 0.206365 -0.130127
C44   C     C_R   0.241077 0.898152 0.206410 -0.130190
C45   C     C_R   0.101748 0.342824 0.206422 -0.130118
C46   C     C_R   0.678244 0.768124 0.156673 -0.152853
C47   C     C_R   0.231886 0.910440 0.156715 -0.152890
C48   C     C_R   0.089456 0.321354 0.156727 -0.152547
C49   C     C_R   0.751590 0.966717 0.161768 0.370007
C50   C     C_R   0.033405 0.784598 0.161711 0.370005
C51   C     C_R   0.215520 0.248989 0.161683 0.369981
C52   C     C_R   0.732078 0.957437 0.211559 -0.080431
C53   C     C_R   0.042639 0.774363 0.211507 -0.080443
C54   C     C_R   0.225769 0.268457 0.211480 -0.080450
C55   C     C_R   0.687557 0.854099 0.234411 -0.026738
C56   C     C_R   0.145891 0.833482 0.234410 -0.026749
C57   C     C_R   0.166540 0.312442 0.234403 -0.026778
C58   C     C_R   0.729418 0.872419 0.134407 0.029649
C59   C     C_R   0.127649 0.857021 0.134399 0.029534
C60   C     C_R   0.142981 0.270667 0.134392 0.029649
C61   C     C_R   0.106513 0.221207 0.086300 0.575971
C62   C     C_R   0.778806 0.885325 0.086305 0.575781
C63   C     C_R   0.114686 0.893489 0.086303 0.575790
C64   C     C_3   0.557431 0.823079 0.737110 0.771355
C65   C     C_3   0.176917 0.734356 0.737101 0.771362
C66   C     C_3   0.265644 0.442563 0.737108 0.771355
C67   C     C_3   0.762826 0.949557 0.721322 0.228506
C68   C     C_3   0.050441 0.813284 0.721322 0.228503
C69   C     C_3   0.186727 0.237168 0.721315 0.228506
C70   C     C_3   0.782698 0.962078 0.777350 -0.195881
C71   C     C_3   0.037919 0.820628 0.777352 -0.195884
C72   C     C_3   0.179380 0.217295 0.777343 -0.195882
C73   C     C_1   0.740037 0.874857 0.899781 -0.004530
C74   C     C_1   0.125143 0.865174 0.899781 -0.004531
C75   C     C_1   0.134824 0.259959 0.899780 -0.004524
C76   C     C_3   0.660601 0.834997 0.709437 0.074080
C77   C     C_3   0.165000 0.825612 0.709436 0.074077
C78   C     C_3   0.174393 0.339398 0.709436 0.074083
C79   C     C_3   0.579312 0.836708 0.792865 -0.129349
C80   C     C_3   0.163289 0.742602 0.792856 -0.129331
C81   C     C_3   0.257395 0.420682 0.792862 -0.129346
C82   C     C_3   0.696087 0.855783 0.804319 -0.069015
C83   C     C_3   0.144215 0.840302 0.804318 -0.069019
C84   C     C_3   0.159698 0.303909 0.804318 -0.069013
Cr1   Cr    Cr6+3 0.164410 0.584450 0.499910 1.059171
Cr2   Cr    Cr6+3 0.415550 0.579960 0.499910 1.059150
Cr3   Cr    Cr6+3 0.420040 0.835590 0.499910 1.059160
Cr4   Cr    Cr6+3 0.156760 0.076070 0.017830 1.091678
Cr5   Cr    Cr6+3 0.923930 0.080690 0.017830 1.091541
Cr6   Cr    Cr6+3 0.919310 0.843240 0.017830 1.091697
H1    H     H_    0.571849 0.907794 0.806578 0.138183
H2    H     H_    0.092204 0.664057 0.806565 0.138188
H3    H     H_    0.335942 0.428140 0.806570 0.138192
H4    H     H_    0.515773 0.761578 0.812299 0.137256
H5    H     H_    0.238420 0.754188 0.812288 0.137268
H6    H     H_    0.245804 0.484223 0.812300 0.137251
H7    H     H_    0.787895 0.767806 0.792566 0.145555
H8    H     H_    0.232192 0.020083 0.792577 0.145543
H9    H     H_    0.979917 0.212109 0.792572 0.145552
H10   H     H_    0.570270 0.935546 0.376799 0.136212
H11   H     H_    0.064893 0.634514 0.376694 0.136298
H12   H     H_    0.365576 0.430654 0.376651 0.136299
H13   H     H_    0.618464 0.677685 0.223028 0.128032
H14   H     H_    0.322237 0.941346 0.223108 0.128061
H15   H     H_    0.058463 0.380676 0.223135 0.128051
H16   H     H_    0.659981 0.694600 0.136106 0.159317
H17   H     H_    0.305377 0.965933 0.136189 0.159569
H18   H     H_    0.033872 0.339244 0.136216 0.159740
H19   H     H_    0.618847 0.966815 0.291611 0.105377
H20   H     H_    0.033605 0.651867 0.291522 0.105392
H21   H     H_    0.348223 0.382031 0.291479 0.105369
H22   H     H_    0.756417 0.031982 0.232469 0.129798
H23   H     H_    0.968109 0.723894 0.232378 0.129855
H24   H     H_    0.276340 0.244509 0.232336 0.129830
H25   H     H_    0.724155 0.723341 0.296555 0.113993
H26   H     H_    0.276147 0.000886 0.296646 0.113980
H27   H     H_    0.999115 0.275059 0.296669 0.113970
H28   H     H_    0.668964 0.686806 0.381944 0.130929
H29   H     H_    0.312735 0.982192 0.382029 0.130895
H30   H     H_    0.017804 0.330344 0.382057 0.130856
H31   H     H_    0.837389 0.956536 0.703136 0.105193
H32   H     H_    0.043462 0.880871 0.703142 0.105189
H33   H     H_    0.119143 0.162607 0.703131 0.105191
H34   H     H_    0.777671 0.034694 0.790805 0.177430
H35   H     H_    0.965304 0.742988 0.790803 0.177429
H36   H     H_    0.257022 0.222317 0.790793 0.177430
H37   H     H_    0.867764 0.978327 0.785422 0.077713
H38   H     H_    0.021671 0.889445 0.785429 0.077715
H39   H     H_    0.110566 0.132230 0.785416 0.077710
H40   H     H_    0.614531 0.660700 0.720136 0.228168
H41   H     H_    0.339297 0.953826 0.720138 0.228175
H42   H     H_    0.046172 0.385478 0.720146 0.228168
H43   H     H_    0.759285 0.752058 0.710038 0.152753
H44   H     H_    0.247941 0.007230 0.710048 0.152744
H45   H     H_    0.992774 0.240723 0.710045 0.152738
H46   H     H_    0.642497 0.678602 0.802723 0.166621
H47   H     H_    0.321396 0.963883 0.802726 0.166623
H48   H     H_    0.036110 0.357508 0.802732 0.166610
O1    O     O_R   0.137310 0.468260 0.552980 -0.493887
O2    O     O_R   0.531740 0.669050 0.552980 -0.493881
O3    O     O_R   0.330950 0.862690 0.552980 -0.493890
O4    O     O_R   0.180530 0.983530 0.965090 -0.513123
O5    O     O_R   0.016470 0.197000 0.965090 -0.513157
O6    O     O_R   0.803000 0.819470 0.965090 -0.513123
O7    O     O_R   0.174120 0.688790 0.549730 -0.478313
O8    O     O_R   0.311210 0.485330 0.549730 -0.478313
O9    O     O_R   0.514670 0.825880 0.549730 -0.478327
O10   O     O_R   0.139940 0.470480 0.446230 -0.523160
O11   O     O_R   0.529520 0.669460 0.446230 -0.523245
O12   O     O_R   0.330540 0.860060 0.446230 -0.523146
O13   O     O_R   0.176560 0.690850 0.450770 -0.510550
O14   O     O_R   0.309150 0.485710 0.450770 -0.510564
O15   O     O_R   0.514290 0.823440 0.450770 -0.510516
O16   O     O_3   0.333333 0.666667 0.499990 -0.276705
O17   O     O_3   0.000000 0.000000 0.017910 -0.251822
O18   O     O_R   0.149710 0.171070 0.967700 -0.503103
O19   O     O_R   0.828930 0.978640 0.967700 -0.503155
O20   O     O_R   0.021360 0.850290 0.967700 -0.503113
O21   O     O_R   0.178510 0.985930 0.071830 -0.483730
O22   O     O_R   0.014070 0.192580 0.071830 -0.483495
O23   O     O_R   0.807420 0.821490 0.071830 -0.483502
O24   O     O_R   0.147830 0.173300 0.066650 -0.435719
O25   O     O_R   0.826700 0.974530 0.066650 -0.435804
O26   O     O_R   0.025470 0.852170 0.066650 -0.435714
F1    F     F_    0.466763 0.719604 0.727969 -0.508821
F2    F     F_    0.280392 0.747157 0.727957 -0.508811
F3    F     F_    0.252839 0.533236 0.727972 -0.508828
F4    F     F_    0.800331 0.069164 0.141432 -0.623462
F5    F     F_    0.931029 0.730565 0.141318 -0.623316
F6    F     F_    0.269666 0.200793 0.141269 -0.623432
F7    F     F_    0.532073 0.901950 0.720856 -0.532625
F8    F     F_    0.098045 0.630134 0.720840 -0.532622
F9    F     F_    0.369870 0.467915 0.720848 -0.532615
F10   F     F_    0.748195 0.034568 0.703771 -0.590273
F11   F     F_    0.965430 0.713650 0.703766 -0.590280
F12   F     F_    0.286364 0.251792 0.703758 -0.590273

loop_
_geom_bond_atom_site_label_1
_geom_bond_atom_site_label_2
_ccdc_geom_bond_type
C70   H37   S    
C58   C62   S    
C15   C18   T    
C40   H28   S    
C3    O9    A    
C2    C18   S    
C24   C42   A    
C21   O20   A    
C20   O6    A    
C1    O7    A    
Cr1   O10   S    
C63   O21   A    
C6    C9    S    
C34   O12   A    
C72   H39   S    
C25   C28   A    
C45   C57   A    
C33   C39   A    
Cr3   O9    S    
C66   F3    S    
C2    O1    A    
Cr4   O18   S    
Cr1   O7    S    
C21   O4    A    
C7    H43   S    
C37   C40   A    
C80   C83   S    
C26   H11   S    
C65   F2    S    
C5    C83   S    
C10   C73   T    
C36   O11   A    
Cr5   O17   S    
C15   C78   S    
C69   H33   S    
C67   F10   S    
Cr2   O8    S    
C81   H3    S    
C6    H48   S    
C12   C84   S    
Cr4   O21   S    
C23   C26   A    
C7    H40   S    
C53   H23   S    
Cr3   O12   S    
C19   O5    A    
C24   C27   A    
C66   F9    S    
C69   F12   S    
C32   C38   A    
C9    H42   S    
Cr1   O1    S    
C79   H1    S    
C44   C47   A    
Cr2   O2    S    
C4    H46   S    
Cr1   O16   S    
C49   C52   A    
C65   C80   S    
C4    H7    S    
C46   C58   A    
C27   C30   A    
C19   O18   A    
C14   C17   T    
C69   C78   S    
C4    C7    S    
C67   H31   S    
Cr4   O4    S    
C68   F11   S    
C45   H15   S    
C36   O15   A    
C48   C60   A    
C39   C42   A    
C71   C83   S    
C28   C31   A    
C44   H14   S    
C63   O26   A    
C66   C78   S    
C24   C35   S    
C6    C84   S    
C65   F8    S    
C8    H44   S    
C61   O24   A    
C50   C53   A    
Cr4   O17   S    
C29   H20   S    
C65   C77   S    
C35   O10   A    
C38   C41   A    
C49   F4    S    
C61   O22   A    
C68   H32   S    
C14   C77   S    
C81   H6    S    
Cr6   O23   S    
C11   C83   S    
Cr5   O5    S    
C21   C74   S    
C22   C25   A    
Cr3   O3    S    
C49   C58   A    
C31   C37   A    
Cr6   O26   S    
C60   C61   S    
C45   C48   A    
Cr6   O20   S    
C69   C72   S    
Cr1   O13   S    
C64   F1    S    
Cr2   O14   S    
C5    C8    S    
C38   H26   S    
C44   C56   A    
C25   H10   S    
C62   O25   A    
C13   C76   S    
C23   C34   S    
C22   C40   A    
C8    H41   S    
Cr3   O15   S    
C64   C76   S    
Cr3   O16   S    
C41   H29   S    
C80   H5    S    
C5    H47   S    
C80   H2    S    
C3    O2    A    
C72   C84   S    
C79   H4    S    
C9    H45   S    
C43   C55   A    
C47   H17   S    
C20   O19   A    
C8    C77   S    
C64   C79   S    
C71   H38   S    
Cr2   O11   S    
C51   C60   A    
C35   O14   A    
C50   C59   A    
C81   C84   S    
Cr5   O22   S    
C53   C56   A    
C68   C77   S    
C33   C57   S    
C30   C33   A    
C59   C63   S    
C51   F6    S    
C11   C74   T    
C54   H24   S    
C79   C82   S    
C34   O13   A    
C52   C55   A    
C13   C16   T    
Cr5   O19   S    
C7    C76   S    
C37   H25   S    
C28   H19   S    
C2    O8    A    
C22   C36   S    
C27   H12   S    
C1    C17   S    
C23   C41   A    
C30   H21   S    
C67   C70   S    
C6    H9    S    
C51   C54   A    
C64   F7    S    
C19   C75   S    
Cr2   O16   S    
C29   C32   A    
C39   H27   S    
C66   C81   S    
Cr5   O25   S    
C42   H30   S    
C48   H18   S    
C68   C71   S    
Cr4   O24   S    
C46   H16   S    
C10   C82   S    
C20   C73   S    
C50   F5    S    
C9    C78   S    
C70   C82   S    
C43   C46   A    
C43   H13   S    
C1    O3    A    
C47   C59   A    
C62   O23   A    
C70   H34   S    
C4    C82   S    
C5    H8    S    
C26   C29   A    
C12   C75   T    
C72   H36   S    
C52   H22   S    
C71   H35   S    
C67   C76   S    
C31   C55   S    
Cr6   O17   S    
C32   C56   S    
Cr6   O6    S    
C3    C16   S    
C54   C57   A    
