data_mof_unit_32786.cif
_audit_creation_date              2012-12-11T14:08:05-0500
_audit_creation_method            fapswitch 2.2
_symmetry_space_group_name_H-M    P1
_symmetry_Int_Tables_number       1
_space_group_crystal_system       triclinic
_cell_length_a                    10.98955
_cell_length_b                    10.974165
_cell_length_c                    18.651966
_cell_angle_alpha                 90.10594
_cell_angle_beta                  89.363715
_cell_angle_gamma                 59.987308
_cell_volume                      1947.63884039

loop_
_atom_site_label
_atom_site_type_symbol
_atom_type_description
_atom_site_fract_x
_atom_site_fract_y
_atom_site_fract_z
_atom_type_partial_charge
C1    C     C_R   0.230717 0.648246 0.607192 0.527849
C2    C     C_3   0.745276 0.543217 0.797533 -0.207986
C3    C     C_3   0.720133 0.693406 0.807776 0.035577
C4    C     C_3   0.676967 0.656294 0.674084 0.057944
C5    C     C_3   0.791747 0.698584 0.677012 -0.292541
C6    C     C_3   0.732591 0.517444 0.719171 0.029866
C7    C     C_2   0.679561 0.136705 0.665139 -0.121197
C8    C     C_2   0.700662 0.144135 0.822095 -0.130817
C9    C     C_2   0.812196 0.077862 0.776756 -0.195271
C10   C     C_2   0.798509 0.106882 0.698697 -0.182874
C11   C     C_2   0.169467 0.668599 0.679184 -0.127970
C12   C     C_R   0.654795 0.624117 0.600449 0.560324
C13   C     C_2   0.189085 0.664659 0.837114 -0.128796
C14   C     C_2   0.183094 0.564878 0.798184 -0.188017
C15   C     C_2   0.200245 0.555877 0.719886 -0.194792
C16   C     C_2   0.650607 0.646173 0.317107 -0.089059
C17   C     C_2   0.632586 0.665420 0.159539 -0.112250
C18   C     C_2   0.705618 0.545411 0.195146 -0.163538
C19   C     C_2   0.686980 0.537038 0.271903 -0.146464
C20   C     C_2   0.675034 0.138059 0.333333 -0.111031
C21   C     C_2   0.650962 0.146452 0.179116 -0.097216
C22   C     C_2   0.610673 0.074528 0.222209 -0.152340
C23   C     C_R   0.630035 0.222502 0.600029 0.560307
C24   C     C_2   0.594577 0.098874 0.298776 -0.162952
C25   C     C_2   0.121955 0.681904 0.345685 -0.107145
C26   C     C_2   0.111922 0.691403 0.191028 -0.089947
C27   C     C_2   0.042191 0.804831 0.234560 -0.146864
C28   C     C_2   0.075257 0.800712 0.309696 -0.166279
C29   C     C_R   0.706705 0.095465 0.895556 0.545810
C30   C     C_R   0.753030 0.709694 0.882643 0.544836
C31   C     C_R   0.118554 0.706439 0.907007 0.544237
C32   C     C_R   0.675243 0.105342 0.104972 0.550471
C33   C     C_R   0.692002 0.688573 0.094648 0.558123
C34   C     C_R   0.215581 0.651654 0.404827 0.558377
C35   C     C_R   0.085688 0.713548 0.115442 0.554937
C36   C     C_R   0.641820 0.621408 0.392714 0.548398
C37   C     C_R   0.621329 0.223144 0.397344 0.550240
C38   C     C_3   0.564873 0.804399 0.786179 0.038898
C39   C     C_3   0.541576 0.782223 0.707296 -0.184025
C40   C     C_3   0.821305 0.713977 0.756607 -0.292591
Cr1   Cr    Cr6+3 0.393010 0.398050 0.501480 1.013786
Cr2   Cr    Cr6+3 0.398820 0.707980 0.501630 1.011651
Cr3   Cr    Cr6+3 0.708140 0.393940 0.496850 1.021739
Cr4   Cr    Cr6+3 0.937950 0.938450 0.008940 1.009076
Cr5   Cr    Cr6+3 0.626180 0.937030 0.994750 1.005925
Cr6   Cr    Cr6+3 0.937790 0.625760 0.001410 1.012650
H1    H     H_    0.554286 0.910736 0.791359 0.146443
H2    H     H_    0.842417 0.445453 0.699589 0.142006
H3    H     H_    0.930207 0.632656 0.768389 0.141677
H4    H     H_    0.915189 0.002907 0.797057 0.147816
H5    H     H_    0.878592 0.121139 0.671785 0.151195
H6    H     H_    0.597721 0.218877 0.801811 0.100818
H7    H     H_    0.604960 0.113697 0.691890 0.102120
H8    H     H_    0.156224 0.492016 0.823289 0.149794
H9    H     H_    0.244985 0.451638 0.695968 0.154857
H10   H     H_    0.223013 0.732425 0.812532 0.115137
H11   H     H_    0.120642 0.773463 0.702694 0.108264
H12   H     H_    0.791874 0.453218 0.169418 0.153447
H13   H     H_    0.716830 0.433223 0.292461 0.150053
H14   H     H_    0.541034 0.754785 0.183880 0.104471
H15   H     H_    0.619636 0.751353 0.298579 0.086413
H16   H     H_    0.582126 0.000264 0.200551 0.150726
H17   H     H_    0.680440 0.220856 0.199285 0.084670
H18   H     H_    0.769757 0.127751 0.308476 0.094749
H19   H     H_    0.970602 0.908159 0.212989 0.157255
H20   H     H_    0.448244 0.769628 0.702008 0.160238
H21   H     H_    0.079407 0.890189 0.331872 0.152191
H22   H     H_    0.109099 0.596440 0.324838 0.113170
H23   H     H_    0.811507 0.818667 0.765698 0.122967
H24   H     H_    0.853054 0.462158 0.813973 0.117991
H25   H     H_    0.671827 0.526616 0.831980 0.138426
O1    O     O_R   0.507110 0.256280 0.580300 -0.529227
O2    O     O_R   0.524640 0.695370 0.425100 -0.493942
O3    O     O_R   0.735890 0.504390 0.415980 -0.516420
O4    O     O_R   0.690560 0.277820 0.422350 -0.511737
O5    O     O_3   0.499990 0.499990 0.499980 -0.245785
O6    O     O_R   0.089190 0.825870 0.932320 -0.528415
O7    O     O_R   0.819070 0.053960 0.931440 -0.493857
O8    O     O_R   0.607070 0.076440 0.916460 -0.527533
O9    O     O_R   0.647110 0.806550 0.917690 -0.500473
O10   O     O_R   0.837080 0.593860 0.915300 -0.532788
O11   O     O_R   0.064770 0.636080 0.932550 -0.507003
O12   O     O_R   0.280830 0.527190 0.577940 -0.500048
O13   O     O_R   0.068250 0.829200 0.092940 -0.513614
O14   O     O_R   0.799650 0.057040 0.080330 -0.502348
O15   O     O_R   0.586130 0.079760 0.077080 -0.509264
O16   O     O_R   0.627700 0.809630 0.066580 -0.500331
O17   O     O_R   0.816140 0.597180 0.075920 -0.506107
O18   O     O_R   0.045360 0.639170 0.081440 -0.492197
O19   O     O_3   0.833980 0.833750 0.001700 -0.265535
O20   O     O_R   0.261360 0.738990 0.584270 -0.529302
O21   O     O_R   0.532590 0.694780 0.574370 -0.520289
O22   O     O_R   0.744470 0.503750 0.577000 -0.506318
O23   O     O_R   0.698520 0.277230 0.571620 -0.472886
O24   O     O_R   0.498530 0.256920 0.419280 -0.511849
O25   O     O_R   0.272880 0.527780 0.428680 -0.498808
O26   O     O_R   0.252780 0.739630 0.423250 -0.511494
H26   H     H_    0.890317 0.617822 0.649945 0.132028
N1    N     N_2   0.456885 0.799192 0.830476 -0.532887
H27   H     H_    0.488194 0.731799 0.873436 0.274879
C41   C     C_3   0.330673 0.932964 0.843793 -0.320278
H28   H     H_    0.251512 0.915944 0.872345 0.162763
H29   H     H_    0.285274 0.986473 0.792343 0.135136
H30   H     H_    0.354980 0.001183 0.877721 0.161833
H31   H     H_    0.504884 0.100125 0.324669 0.156049
H32   H     H_    0.184895 0.586773 0.210333 0.094250
H33   H     H_    0.514638 0.879779 0.677044 0.086290
H34   H     H_    0.756945 0.799575 0.648548 0.123465
N2    N     N_2   0.661349 0.437192 0.710940 -0.501798
H35   H     H_    0.709576 0.349053 0.741947 0.254443
C42   C     C_3   0.511420 0.504928 0.719799 -0.270847
H36   H     H_    0.480277 0.423312 0.721719 0.135646
H37   H     H_    0.461687 0.570315 0.672814 0.191543
H38   H     H_    0.475334 0.567331 0.770131 0.149101

loop_
_geom_bond_atom_site_label_1
_geom_bond_atom_site_label_2
_ccdc_geom_bond_type
C7    C10   D    
C41   H28   S    
C42   H36   S    
C1    C11   S    
C39   H20   S    
C26   H32   S    
Cr3   O23   S    
Cr6   O18   S    
C25   C28   D    
C39   H33   S    
C26   C27   D    
C31   O11   A    
C6    H2    S    
C8    C29   S    
Cr4   O6    S    
Cr5   O16   S    
C33   O17   A    
C34   O25   A    
Cr2   O20   S    
N2    C42   S    
C38   C39   S    
Cr1   O25   S    
C40   H3    S    
Cr1   O12   S    
C34   O26   A    
C37   O24   A    
C18   C19   S    
Cr6   O11   S    
C11   C15   D    
C18   H12   S    
C29   O7    A    
C20   C24   D    
C3    C38   S    
C8    C9    D    
C4    C12   S    
C9    C10   S    
C8    H6    S    
C25   C34   S    
C13   H10   S    
C30   O9    A    
Cr3   O3    S    
C37   O4    A    
C1    O20   A    
C13   C14   D    
C2    C6    S    
C25   H22   S    
C17   C33   S    
C10   H5    S    
C12   O21   A    
C31   O6    A    
Cr6   O17   S    
Cr3   O4    S    
C21   C32   S    
C40   H23   S    
C28   H21   S    
C42   H37   S    
Cr2   O26   S    
C38   N1    S    
C19   H13   S    
C15   H9    S    
C20   H18   S    
C3    C30   S    
C27   H19   S    
C22   H16   S    
Cr6   O10   S    
N1    H27   S    
C29   O8    A    
C4    C39   S    
C32   O15   A    
C17   C18   D    
Cr5   O8    S    
Cr5   O19   S    
C38   H1    S    
C36   O3    A    
Cr1   O1    S    
C35   O18   A    
C4    C6    S    
C14   H8    S    
C3    C40   S    
C41   H30   S    
C6    N2    S    
C22   C24   S    
C12   O22   A    
C16   H15   S    
C7    H7    S    
C2    H25   S    
Cr4   O19   S    
Cr3   O5    S    
Cr2   O2    S    
N1    C41   S    
C23   O1    A    
C13   C31   S    
C9    H4    S    
C4    C5    S    
Cr4   O13   S    
C35   O13   A    
Cr6   O19   S    
C1    O12   A    
Cr5   O9    S    
Cr2   O5    S    
C23   O23   A    
C30   O10   A    
Cr4   O7    S    
C2    C3    S    
C33   O16   A    
C11   H11   S    
N2    H35   S    
C16   C36   S    
Cr1   O5    S    
C20   C37   S    
Cr1   O24   S    
C2    H24   S    
C16   C19   D    
C7    C23   S    
C32   O14   A    
Cr3   O22   S    
Cr5   O15   S    
C42   H38   S    
Cr2   O21   S    
C21   H17   S    
C36   O2    A    
C17   H14   S    
C26   C35   S    
C5    H26   S    
C41   H29   S    
C5    C40   S    
C27   C28   S    
C14   C15   S    
C24   H31   S    
C21   C22   D    
Cr4   O14   S    
C5    H34   S    
