data_mof_unit_20624.cif
_audit_creation_date              2012-12-11T14:19:32-0500
_audit_creation_method            fapswitch 2.2
_symmetry_space_group_name_H-M    P1
_symmetry_Int_Tables_number       1
_space_group_crystal_system       triclinic
_cell_length_a                    19.43886
_cell_length_b                    7.231365
_cell_length_c                    17.76678
_cell_angle_alpha                 90.037169
_cell_angle_beta                  107.709406
_cell_angle_gamma                 89.962006
_cell_volume                      2379.11536658

loop_
_atom_site_label
_atom_site_type_symbol
_atom_type_description
_atom_site_fract_x
_atom_site_fract_y
_atom_site_fract_z
_atom_type_partial_charge
O1    O     O_R   0.414820 0.494320 0.416790 -0.541291
O2    O     O_R   0.585180 0.994320 0.583210 -0.540779
O3    O     O_R   0.560270 0.819500 0.430140 -0.535065
O4    O     O_R   0.439730 0.319500 0.569860 -0.534472
C1    C     C_R   0.580998 0.655623 0.414700 0.765676
C2    C     C_R   0.418961 0.155801 0.585325 0.764934
O5    O     O_R   0.413840 0.823740 0.407440 -0.506417
O6    O     O_R   0.586160 0.323740 0.592560 -0.505975
O7    O     O_R   0.437710 0.998590 0.560350 -0.543768
O8    O     O_R   0.562290 0.498590 0.439650 -0.543641
C3    C     C_R   0.386515 0.655314 0.386691 0.732991
C4    C     C_R   0.613448 0.155298 0.613367 0.733387
O9    O     O_3   0.508000 0.662290 0.550200 -0.379850
O10   O     O_3   0.492000 0.162290 0.449800 -0.379943
V1    V     V_3+5 0.498520 0.935380 0.490690 1.496283
V2    V     V_3+5 0.501480 0.435380 0.509310 1.497307
C5    C     C_2   0.798495 0.254887 0.770595 0.223308
C6    C     C_2   0.201211 0.754876 0.229715 0.227958
C7    C     C_2   0.814296 0.118266 0.825757 0.112839
C8    C     C_2   0.185643 0.618431 0.174382 0.114926
C9    C     C_2   0.723088 0.284323 0.715191 0.401611
C10   C     C_2   0.276483 0.784425 0.285464 0.399924
C11   C     C_2   0.684361 0.140081 0.675497 -0.332157
C12   C     C_2   0.315612 0.640057 0.324546 -0.328669
H1    H     H_    0.707213 0.001979 0.686296 0.150970
H2    H     H_    0.293101 0.501753 0.313288 0.150011
C13   C     C_R   0.311124 0.269219 0.620435 0.350998
C14   C     C_R   0.689797 0.765167 0.381043 0.351867
C15   C     C_R   0.371251 0.149462 0.636767 -0.288968
C16   C     C_R   0.628731 0.648770 0.363399 -0.288604
C17   C     C_R   0.385197 0.024740 0.701439 0.293017
C18   C     C_R   0.614142 0.526123 0.297919 0.294025
C19   C     C_R   0.336616 0.013423 0.747185 -0.077219
C20   C     C_R   0.662765 0.514433 0.252243 -0.077002
C21   C     C_R   0.275504 0.131340 0.729291 -0.101509
C22   C     C_R   0.724022 0.631618 0.270406 -0.102225
C23   C     C_R   0.262179 0.255844 0.664856 0.036815
C24   C     C_R   0.738468 0.752237 0.336291 0.035684
C25   C     C_R   0.348061 0.887165 0.810967 0.391052
C26   C     C_R   0.651411 0.387907 0.188518 0.392970
C27   C     C_R   0.303288 0.891132 0.860695 0.279501
C28   C     C_R   0.696627 0.390299 0.139256 0.275537
C29   C     C_R   0.241591 0.006903 0.842182 -0.092648
C30   C     C_R   0.758046 0.506962 0.157512 -0.094510
C31   C     C_R   0.227094 0.124880 0.775447 -0.076647
C32   C     C_R   0.771800 0.627235 0.223500 -0.075128
C33   C     C_R   0.164611 0.239184 0.755211 0.056324
C34   C     C_R   0.833475 0.744075 0.242964 0.055232
C35   C     C_R   0.152640 0.360054 0.690620 -0.167401
C36   C     C_R   0.848996 0.852095 0.311866 -0.169247
C37   C     C_R   0.199719 0.365558 0.645561 -0.148856
C38   C     C_R   0.802540 0.855476 0.357674 -0.148991
C39   C     C_R   0.194444 0.009654 0.889712 0.412121
C40   C     C_R   0.806293 0.506070 0.111216 0.403547
C41   C     C_R   0.131546 0.119764 0.867953 -0.224306
C42   C     C_R   0.868070 0.620425 0.131791 -0.227581
C43   C     C_R   0.115842 0.231867 0.800459 0.255234
C44   C     C_R   0.880117 0.744604 0.195229 0.255793
H3    H     H_    0.107287 0.454214 0.674385 0.133918
H4    H     H_    0.897899 0.933092 0.332341 0.135494
H5    H     H_    0.186478 0.457537 0.595196 0.158388
H6    H     H_    0.817800 0.939249 0.410654 0.158442
O11   O     O_R   0.937810 0.773680 0.060480 -0.524226
O12   O     O_R   0.062190 0.273680 0.939520 -0.521950
O13   O     O_R   0.086190 0.439740 0.092580 -0.561752
O14   O     O_R   0.913810 0.939740 0.907420 -0.561311
C45   C     C_R   0.113183 0.608522 0.113649 0.724498
C46   C     C_R   0.886803 0.108502 0.886379 0.721616
O15   O     O_R   0.939760 0.444210 0.069890 -0.530861
O16   O     O_R   0.060240 0.944210 0.930110 -0.529046
O17   O     O_R   0.914790 0.269640 0.916760 -0.513192
O18   O     O_R   0.085210 0.769640 0.083240 -0.512815
C47   C     C_R   0.919319 0.612582 0.084796 0.787184
C48   C     C_R   0.080665 0.112384 0.915259 0.789769
O19   O     O_3   0.992050 0.601530 0.949880 -0.370364
O20   O     O_3   0.007950 0.101530 0.050120 -0.373613
V3    V     V_3+5 0.001480 0.328340 0.009300 1.550680
V4    V     V_3+5 0.998520 0.828340 0.990700 1.555362
O21   O     O_3   0.853022 0.374558 0.767161 -0.638985
H7    H     H_    0.833883 0.458853 0.721602 0.317149
O22   O     O_3   0.146497 0.874274 0.233024 -0.636018
H8    H     H_    0.165374 0.958386 0.278723 0.319872
O23   O     O_3   0.051746 0.329715 0.779747 -0.621879
H9    H     H_    0.030228 0.323061 0.721659 0.291358
O24   O     O_3   0.939406 0.859949 0.210696 -0.620112
H10   H     H_    0.925032 0.983168 0.225106 0.296076
O25   O     O_3   0.760442 0.997792 0.830310 -0.679849
H11   H     H_    0.779645 0.917017 0.877075 0.280069
O26   O     O_3   0.239647 0.498350 0.169754 -0.679636
H12   H     H_    0.220538 0.417601 0.122941 0.280350
O27   O     O_3   0.697995 0.462991 0.694960 -0.544422
C49   C     C_3   0.696476 0.559686 0.763329 -0.194089
H13   H     H_    0.665010 0.483237 0.796238 0.118671
H14   H     H_    0.668954 0.694080 0.745030 0.187956
H15   H     H_    0.751909 0.590048 0.802291 0.144169
O28   O     O_3   0.300924 0.963089 0.306753 -0.544916
C50   C     C_3   0.303657 0.061001 0.239184 -0.192821
H16   H     H_    0.336438 0.986004 0.207295 0.119414
H17   H     H_    0.330467 0.195794 0.258369 0.187142
H18   H     H_    0.248590 0.090500 0.199073 0.143179
O29   O     O_3   0.296577 0.385985 0.555449 -0.553138
C51   C     C_3   0.322227 0.565872 0.580390 -0.153489
H19   H     H_    0.376503 0.566045 0.625475 0.149693
H20   H     H_    0.283506 0.642605 0.603480 0.107819
H21   H     H_    0.327139 0.643509 0.528453 0.151203
O30   O     O_3   0.705468 0.877303 0.447594 -0.552727
C52   C     C_3   0.682699 0.060336 0.424945 -0.165039
H22   H     H_    0.627663 0.067082 0.381532 0.149986
H23   H     H_    0.721598 0.132917 0.400759 0.108173
H24   H     H_    0.680852 0.137628 0.478235 0.149822
O31   O     O_3   0.446880 0.916728 0.722421 -0.602194
H25   H     H_    0.485671 0.979741 0.706898 0.282794
O32   O     O_3   0.551874 0.420472 0.276111 -0.601356
H26   H     H_    0.513572 0.483061 0.292716 0.282148
O33   O     O_3   0.404406 0.761162 0.826250 -0.524157
C53   C     C_3   0.376357 0.584145 0.800044 -0.151350
H27   H     H_    0.332457 0.588698 0.742825 0.104520
H28   H     H_    0.356180 0.514967 0.844966 0.146147
H29   H     H_    0.420423 0.497486 0.791303 0.157127
O34   O     O_3   0.595173 0.261787 0.173275 -0.523820
C54   C     C_3   0.623246 0.086443 0.202085 -0.152003
H30   H     H_    0.663908 0.094439 0.261472 0.104577
H31   H     H_    0.647598 0.017127 0.160504 0.142724
H32   H     H_    0.578320 0.998147 0.207427 0.159170
O35   O     O_3   0.318954 0.780508 0.927255 -0.611739
H33   H     H_    0.370673 0.745683 0.943633 0.319025
O36   O     O_3   0.681684 0.277276 0.073406 -0.614095
H34   H     H_    0.630265 0.239844 0.057297 0.319887
O37   O     O_3   0.206875 0.895448 0.955053 -0.515212
C55   C     C_3   0.242824 0.997606 0.023379 -0.128415
H35   H     H_    0.207571 0.107372 0.035516 0.067100
H36   H     H_    0.294003 0.059290 0.019183 0.143417
H37   H     H_    0.256902 0.901687 0.074441 0.153925
O38   O     O_3   0.795384 0.386654 0.047643 -0.516991
C56   C     C_3   0.759629 0.482946 0.977527 -0.124432
H38   H     H_    0.794744 0.591039 0.964047 0.065932
H39   H     H_    0.708099 0.545844 0.980137 0.142285
H40   H     H_    0.746208 0.382694 0.927950 0.154813

loop_
_geom_bond_atom_site_label_1
_geom_bond_atom_site_label_2
_ccdc_geom_bond_type
C56   H40   S    
O14   C46   A    
O25   H11   S    
O29   C51   S    
C13   C15   A    
C27   C29   A    
O12   V3    S    
C8    C45   S    
O15   V3    S    
O31   H25   S    
O1    C3    A    
O2    C4    A    
C2    O7    A    
O22   H8    S    
C56   H38   S    
C25   C27   A    
O24   H10   S    
O5    C3    A    
C4    C11   S    
C19   C25   A    
C20   C26   A    
C21   C23   A    
C12   H2    S    
C1    C16   S    
C7    O25   S    
C23   C37   A    
O16   V4    S    
O30   C52   S    
O33   C53   S    
C40   O38   S    
C3    C12   S    
C5    O21   S    
C6    O22   S    
C53   H27   S    
C51   H21   S    
C45   O18   A    
C54   H32   S    
O18   V4    S    
C19   C21   A    
C41   C48   S    
C29   C39   A    
C14   O30   S    
C14   C16   A    
C35   C37   A    
C37   H5    S    
O16   C48   A    
C36   C38   A    
C52   H22   S    
C17   C19   A    
O15   C47   A    
C18   O32   S    
C20   C22   A    
C34   C36   A    
O6    V2    S    
C52   H23   S    
C28   C30   A    
C50   H17   S    
C30   C32   A    
C50   H16   S    
C32   C34   A    
C31   C33   A    
O14   V4    S    
C40   C42   A    
O13   V3    S    
C27   O35   S    
O20   V3    S    
C33   C35   A    
C43   O23   S    
O27   C49   S    
O11   C47   A    
O13   C45   A    
C42   C44   A    
C13   O29   S    
C49   H15   S    
C5    C9    S    
C18   C20   A    
O4    V2    S    
C55   H36   S    
C33   C43   A    
O23   H9    S    
C14   C24   A    
O6    C4    A    
O28   C50   S    
C49   H14   S    
C7    C46   S    
O1    V2    S    
C51   H20   S    
O2    V1    S    
C29   C31   A    
C54   H30   S    
C28   O36   S    
O4    C2    A    
C26   O34   S    
C25   O33   S    
C41   C43   A    
O35   H33   S    
C52   H24   S    
C10   C12   D    
C55   H37   S    
C39   O37   S    
C39   C41   A    
O36   H34   S    
C21   C31   A    
C44   O24   S    
O17   V3    S    
C50   H18   S    
O3    V1    S    
O34   C54   S    
O32   H26   S    
C9    O27   S    
C56   H39   S    
O12   C48   A    
C42   C47   S    
C6    C10   S    
C10   O28   S    
C26   C28   A    
O3    C1    A    
C34   C44   A    
O38   C56   S    
C8    O26   S    
C35   H3    S    
C53   H29   S    
C36   H4    S    
C9    C11   D    
C55   H35   S    
O37   C55   S    
C1    O8    A    
C15   C17   A    
O8    V2    S    
C22   C24   A    
C16   C18   A    
C22   C32   A    
C13   C23   A    
C46   O17   A    
O5    V1    S    
C49   H13   S    
C5    C7    D    
C53   H28   S    
C6    C8    D    
C11   H1    S    
O7    V1    S    
C51   H19   S    
O19   V4    S    
C54   H31   S    
O21   H7    S    
C30   C40   A    
C2    C15   S    
C24   C38   A    
O9    V2    S    
C17   O31   S    
O10   V1    S    
C38   H6    S    
O26   H12   S    
O11   V4    S    
