data_mof_unit_40254.cif
_audit_creation_date              2012-12-11T16:56:16-0500
_audit_creation_method            fapswitch 2.2
_symmetry_space_group_name_H-M    P1
_symmetry_Int_Tables_number       1
_space_group_crystal_system       triclinic
_cell_length_a                    6.958154
_cell_length_b                    14.604684
_cell_length_c                    16.149645
_cell_angle_alpha                 90.371231
_cell_angle_beta                  90.232695
_cell_angle_gamma                 89.933254
_cell_volume                      1641.10437066

loop_
_atom_site_label
_atom_site_type_symbol
_atom_type_description
_atom_site_fract_x
_atom_site_fract_y
_atom_site_fract_z
_atom_type_partial_charge
O1    O     O_R   0.505830 0.583360 0.413880 -0.539704
O2    O     O_R   0.175830 0.595460 0.585520 -0.543462
O3    O     O_R   0.005520 0.416640 0.586120 -0.543787
C1    C     C_R   0.344841 0.617479 0.614406 0.693831
O4    O     O_R   0.176120 0.594390 0.414490 -0.545642
O5    O     O_R   0.005810 0.415570 0.413870 -0.548231
C2    C     C_R   0.344448 0.615549 0.385346 0.689142
O6    O     O_R   0.505540 0.584430 0.586130 -0.538398
O7    O     O_3   0.339200 0.441330 0.500000 -0.365491
V1    V     V_3+5 0.064350 0.510880 0.500000 1.381865
O8    O     O_R   0.676100 0.404540 0.414480 -0.528371
C3    C     C_R   0.844592 0.384091 0.384914 0.716795
O9    O     O_R   0.675810 0.405610 0.585510 -0.533567
C4    C     C_R   0.845301 0.383614 0.613549 0.753877
V2    V     V_3+5 0.564340 0.489120 0.500000 1.426902
O10   O     O_3   0.839360 0.558670 0.500000 -0.376976
C5    C     C_2   0.720792 0.208355 0.785184 -0.135233
C6    C     C_2   0.885157 0.181607 0.822505 -0.313962
H1    H     H_    0.585316 0.179399 0.805440 0.136347
H2    H     H_    0.022229 0.209857 0.804273 0.127604
C7    C     C_2   0.708896 0.276847 0.717197 -0.129459
C8    C     C_2   0.862039 0.315241 0.680277 -0.311115
H3    H     H_    0.565390 0.295654 0.696721 0.135843
H4    H     H_    0.006759 0.297040 0.698732 0.126477
C9    C     C_R   0.727867 0.190246 0.237871 -0.063035
C10   C     C_R   0.881945 0.184855 0.183357 -0.102422
C11   C     C_R   0.030321 0.249646 0.196848 -0.189582
H5    H     H_    0.155977 0.249656 0.157525 0.121527
C12   C     C_R   0.017759 0.315288 0.262045 -0.195409
H6    H     H_    0.134417 0.363456 0.270559 0.121940
C13   C     C_R   0.855314 0.319032 0.314874 -0.099336
C14   C     C_R   0.710006 0.256327 0.297556 -0.018543
C15   C     C_3   0.520729 0.221518 0.327726 0.264469
C16   C     C_3   0.550155 0.141746 0.264602 0.239981
H7    H     H_    0.404281 0.270439 0.311002 0.027745
H8    H     H_    0.438799 0.140986 0.215080 0.057988
C17   C     C_R   0.508351 0.682224 0.741515 0.103173
C18   C     C_R   0.353430 0.682357 0.685720 -0.112928
C19   C     C_R   0.201398 0.743401 0.702648 -0.178650
H9    H     H_    0.078477 0.746038 0.661675 0.133597
C20   C     C_R   0.212403 0.806156 0.769333 -0.176834
H10   H     H_    0.097154 0.855017 0.777665 0.127804
C21   C     C_R   0.376106 0.810155 0.821101 -0.110403
C22   C     C_R   0.519749 0.744608 0.807220 0.101873
C23   C     C_3   0.730121 0.757648 0.795551 -0.410091
C24   C     C_3   0.717853 0.689389 0.724332 -0.399374
H11   H     H_    0.815256 0.732138 0.849039 0.174850
H12   H     H_    0.764921 0.828281 0.775338 0.167072
H13   H     H_    0.795217 0.624248 0.736782 0.168999
H14   H     H_    0.746267 0.720198 0.662831 0.169822
C25   C     C_R   0.516899 0.737915 0.306394 0.107625
C26   C     C_R   0.352756 0.684580 0.318357 -0.112264
C27   C     C_R   0.199147 0.696555 0.262554 -0.186654
H15   H     H_    0.074366 0.653170 0.266857 0.140202
C28   C     C_R   0.211761 0.759316 0.196760 -0.195362
H16   H     H_    0.094376 0.764029 0.152964 0.136427
C29   C     C_R   0.379202 0.811380 0.184296 -0.118687
C30   C     C_R   0.530639 0.799371 0.240480 0.158193
C31   C     C_3   0.729712 0.768140 0.221616 -0.439360
C32   C     C_3   0.715922 0.703854 0.294304 -0.412670
H17   H     H_    0.836975 0.822638 0.231315 0.190200
H18   H     H_    0.739771 0.731993 0.160937 0.167332
H19   H     H_    0.810767 0.723009 0.347139 0.175421
H20   H     H_    0.721310 0.630349 0.275922 0.167082
O11   O     O_R   0.229930 0.912420 0.917160 -0.541514
O12   O     O_R   0.559420 0.902500 0.088780 -0.538066
O13   O     O_R   0.729660 0.081330 0.089380 -0.533059
C33   C     C_R   0.390593 0.879292 0.116340 0.720722
O14   O     O_R   0.559650 0.901420 0.917750 -0.541191
O15   O     O_R   0.729880 0.080250 0.917130 -0.538096
C34   C     C_R   0.390395 0.879600 0.888675 0.688499
O16   O     O_R   0.229700 0.913500 0.089410 -0.540369
O17   O     O_3   0.396250 0.055540 0.003280 -0.371164
V3    V     V_3+5 0.671130 0.986010 0.003260 1.408033
O18   O     O_R   0.059600 0.091310 0.917720 -0.545714
C35   C     C_R   0.890644 0.113112 0.889501 0.739264
O19   O     O_R   0.059370 0.092380 0.088750 -0.545656
C36   C     C_R   0.890860 0.114898 0.116871 0.703215
V4    V     V_3+5 0.171120 0.007820 0.003230 1.393683
O20   O     O_3   0.896130 0.938240 0.003240 -0.374247
O21   O     O_3   0.579388 0.052149 0.298032 -0.561830
C37   C     C_3   0.742814 0.040284 0.350621 0.165890
H21   H     H_    0.700170 0.990131 0.398599 0.141125
H22   H     H_    0.788135 0.102437 0.385047 0.143743
C38   C     C_3   0.917616 0.003617 0.302878 -0.357647
H23   H     H_    0.870968 0.970858 0.244156 0.208267
H24   H     H_    0.013783 0.061289 0.286904 0.179754
C39   C     C_3   0.035984 0.936504 0.354344 -0.826756
H25   H     H_    0.086038 0.970024 0.412459 0.221286
H26   H     H_    0.163571 0.913948 0.318557 0.254691
H27   H     H_    0.949021 0.875501 0.370149 0.229917
O22   O     O_3   0.525626 0.196648 0.412015 -0.545662
C40   C     C_3   0.337498 0.175778 0.437805 -0.209199
H28   H     H_    0.271897 0.121194 0.398508 0.147476
H29   H     H_    0.245279 0.238087 0.437667 0.142111
H30   H     H_    0.343813 0.150056 0.502232 0.145498

loop_
_geom_bond_atom_site_label_1
_geom_bond_atom_site_label_2
_ccdc_geom_bond_type
O12   C33   A    
C28   H16   S    
C40   H28   S    
O11   V4    S    
C11   C12   A    
O17   V3    S    
C27   C28   A    
C1    O6    A    
O21   C37   S    
C19   C20   A    
C38   H23   S    
C22   C23   S    
C24   H13   S    
C10   C11   A    
C10   C36   S    
C32   H19   S    
C17   C18   A    
C2    C26   S    
O16   V4    S    
O5    C3    A    
C18   C19   A    
C23   H12   S    
V2    O10   S    
O12   V3    S    
C20   H10   S    
O14   C34   A    
C15   H7    S    
O8    V2    S    
O15   V3    S    
C6    C35   S    
O1    V2    S    
C16   O21   S    
O7    V1    S    
C6    H2    S    
O19   C36   A    
C9    C16   S    
C9    C14   A    
O19   V4    S    
C31   C32   S    
C40   H29   S    
V3    O20   S    
O9    C4    A    
C20   C21   A    
O13   C36   A    
C15   C16   S    
C23   H11   S    
C31   H17   S    
C38   H24   S    
C25   C26   A    
C15   O22   S    
C19   H9    S    
O4    C2    A    
C30   C31   S    
C23   C24   S    
C5    C7    S    
O2    C1    A    
O18   C35   A    
C12   H6    S    
C13   C14   A    
C39   H27   S    
C33   O16   A    
C5    C6    D    
O17   V4    S    
O14   V3    S    
C25   C30   A    
O9    V2    S    
O3    C4    A    
C39   H26   S    
O6    V2    S    
C37   H22   S    
C28   C29   A    
C3    C13   S    
O15   C35   A    
C8    H4    S    
C29   C33   S    
O2    V1    S    
C26   C27   A    
C38   C39   S    
C31   H18   S    
C21   C34   S    
O1    C2    A    
C1    C18   S    
O5    V1    S    
O8    C3    A    
C27   H15   S    
C40   H30   S    
C37   C38   S    
C24   H14   S    
C32   H20   S    
C14   C15   S    
C4    C8    S    
C17   C22   A    
C7    H3    S    
C9    C10   A    
O4    V1    S    
C12   C13   A    
O3    V1    S    
O11   C34   A    
C29   C30   A    
C21   C22   A    
O22   C40   S    
C5    H1    S    
C16   H8    S    
O13   V3    S    
O7    V2    S    
V4    O20   S    
C39   H25   S    
C37   H21   S    
C11   H5    S    
V1    O10   S    
C25   C32   S    
C17   C24   S    
C7    C8    D    
O18   V4    S    
