data_mof_unit_34319.cif
_audit_creation_date              2012-12-10T16:58:41-0500
_audit_creation_method            fapswitch 2.2
_symmetry_space_group_name_H-M    P1
_symmetry_Int_Tables_number       1
_space_group_crystal_system       triclinic
_cell_length_a                    13.085805
_cell_length_b                    13.162214
_cell_length_c                    15.497407
_cell_angle_alpha                 108.887307
_cell_angle_beta                  74.759102
_cell_angle_gamma                 91.336377
_cell_volume                      2431.11473058

loop_
_atom_site_label
_atom_site_type_symbol
_atom_type_description
_atom_site_fract_x
_atom_site_fract_y
_atom_site_fract_z
_atom_type_partial_charge
C1    C     C_R   0.217411 0.540051 0.536390 0.504580
C2    C     C_R   0.543716 0.488836 0.107304 -0.176726
C3    C     C_R   0.563583 0.300232 0.091858 0.271707
C4    C     C_R   0.780761 0.458994 0.465542 0.532704
C5    C     C_R   0.442241 0.582397 0.855794 -0.000043
C6    C     C_2   0.893952 0.448848 0.456064 -0.056333
C7    C     C_2   0.931658 0.478096 0.532487 0.217645
C8    C     C_2   0.100964 0.547422 0.556204 -0.090102
C9    C     C_2   0.047848 0.463468 0.516968 0.218938
C10   C     C_2   0.537305 0.895093 0.540001 -0.094948
C11   C     C_2   0.512061 0.934797 0.478733 -0.156210
C12   C     C_R   0.415635 0.722015 0.007998 -0.121436
C13   C     C_2   0.462094 0.101330 0.452812 -0.015207
C14   C     C_2   0.509519 0.051691 0.497034 -0.161166
C15   C     C_R   0.470521 0.217900 0.471115 0.487231
C16   C     C_R   0.529501 0.781309 0.528115 0.510637
C17   C     C_R   0.544434 0.440997 0.247218 0.507206
C18   C     C_R   0.455340 0.555036 0.752997 0.497018
C19   C     C_R   0.545277 0.271337 0.002904 -0.107418
C20   C     C_R   0.559606 0.409976 0.145331 0.008156
C21   C     C_R   0.418389 0.690233 0.912929 -0.184250
C22   C     C_3   0.678799 0.206859 0.132416 0.006043
C23   C     C_R   0.441509 0.648480 0.047929 0.262412
C24   C     C_3   0.742150 0.122807 0.040315 -0.273958
C25   C     C_3   0.854260 0.100003 0.044392 -0.480623
C26   C     C_3   0.870363 0.477983 0.685353 0.011256
C27   C     C_3   0.781789 0.525794 0.776687 -0.242104
C28   C     C_3   0.780765 0.467711 0.847619 -0.480862
C29   C     C_R   0.400906 0.043180 0.385684 0.032403
C30   C     C_R   0.304993 0.000100 0.418271 -0.117166
C31   C     C_R   0.242175 0.955113 0.356854 -0.130263
C32   C     C_R   0.275173 0.951949 0.262557 -0.095282
C33   C     C_R   0.370921 0.994039 0.229543 -0.075645
C34   C     C_R   0.474290 0.539264 0.990065 0.030268
C35   C     C_R   0.433536 0.039781 0.290840 -0.045616
C36   C     C_3   0.330601 0.659821 0.191603 0.002809
C37   C     C_3   0.328085 0.679374 0.294949 -0.250487
C38   C     C_3   0.218771 0.663104 0.352545 -0.469749
C39   C     C_3   0.068412 0.278841 0.478834 0.013081
C40   C     C_3   0.121098 0.267850 0.553208 -0.256946
C41   C     C_3   0.076855 0.176894 0.589886 -0.493341
C42   C     C_R   0.462622 0.504980 0.896142 -0.014898
C43   C     C_R   0.512357 0.461274 0.022651 0.010517
C44   C     C_R   0.518632 0.350248 0.968471 -0.007485
C45   C     C_R   0.494522 0.318110 0.881805 -0.145281
C46   C     C_R   0.467559 0.393934 0.845927 -0.115830
H1    H     H_    0.057520 0.621852 0.605649 0.090218
H2    H     H_    0.393176 0.805079 0.051479 0.124945
H3    H     H_    0.445762 0.363414 0.780095 0.144089
H4    H     H_    0.676664 0.177178 0.192281 0.142178
H5    H     H_    0.719988 0.283365 0.146324 0.117529
H6    H     H_    0.700787 0.046790 0.028034 0.172969
H7    H     H_    0.747307 0.152375 0.979878 0.152610
H8    H     H_    0.897594 0.174726 0.055252 0.148409
H9    H     H_    0.898122 0.039158 0.976667 0.149669
H10   H     H_    0.851359 0.068074 0.103091 0.147466
H11   H     H_    0.948132 0.488792 0.702583 0.117382
H12   H     H_    0.947639 0.419553 0.385173 0.077747
H13   H     H_    0.859534 0.390411 0.655462 0.132782
H14   H     H_    0.793172 0.612418 0.809200 0.166383
H15   H     H_    0.703794 0.519299 0.760053 0.202332
H16   H     H_    0.763485 0.382203 0.818539 0.152076
H17   H     H_    0.718192 0.507037 0.914128 0.163026
H18   H     H_    0.858561 0.471444 0.864321 0.142315
H19   H     H_    0.277945 0.003500 0.491532 0.111349
H20   H     H_    0.167823 0.922857 0.382412 0.100843
H21   H     H_    0.226450 0.917124 0.215142 0.096326
H22   H     H_    0.396097 0.992477 0.156769 0.112887
H23   H     H_    0.549329 0.099054 0.548749 0.147318
H24   H     H_    0.506658 0.073869 0.264853 0.125186
H25   H     H_    0.315471 0.573759 0.159688 0.136659
H26   H     H_    0.266695 0.712028 0.188759 0.135822
H27   H     H_    0.387719 0.623055 0.298241 0.163872
H28   H     H_    0.349570 0.762561 0.326929 0.183370
H29   H     H_    0.157066 0.716547 0.348444 0.137362
H30   H     H_    0.218618 0.683199 0.427861 0.149116
H31   H     H_    0.199229 0.577986 0.325785 0.169387
H32   H     H_    0.093061 0.205875 0.415115 0.159415
H33   H     H_    0.980469 0.279655 0.504034 0.104311
H34   H     H_    0.490279 0.881181 0.417355 0.145414
H35   H     H_    0.208121 0.251409 0.521153 0.193733
H36   H     H_    0.107209 0.343959 0.614127 0.141016
H37   H     H_    0.991341 0.195911 0.628110 0.141058
H38   H     H_    0.120367 0.167046 0.639585 0.144970
H39   H     H_    0.086108 0.100040 0.530366 0.148980
H40   H     H_    0.552104 0.948416 0.604927 0.088648
H41   H     H_    0.496497 0.233489 0.841242 0.103182
H42   H     H_    0.546962 0.186629 0.962702 0.115627
H43   H     H_    0.551781 0.570689 0.147703 0.187682
H44   H     H_    0.402115 0.750772 0.883880 0.141466
O1    O     O_3   0.500000 0.500000 0.500000 -0.439381
O2    O     O_R   0.468210 0.402800 0.293550 -0.504974
O3    O     O_R   0.410220 0.615430 0.721590 -0.543496
O4    O     O_R   0.602670 0.506150 0.290200 -0.559923
O5    O     O_R   0.518910 0.475630 0.694660 -0.552147
O6    O     O_3   0.572689 0.220298 0.130062 -0.568249
O7    O     O_3   0.864256 0.531819 0.621299 -0.574501
O8    O     O_3   0.430461 0.685555 0.144276 -0.591811
O9    O     O_3   0.103118 0.369090 0.451054 -0.551544
O10   O     O_R   0.526920 0.270960 0.524520 -0.557375
O11   O     O_R   0.454490 0.752910 0.584610 -0.539626
O12   O     O_R   0.270990 0.462040 0.468400 -0.477221
O13   O     O_R   0.747590 0.514090 0.422470 -0.544471
O14   O     O_R   0.265290 0.607490 0.589320 -0.556826
O15   O     O_R   0.716130 0.416380 0.519810 -0.518421
O16   O     O_R   0.423930 0.265320 0.430520 -0.535567
O17   O     O_R   0.594650 0.710810 0.460350 -0.527171
Zn1   Zn    Zn3+2 0.564370 0.417180 0.558730 0.923549
Zn2   Zn    Zn3+2 0.417220 0.409120 0.424430 0.964928
Zn3   Zn    Zn3+2 0.609330 0.556780 0.419650 0.934510
Zn4   Zn    Zn3+2 0.409080 0.616930 0.597190 0.925359

loop_
_geom_bond_atom_site_label_1
_geom_bond_atom_site_label_2
_ccdc_geom_bond_type
C24   H6    S    
C31   H20   S    
C37   H28   S    
C1    C8    S    
C6    H12   S    
C34   C42   A    
C25   H10   S    
C15   O10   A    
C12   H2    S    
C38   H30   S    
C45   C46   A    
C44   C45   A    
C12   C23   A    
C26   C27   S    
C37   C38   S    
O13   Zn3   S    
C15   O16   A    
C13   C29   S    
C36   C37   S    
C45   H41   S    
C27   H14   S    
C30   C31   A    
C11   C14   S    
O2    Zn2   S    
C41   H37   S    
C4    O13   A    
C17   C20   S    
C42   C46   A    
O1    Zn4   S    
C27   H15   S    
C16   O17   A    
C35   H24   S    
C8    C9    D    
C3    C19   A    
C3    O6    S    
C26   H13   S    
C36   H25   S    
C22   H4    S    
C9    O9    S    
C13   C14   D    
C18   O5    A    
C17   O2    A    
O1    Zn1   S    
C38   H29   S    
O15   Zn1   S    
O10   Zn1   S    
C2    C20   A    
C39   H32   S    
C40   H36   S    
C24   C25   S    
C4    C6    S    
C19   H42   S    
C11   H34   S    
C39   C40   S    
C5    C18   S    
C24   H7    S    
C41   H38   S    
C12   C21   A    
O4    Zn3   S    
C39   H33   S    
C2    H43   S    
C43   C44   A    
C29   C30   A    
C39   O9    S    
C31   C32   A    
C46   H3    S    
C2    C43   A    
C23   C34   A    
C3    C20   A    
C25   H8    S    
C1    O14   A    
O5    Zn1   S    
O3    Zn4   S    
C32   H21   S    
C28   H18   S    
C40   C41   S    
C13   C15   S    
C14   H23   S    
C22   C24   S    
C19   C44   A    
O1    Zn3   S    
C5    C42   A    
C7    C9    S    
C37   H27   S    
C10   H40   S    
C7    O7    S    
C22   O6    S    
C40   H35   S    
C34   C43   A    
C25   H9    S    
O14   Zn4   S    
C6    C7    D    
C38   H31   S    
O11   Zn4   S    
C41   H39   S    
C4    O15   A    
C29   C35   A    
O17   Zn3   S    
C32   C33   A    
O1    Zn2   S    
C8    H1    S    
C10   C16   S    
C33   C35   A    
C26   H11   S    
C21   H44   S    
C30   H19   S    
C10   C11   D    
C26   O7    S    
C28   H17   S    
C16   O11   A    
C23   O8    S    
C5    C21   A    
C27   C28   S    
C18   O3    A    
O12   Zn2   S    
C36   O8    S    
C17   O4    A    
C1    O12   A    
C36   H26   S    
C33   H22   S    
C22   H5    S    
O16   Zn2   S    
C28   H16   S    
