data_mof_unit_24780.cif
_audit_creation_date              2012-12-11T15:22:50-0500
_audit_creation_method            fapswitch 2.2
_symmetry_space_group_name_H-M    P1
_symmetry_Int_Tables_number       1
_space_group_crystal_system       triclinic
_cell_length_a                    22.433311
_cell_length_b                    12.996926
_cell_length_c                    26.941928
_cell_angle_alpha                 89.758319
_cell_angle_beta                  90.573501
_cell_angle_gamma                 90.20776
_cell_volume                      7854.78469506

loop_
_atom_site_label
_atom_site_type_symbol
_atom_type_description
_atom_site_fract_x
_atom_site_fract_y
_atom_site_fract_z
_atom_type_partial_charge
C1    C     C_R   0.720787 0.345240 0.178315 0.542556
C2    C     C_R   0.279260 0.344909 0.821766 0.543188
C3    C     C_R   0.220783 0.845230 0.178311 0.546497
C4    C     C_R   0.779270 0.844883 0.821776 0.554037
C5    C     C_R   0.473270 0.161889 0.872290 -0.003646
C6    C     C_R   0.524651 0.163563 0.128650 -0.004825
C7    C     C_R   0.973275 0.661895 0.872288 -0.004608
C8    C     C_R   0.024647 0.663558 0.128652 -0.005651
C9    C     C_R   0.521168 0.257757 0.102915 -0.134482
C10   C     C_R   0.481004 0.256319 0.896822 -0.134396
C11   C     C_R   0.021146 0.757753 0.102920 -0.134864
C12   C     C_R   0.980987 0.756325 0.896826 -0.134834
C13   C     C_R   0.509331 0.258958 0.051774 0.013903
C14   C     C_R   0.492074 0.258012 0.948104 0.014792
C15   C     C_R   0.009310 0.758955 0.051779 0.013889
C16   C     C_R   0.992056 0.758016 0.948107 0.014758
C17   C     C_R   0.501492 0.164884 0.026533 0.064274
C18   C     C_R   0.494310 0.164304 0.974754 0.064406
C19   C     C_R   0.001494 0.664880 0.026532 0.064260
C20   C     C_R   0.994313 0.664305 0.974753 0.064397
C21   C     C_R   0.507877 0.351835 0.025010 -0.137956
C22   C     C_R   0.498707 0.351412 0.973565 -0.137860
C23   C     C_R   0.007834 0.851836 0.025018 -0.138095
C24   C     C_R   0.998665 0.851416 0.973572 -0.137986
C25   C     C_R   0.739341 0.956858 0.130080 0.023549
C26   C     C_R   0.260810 0.956782 0.870058 0.024138
C27   C     C_R   0.239302 0.456985 0.130043 0.022340
C28   C     C_R   0.760825 0.456834 0.870072 0.023800
C29   C     C_R   0.794372 0.964919 0.106104 -0.130273
C30   C     C_R   0.205737 0.963463 0.893957 -0.130813
C31   C     C_R   0.294321 0.465079 0.106050 -0.130127
C32   C     C_R   0.705757 0.463525 0.893977 -0.130660
C33   C     C_R   0.798094 0.945637 0.055408 -0.119553
C34   C     C_R   0.202194 0.944840 0.944776 -0.119902
C35   C     C_R   0.298017 0.445874 0.055345 -0.119422
C36   C     C_R   0.702224 0.444935 0.944799 -0.119762
C37   C     C_R   0.746683 0.919434 0.027931 0.036427
C38   C     C_R   0.253840 0.920848 0.972377 0.036926
C39   C     C_R   0.246592 0.419722 0.027876 0.036457
C40   C     C_R   0.753876 0.420969 0.972399 0.036920
C41   C     C_R   0.692503 0.905304 0.052594 -0.121545
C42   C     C_R   0.308091 0.908068 0.947832 -0.121869
C43   C     C_R   0.192419 0.405596 0.052548 -0.121369
C44   C     C_R   0.808125 0.408195 0.947849 -0.121780
C45   C     C_R   0.553446 0.157354 0.177681 0.548129
C46   C     C_R   0.446171 0.157079 0.822557 0.548346
C47   C     C_R   0.053443 0.657354 0.177682 0.549111
C48   C     C_R   0.946172 0.657079 0.822556 0.549745
C49   C     C_R   0.688994 0.922808 0.103283 -0.126001
C50   C     C_R   0.311407 0.924692 0.897043 -0.126189
C51   C     C_R   0.188936 0.423019 0.103245 -0.126278
C52   C     C_R   0.811430 0.424785 0.897058 -0.125893
C53   C     C_R   0.716339 0.831635 0.949518 -0.118628
C54   C     C_R   0.284844 0.834812 0.051175 -0.119047
C55   C     C_R   0.216231 0.331901 0.949474 -0.118844
C56   C     C_R   0.784884 0.334920 0.051190 -0.119085
C57   C     C_R   0.721909 0.817216 0.898714 -0.125361
C58   C     C_R   0.279139 0.820216 0.101969 -0.125388
C59   C     C_R   0.221829 0.317406 0.898678 -0.124878
C60   C     C_R   0.779168 0.320290 0.101981 -0.125291
C61   C     C_R   0.791430 0.960241 0.894642 -0.124156
C62   C     C_R   0.208554 0.960901 0.105234 -0.124987
C63   C     C_R   0.291375 0.460393 0.894587 -0.124574
C64   C     C_R   0.708577 0.460966 0.105255 -0.125328
C65   C     C_R   0.785095 0.975725 0.945423 -0.115699
C66   C     C_R   0.215048 0.976631 0.054445 -0.116112
C67   C     C_R   0.285013 0.475953 0.945360 -0.115830
C68   C     C_R   0.715082 0.476728 0.054469 -0.116301
C69   C     C_R   0.749184 0.909131 0.973567 0.038273
C70   C     C_R   0.251474 0.911075 0.026731 0.038974
C71   C     C_R   0.249082 0.409406 0.973511 0.038246
C72   C     C_R   0.751513 0.411190 0.026752 0.038977
C73   C     C_R   0.761323 0.878778 0.871232 0.023166
C74   C     C_R   0.239009 0.880246 0.129001 0.023857
C75   C     C_R   0.261278 0.378898 0.871196 0.024498
C76   C     C_R   0.739026 0.380294 0.129014 0.024320
C77   C     C_R   0.539816 0.165053 0.374308 0.038608
C78   C     C_R   0.475720 0.169169 0.630437 0.022325
C79   C     C_R   0.026795 0.669207 0.370544 0.011524
C80   C     C_R   0.973807 0.669123 0.629608 0.020696
C81   C     C_R   0.498184 0.235370 0.392235 -0.132200
C82   C     C_R   0.476862 0.264304 0.605378 -0.130463
C83   C     C_R   0.036207 0.760280 0.397431 -0.134682
C84   C     C_R   0.968371 0.761778 0.603035 -0.131521
C85   C     C_R   0.488727 0.242353 0.443415 -0.117390
C86   C     C_R   0.493276 0.269257 0.555613 -0.132726
C87   C     C_R   0.025508 0.762967 0.448093 -0.135841
C88   C     C_R   0.980135 0.764826 0.552472 -0.131215
C89   C     C_R   0.731226 0.001849 0.179381 0.543043
C90   C     C_R   0.268744 0.001728 0.820604 0.541623
C91   C     C_R   0.231218 0.501878 0.179371 0.552596
C92   C     C_R   0.768747 0.501739 0.820608 0.544423
C93   C     C_R   0.522060 0.181062 0.476800 0.029001
C94   C     C_R   0.509156 0.179363 0.530384 0.031776
C95   C     C_R   0.004221 0.675397 0.472897 0.028210
C96   C     C_R   0.997898 0.675476 0.527518 0.031571
C97   C     C_R   0.565917 0.115472 0.458345 -0.129753
C98   C     C_R   0.510663 0.085332 0.556305 -0.120504
C99   C     C_R   0.989943 0.587028 0.445134 -0.126114
C100  C     C_R   0.008519 0.585285 0.555140 -0.124936
C101  C     C_R   0.574127 0.106824 0.407731 -0.115771
C102  C     C_R   0.494563 0.080422 0.605841 -0.128704
C103  C     C_R   0.001536 0.583699 0.394410 -0.137698
C104  C     C_R   0.996274 0.581962 0.605696 -0.129956
C105  C     C_R   0.745912 0.938981 0.367014 0.004061
C106  C     C_R   0.258398 0.951498 0.629780 0.008271
C107  C     C_R   0.223207 0.521266 0.381434 0.001371
C108  C     C_R   0.761462 0.461815 0.627043 0.001857
C109  C     C_R   0.699819 0.895442 0.394926 -0.147576
C110  C     C_R   0.308063 0.926946 0.601154 -0.138068
C111  C     C_R   0.172270 0.532103 0.410403 -0.142878
C112  C     C_R   0.812666 0.451744 0.598160 -0.138831
C113  C     C_R   0.711502 0.857077 0.442245 -0.142102
C114  C     C_R   0.300813 0.903134 0.551623 -0.144319
C115  C     C_R   0.175450 0.517160 0.461495 -0.135558
C116  C     C_R   0.807554 0.437635 0.547659 -0.143478
C117  C     C_R   0.769595 0.859522 0.461880 0.036386
C118  C     C_R   0.243859 0.901789 0.530062 0.036156
C119  C     C_R   0.229616 0.490053 0.484220 0.032335
C120  C     C_R   0.751321 0.430706 0.525175 0.033804
C121  C     C_R   0.817576 0.890861 0.431340 0.025291
C122  C     C_R   0.192734 0.915918 0.559772 0.028220
C123  C     C_R   0.281292 0.476310 0.455099 0.025174
C124  C     C_R   0.698980 0.433210 0.554280 0.024211
C125  C     C_R   0.804849 0.930918 0.384091 -0.109426
C126  C     C_R   0.200901 0.941582 0.609785 -0.111065
C127  C     C_R   0.277468 0.493792 0.403926 -0.114421
C128  C     C_R   0.704911 0.450377 0.605381 -0.118518
C129  C     C_R   0.801631 0.923159 0.544474 -0.124273
C130  C     C_R   0.213580 0.968646 0.447180 -0.121051
C131  C     C_R   0.267053 0.527620 0.569264 -0.119157
C132  C     C_R   0.719437 0.489838 0.441289 -0.119502
C133  C     C_R   0.721352 0.347369 0.321542 0.542405
C134  C     C_R   0.278390 0.348596 0.678619 0.544035
C135  C     C_R   0.220610 0.845250 0.322450 0.535008
C136  C     C_R   0.794839 0.807572 0.672689 0.559743
C137  C     C_R   0.806902 0.912362 0.595635 -0.129254
C138  C     C_R   0.210323 0.958081 0.395886 -0.132622
C139  C     C_R   0.280104 0.491559 0.616876 -0.131865
C140  C     C_R   0.713824 0.471625 0.390669 -0.124799
C141  C     C_R   0.758938 0.745249 0.590584 -0.133531
C142  C     C_R   0.267264 0.799864 0.402415 -0.126091
C143  C     C_R   0.213589 0.346299 0.603452 -0.131291
C144  C     C_R   0.775938 0.319736 0.399835 -0.129857
C145  C     C_R   0.755020 0.755073 0.539051 -0.122704
C146  C     C_R   0.268683 0.808683 0.453563 -0.126444
C147  C     C_R   0.201431 0.381454 0.555599 -0.129863
C148  C     C_R   0.780104 0.336449 0.450379 -0.131534
C149  C     C_R   0.777111 0.843738 0.515692 0.025441
C150  C     C_R   0.240561 0.891669 0.476198 0.026751
C151  C     C_R   0.230506 0.469203 0.537629 0.024974
C152  C     C_R   0.749793 0.418926 0.471475 0.026696
C153  C     C_R   0.785516 0.823286 0.619184 0.021082
C154  C     C_R   0.236117 0.872390 0.373359 0.026201
C155  C     C_R   0.255464 0.398204 0.633404 0.021463
C156  C     C_R   0.740172 0.384119 0.370140 0.026007
C157  C     C_R   0.555191 0.158417 0.321952 0.536795
C158  C     C_R   0.445937 0.159131 0.678530 0.543542
C159  C     C_R   0.053949 0.658810 0.321415 0.526429
C160  C     C_R   0.945933 0.659072 0.678505 0.532793
C161  C     C_R   0.732194 0.000245 0.322498 0.538532
C162  C     C_R   0.268110 0.001554 0.677371 0.543229
C163  C     C_R   0.219917 0.545291 0.328372 0.554720
C164  C     C_R   0.768469 0.502747 0.676887 0.528621
C165  C     C_R   0.511472 0.071334 0.103877 -0.132127
C166  C     C_R   0.480453 0.069222 0.898675 -0.131121
C167  C     C_R   0.011490 0.571325 0.103873 -0.132651
C168  C     C_R   0.980479 0.569227 0.898669 -0.131739
C169  C     C_R   0.501794 0.070959 0.052922 0.012785
C170  C     C_R   0.488903 0.069699 0.949732 0.012110
C171  C     C_R   0.001817 0.570951 0.052918 0.012820
C172  C     C_R   0.988930 0.569701 0.949727 0.012116
C173  C     C_R   0.489504 0.976841 0.976302 -0.140094
C174  C     C_R   0.495387 0.977514 0.027709 -0.138580
C175  C     C_R   0.989553 0.476839 0.976293 -0.140259
C176  C     C_R   0.995433 0.477507 0.027700 -0.138730
Cr1   Cr    Cr6+3 0.756570 0.170940 0.251190 1.008270
Cr2   Cr    Cr6+3 0.243430 0.170940 0.748810 1.011374
Cr3   Cr    Cr6+3 0.256570 0.670940 0.251190 1.006619
Cr4   Cr    Cr6+3 0.743430 0.670940 0.748810 1.012822
Cr5   Cr    Cr6+3 0.623740 0.299110 0.249580 1.017614
Cr6   Cr    Cr6+3 0.376260 0.299110 0.750420 1.012204
Cr7   Cr    Cr6+3 0.123740 0.799110 0.249580 1.005580
Cr8   Cr    Cr6+3 0.876260 0.799110 0.750420 1.006580
Cr9   Cr    Cr6+3 0.625990 0.036240 0.250480 1.010751
Cr10  Cr    Cr6+3 0.374010 0.036240 0.749520 1.009007
Cr11  Cr    Cr6+3 0.125990 0.536240 0.250480 1.012224
Cr12  Cr    Cr6+3 0.874010 0.536240 0.749520 1.003690
H1    H     H_    0.474857 0.995818 0.880180 0.127478
H2    H     H_    0.513477 0.998357 0.123484 0.127741
H3    H     H_    0.974900 0.495824 0.880171 0.127313
H4    H     H_    0.013508 0.498344 0.123477 0.127417
H5    H     H_    0.821928 0.008894 0.874181 0.123910
H6    H     H_    0.177582 0.008480 0.125382 0.123348
H7    H     H_    0.321893 0.509002 0.874122 0.122651
H8    H     H_    0.677599 0.508529 0.125406 0.122772
H9    H     H_    0.652075 0.885800 0.032390 0.105295
H10   H     H_    0.348683 0.890298 0.968153 0.105092
H11   H     H_    0.151980 0.386136 0.032349 0.105279
H12   H     H_    0.848721 0.390445 0.968170 0.105080
H13   H     H_    0.645754 0.916734 0.120623 0.130824
H14   H     H_    0.354681 0.919720 0.879746 0.129149
H15   H     H_    0.145702 0.416936 0.120596 0.130715
H16   H     H_    0.854703 0.419813 0.879757 0.129382
H17   H     H_    0.472727 0.283245 0.366832 0.106168
H18   H     H_    0.462288 0.334028 0.623402 0.129265
H19   H     H_    0.055848 0.827594 0.380182 0.138682
H20   H     H_    0.951138 0.830361 0.620435 0.129445
H21   H     H_    0.521624 0.014237 0.537749 0.102993
H22   H     H_    0.593941 0.070356 0.483050 0.107405
H23   H     H_    0.024781 0.516328 0.537480 0.096897
H24   H     H_    0.971231 0.519438 0.462785 0.102587
H25   H     H_    0.493827 0.005948 0.624029 0.127510
H26   H     H_    0.608819 0.056587 0.394599 0.123885
H27   H     H_    0.001541 0.509771 0.625460 0.125990
H28   H     H_    0.993532 0.512748 0.374444 0.128660
H29   H     H_    0.454676 0.293723 0.456732 0.102777
H30   H     H_    0.492450 0.342835 0.536690 0.099390
H31   H     H_    0.036336 0.832542 0.467965 0.099816
H32   H     H_    0.972500 0.836195 0.532800 0.099672
H33   H     H_    0.654169 0.896878 0.381584 0.124199
H34   H     H_    0.353015 0.933698 0.615904 0.138824
H35   H     H_    0.130291 0.553884 0.393562 0.135358
H36   H     H_    0.856920 0.461810 0.613928 0.144601
H37   H     H_    0.815895 0.994374 0.527411 0.112634
H38   H     H_    0.194287 0.035703 0.464269 0.113870
H39   H     H_    0.288658 0.596863 0.555878 0.110589
H40   H     H_    0.698192 0.556462 0.457127 0.105936
H41   H     H_    0.827172 0.974287 0.616694 0.133013
H42   H     H_    0.186128 0.014629 0.374061 0.123048
H43   H     H_    0.311692 0.533725 0.639738 0.124784
H44   H     H_    0.686593 0.522622 0.368128 0.125297
H45   H     H_    0.484767 0.903807 0.957369 0.097378
H46   H     H_    0.495917 0.904937 0.047665 0.099432
H47   H     H_    0.984835 0.403805 0.957357 0.097377
H48   H     H_    0.995981 0.404926 0.047654 0.099343
H49   H     H_    0.674464 0.831846 0.464820 0.106057
H50   H     H_    0.340171 0.891338 0.529357 0.112493
H51   H     H_    0.135579 0.526445 0.483405 0.119776
H52   H     H_    0.847777 0.435008 0.525720 0.111901
H53   H     H_    0.734771 0.693900 0.517470 0.109389
H54   H     H_    0.290675 0.749753 0.475586 0.108081
H55   H     H_    0.172801 0.336221 0.531431 0.106953
H56   H     H_    0.804816 0.282509 0.473369 0.106039
H57   H     H_    0.742173 0.676090 0.607985 0.137333
H58   H     H_    0.287137 0.732367 0.386049 0.135641
H59   H     H_    0.193710 0.274442 0.615492 0.132087
H60   H     H_    0.796726 0.251585 0.384889 0.136789
H61   H     H_    0.840901 0.958209 0.360988 0.126448
H62   H     H_    0.162599 0.956502 0.632826 0.122971
H63   H     H_    0.316814 0.483605 0.381476 0.134219
H64   H     H_    0.665541 0.456613 0.628149 0.124627
H65   H     H_    0.475535 0.328033 0.876619 0.121956
H66   H     H_    0.531106 0.329241 0.121923 0.124603
H67   H     H_    0.975501 0.828040 0.876626 0.122028
H68   H     H_    0.031066 0.829240 0.121932 0.124518
H69   H     H_    0.497031 0.424004 0.953685 0.100653
H70   H     H_    0.513907 0.424690 0.043840 0.100872
H71   H     H_    0.996972 0.924010 0.953696 0.100675
H72   H     H_    0.013845 0.924692 0.043851 0.100802
H73   H     H_    0.833844 0.990702 0.125988 0.121862
H74   H     H_    0.166102 0.987724 0.873890 0.121337
H75   H     H_    0.333806 0.490813 0.125930 0.122724
H76   H     H_    0.666116 0.487761 0.873911 0.121663
H77   H     H_    0.688581 0.778783 0.970260 0.099233
H78   H     H_    0.313044 0.782836 0.030751 0.098748
H79   H     H_    0.188456 0.279087 0.970222 0.099257
H80   H     H_    0.813090 0.282959 0.030764 0.098825
H81   H     H_    0.698597 0.753001 0.881773 0.133094
H82   H     H_    0.302854 0.756790 0.119221 0.132969
H83   H     H_    0.198517 0.253179 0.881748 0.133262
H84   H     H_    0.802882 0.256857 0.119229 0.133034
H85   H     H_    0.840850 0.953902 0.037479 0.106313
H86   H     H_    0.159401 0.951930 0.962679 0.106001
H87   H     H_    0.340767 0.454139 0.037407 0.106440
H88   H     H_    0.659433 0.452022 0.962706 0.106064
H89   H     H_    0.809455 0.038161 0.962863 0.100696
H90   H     H_    0.190323 0.038211 0.036646 0.100094
H91   H     H_    0.309376 0.538397 0.962791 0.100517
H92   H     H_    0.690356 0.538314 0.036675 0.099957
O1    O     O_R   0.769900 0.064540 0.196060 -0.523166
O2    O     O_R   0.230100 0.064540 0.803940 -0.523324
O3    O     O_R   0.269900 0.564540 0.196060 -0.517976
O4    O     O_R   0.730100 0.564540 0.803940 -0.521548
O5    O     O_R   0.574760 0.239320 0.300850 -0.495669
O6    O     O_R   0.425240 0.239320 0.699150 -0.503467
O7    O     O_R   0.074760 0.739320 0.300850 -0.506053
O8    O     O_R   0.925240 0.739320 0.699150 -0.520606
O9    O     O_R   0.566290 0.069580 0.305400 -0.520042
O10   O     O_R   0.433710 0.069580 0.694600 -0.523531
O11   O     O_R   0.066290 0.569580 0.305400 -0.529183
O12   O     O_R   0.933710 0.569580 0.694600 -0.523142
O13   O     O_R   0.680760 0.993330 0.302620 -0.506155
O14   O     O_R   0.319240 0.993330 0.697380 -0.505077
O15   O     O_R   0.180760 0.493330 0.302620 -0.490661
O16   O     O_R   0.819240 0.493330 0.697380 -0.504507
O17   O     O_3   0.668770 0.168760 0.250420 -0.238603
O18   O     O_3   0.331230 0.168760 0.749580 -0.236726
O19   O     O_3   0.168770 0.668760 0.250420 -0.258616
O20   O     O_3   0.831230 0.668760 0.749580 -0.259273
O21   O     O_R   0.750800 0.274080 0.199250 -0.505579
O22   O     O_R   0.249200 0.274080 0.800750 -0.505582
O23   O     O_R   0.250800 0.774080 0.199250 -0.503466
O24   O     O_R   0.749200 0.774080 0.800750 -0.499462
O25   O     O_R   0.669990 0.371670 0.194150 -0.520681
O26   O     O_R   0.330010 0.371670 0.805850 -0.520429
O27   O     O_R   0.169990 0.871670 0.194150 -0.517626
O28   O     O_R   0.830010 0.871670 0.805850 -0.514726
O29   O     O_R   0.574600 0.238480 0.197800 -0.501186
O30   O     O_R   0.425400 0.238480 0.802200 -0.500365
O31   O     O_R   0.074600 0.738480 0.197800 -0.498456
O32   O     O_R   0.925400 0.738480 0.802200 -0.499102
O33   O     O_R   0.566130 0.068680 0.194240 -0.524356
O34   O     O_R   0.433870 0.068680 0.805760 -0.525418
O35   O     O_R   0.066130 0.568680 0.194240 -0.524364
O36   O     O_R   0.933870 0.568680 0.805760 -0.523887
O37   O     O_R   0.680610 0.992490 0.199570 -0.505007
O38   O     O_R   0.319390 0.992490 0.800430 -0.506047
O39   O     O_R   0.180610 0.492490 0.199570 -0.499914
O40   O     O_R   0.819390 0.492490 0.800430 -0.502663
O41   O     O_R   0.770060 0.065440 0.307230 -0.524201
O42   O     O_R   0.229940 0.065440 0.692770 -0.521500
O43   O     O_R   0.270060 0.565440 0.307230 -0.526604
O44   O     O_R   0.729940 0.565440 0.692770 -0.532011
O45   O     O_R   0.750960 0.274920 0.302300 -0.507024
O46   O     O_R   0.249040 0.274920 0.697700 -0.502545
O47   O     O_R   0.250960 0.774920 0.302300 -0.520798
O48   O     O_R   0.749040 0.774920 0.697700 -0.493857
O49   O     O_R   0.670160 0.372580 0.305320 -0.515397
O50   O     O_R   0.329840 0.372580 0.694680 -0.521913
O51   O     O_R   0.170160 0.872580 0.305320 -0.520058
O52   O     O_R   0.829840 0.872580 0.694680 -0.523252
C177  C     C_3   0.882200 0.879121 0.446995 -0.277056
C178  C     C_3   0.914751 0.982609 0.450055 -0.450954
H93   H     H_    0.890925 0.036843 0.474433 0.144288
H94   H     H_    0.960285 0.970955 0.465358 0.126049
H95   H     H_    0.918994 0.017790 0.412657 0.146466
H96   H     H_    0.886185 0.838876 0.483177 0.158547
H97   H     H_    0.904970 0.829922 0.419452 0.158584
C179  C     C_3   0.129842 0.900659 0.540208 -0.280160
C180  C     C_3   0.093949 0.000415 0.540960 -0.450223
H98   H     H_    0.117131 0.062250 0.520164 0.147089
H99   H     H_    0.049608 0.987314 0.523499 0.124168
H100  H     H_    0.086910 0.026293 0.579650 0.147698
H101  H     H_    0.129789 0.869950 0.501926 0.154262
H102  H     H_    0.107019 0.842123 0.563526 0.154179
C181  C     C_3   0.339941 0.437111 0.476177 -0.277829
C182  C     C_3   0.387340 0.521727 0.477081 -0.450380
H103  H     H_    0.372230 0.587832 0.499603 0.145408
H104  H     H_    0.429183 0.491156 0.493731 0.128395
H105  H     H_    0.396944 0.548909 0.438845 0.148010
H106  H     H_    0.335300 0.404941 0.514114 0.163762
H107  H     H_    0.355726 0.372599 0.452843 0.133743
C183  C     C_3   0.637144 0.414110 0.533008 -0.276628
C184  C     C_3   0.598935 0.511130 0.534400 -0.448206
H108  H     H_    0.621797 0.576221 0.515700 0.145379
H109  H     H_    0.555847 0.496656 0.514998 0.131864
H110  H     H_    0.589516 0.532979 0.573327 0.147494
H111  H     H_    0.638532 0.385472 0.494329 0.164548
H112  H     H_    0.615144 0.352588 0.555050 0.151304

loop_
_geom_bond_atom_site_label_1
_geom_bond_atom_site_label_2
_ccdc_geom_bond_type
C99   C103  A    
C7    C168  A    
C164  O44   A    
C37   C69   S    
C90   O2    A    
C142  C146  A    
C77   C101  A    
C19   C20   A    
Cr12  O40   S    
C53   C69   A    
C38   C70   S    
C177  C178  S    
C108  C164  S    
Cr1   O41   S    
Cr10  O18   S    
C55   C59   A    
C26   C50   A    
C95   C99   A    
C29   C33   A    
C100  C104  A    
C31   H75   S    
C32   H76   S    
C3    C74   S    
C9    C13   A    
C146  C150  A    
C131  C151  A    
C12   C16   A    
C142  H58   S    
C169  C174  A    
C172  C175  A    
C141  C145  A    
C108  C112  A    
C138  C154  A    
C6    C165  A    
C35   H87   S    
C21   C22   A    
C135  O47   A    
C112  H36   S    
C174  H46   S    
C41   C49   A    
Cr12  O12   S    
C50   H14   S    
C22   H69   S    
C25   C29   A    
C27   C31   A    
C28   C32   A    
Cr9   O9    S    
C179  C180  S    
C62   C66   A    
C167  C171  A    
C98   C102  A    
C47   O35   A    
C60   C76   A    
Cr6   O26   S    
C30   H74   S    
C124  C183  S    
C78   C82   A    
C102  H25   S    
C184  H108  S    
C54   C70   A    
C147  H55   S    
C16   C20   A    
Cr7   O51   S    
C117  C149  S    
C11   H68   S    
C137  C153  A    
Cr1   O45   S    
C2    O22   A    
Cr3   O47   S    
C140  C156  A    
C20   C172  A    
C175  H47   S    
C132  C152  A    
C62   H6    S    
C130  C138  A    
C109  H33   S    
C58   H82   S    
C89   O1    A    
C84   C88   A    
C68   H92   S    
Cr5   O17   S    
C26   C90   S    
C5    C46   S    
Cr4   O24   S    
C105  C125  A    
Cr2   O22   S    
C7    C48   S    
C125  H61   S    
C8    C47   S    
C107  C127  A    
C175  C176  A    
C115  H51   S    
C136  C153  S    
C178  H95   S    
C66   C70   A    
Cr2   O2    S    
C53   H77   S    
C31   C35   A    
Cr3   O19   S    
C182  H103  S    
C61   C65   A    
C129  C137  A    
C130  H38   S    
C39   C71   S    
C139  H43   S    
C103  H28   S    
C36   H88   S    
C55   C71   A    
C2    C75   S    
Cr9   O37   S    
Cr10  O34   S    
C10   H65   S    
Cr11  O39   S    
C119  C123  A    
C46   O30   A    
C6    C9    A    
Cr2   O46   S    
C129  C149  A    
C64   C68   A    
C133  O49   A    
C183  H112  S    
C177  H97   S    
C48   O32   A    
C86   H30   S    
C57   C73   A    
C83   H19   S    
C181  H106  S    
C143  C155  A    
C78   C158  S    
C92   O40   A    
C87   C95   A    
C130  C150  A    
C141  H57   S    
C23   C24   A    
C27   C91   S    
C110  C114  A    
Cr9   O17   S    
C121  C177  S    
C114  H50   S    
C162  O42   A    
C173  C174  A    
C79   C103  A    
C11   C15   A    
Cr11  O19   S    
C160  O12   A    
C27   C51   A    
C178  H94   S    
C159  O11   A    
C180  H99   S    
C7    C12   A    
C98   H21   S    
C49   H13   S    
C30   C34   A    
C59   H83   S    
C3    O27   A    
C138  H42   S    
C41   H9    S    
C10   C14   A    
C178  H93   S    
C133  O45   A    
C56   C72   A    
C1    O25   A    
C182  H105  S    
C181  H107  S    
C116  C120  A    
C144  C156  A    
C147  C151  A    
C121  C125  A    
C84   H20   S    
C123  C127  A    
C139  C155  A    
C146  H54   S    
C54   C58   A    
C17   C18   A    
C5    C166  A    
C142  C154  A    
C45   O33   A    
C4    C73   S    
Cr12  O16   S    
C42   C50   A    
C113  C117  A    
C184  H109  S    
C4    O28   A    
C23   H72   S    
C26   C30   A    
C115  C119  A    
C105  C161  S    
Cr9   O13   S    
C179  H101  S    
C67   H91   S    
Cr10  O10   S    
C93   C97   A    
C82   H18   S    
Cr11  O15   S    
C58   C74   A    
C105  C109  A    
C40   C72   S    
C1    C76   S    
C107  C111  A    
C148  C152  A    
C107  C163  S    
C163  O15   A    
C44   H12   S    
C171  C176  A    
C100  H23   S    
C13   C17   A    
C166  H1    S    
C14   C22   A    
C92   O4    A    
Cr3   O43   S    
Cr8   O20   S    
C141  C153  A    
C63   C75   A    
C96   C100  A    
C48   O36   A    
C37   C41   A    
C56   H80   S    
C145  C149  A    
C131  C139  A    
Cr12  O20   S    
C40   C44   A    
C56   C60   A    
C183  C184  S    
C18   C170  A    
C129  H37   S    
C148  H56   S    
C81   C85   A    
C83   C87   A    
C88   C96   A    
C6    C45   S    
C61   H5    S    
C78   C102  A    
C133  C156  S    
Cr6   O18   S    
Cr2   O18   S    
C112  C116  A    
C80   C84   A    
C15   C19   A    
Cr3   O3    S    
C135  C154  S    
C80   C104  A    
C132  H40   S    
C79   C159  S    
C80   C160  S    
C94   C98   A    
C47   O31   A    
C4    O24   A    
C118  C150  S    
C89   O37   A    
C91   O39   A    
Cr1   O17   S    
C95   C96   S    
C173  H45   S    
Cr10  O38   S    
Cr11  O35   S    
Cr4   O4    S    
Cr5   O5    S    
C124  C128  A    
Cr7   O7    S    
C12   H67   S    
C165  C169  A    
Cr7   O27   S    
Cr7   O19   S    
C51   H15   S    
C137  H41   S    
C181  C182  S    
C53   C57   A    
C157  O5    A    
C61   C73   A    
C82   C86   A    
C33   C37   A    
C88   H32   S    
C52   H16   S    
C35   C39   A    
C8    C167  A    
Cr4   O44   S    
C42   H10   S    
C101  H26   S    
C182  H104  S    
C111  H35   S    
C140  H44   S    
C65   H89   S    
C63   H7    S    
C136  O48   A    
C110  H34   S    
C32   C36   A    
C164  O16   A    
C2    O26   A    
C161  O13   A    
C104  H27   S    
C132  C140  A    
C106  C126  A    
C25   C89   S    
C126  H62   S    
C45   O29   A    
Cr12  O36   S    
C79   C83   A    
C43   C51   A    
C177  H96   S    
C65   C69   A    
C143  H59   S    
C67   C71   A    
C106  C162  S    
Cr10  O14   S    
C25   C49   A    
Cr11  O11   S    
C131  H39   S    
C168  C172  A    
C134  O46   A    
Cr7   O31   S    
C62   C74   A    
C108  C128  A    
Cr5   O49   S    
C170  C173  A    
C93   C94   S    
C28   C52   A    
C14   C18   A    
C9    H66   S    
C144  C148  A    
C180  H98   S    
C143  C147  A    
C167  H4    S    
C34   H86   S    
C24   H71   S    
C128  H64   S    
C168  H3    S    
C33   H85   S    
C19   C171  A    
C38   C42   A    
C163  O43   A    
Cr8   O28   S    
C17   C169  A    
C21   H70   S    
C183  H111  S    
C64   H8    S    
C117  C121  A    
C85   H29   S    
C86   C94   A    
C134  C155  S    
Cr5   O25   S    
C29   H73   S    
Cr6   O30   S    
Cr8   O52   S    
C77   C81   A    
C68   C72   A    
C15   C23   A    
C161  O41   A    
C16   C24   A    
C1    O21   A    
C179  H102  S    
C54   H78   S    
C3    O23   A    
C165  H2    S    
C99   H24   S    
C119  C151  S    
C63   C67   A    
C120  C152  S    
C97   H22   S    
C13   C21   A    
C157  O9    A    
C36   C40   A    
C55   H79   S    
C90   O38   A    
C123  C181  S    
C39   C43   A    
Cr6   O50   S    
C159  O7    A    
C160  O8    A    
C122  C126  A    
C118  C122  A    
Cr6   O6    S    
C85   C93   A    
Cr4   O20   S    
Cr1   O21   S    
C64   C76   A    
C145  H53   S    
C28   C92   S    
C60   H84   S    
Cr3   O23   S    
C114  C118  A    
Cr1   O1    S    
C57   H81   S    
C87   H31   S    
C144  H60   S    
C59   C75   A    
C81   H17   S    
C106  C110  A    
C180  H100  S    
C158  O6    A    
C135  O51   A    
Cr5   O29   S    
C34   C38   A    
C43   H11   S    
C134  O50   A    
Cr4   O48   S    
C136  O52   A    
C109  C113  A    
C116  H52   S    
Cr9   O33   S    
C5    C10   A    
C46   O34   A    
C91   O3    A    
Cr2   O42   S    
C44   C52   A    
C176  H48   S    
C8    C11   A    
C113  H49   S    
C166  C170  A    
C66   H90   S    
C127  H63   S    
C122  C179  S    
C184  H110  S    
Cr8   O8    S    
C158  O10   A    
C111  C115  A    
Cr8   O32   S    
C162  O14   A    
C97   C101  A    
C120  C124  A    
C77   C157  S    
