data_mof_unit_53199.cif
_audit_creation_date              2012-12-10T17:39:24-0500
_audit_creation_method            fapswitch 2.2
_symmetry_space_group_name_H-M    P1
_symmetry_Int_Tables_number       1
_space_group_crystal_system       triclinic
_cell_length_a                    12.402467
_cell_length_b                    13.253989
_cell_length_c                    27.805243
_cell_angle_alpha                 75.460659
_cell_angle_beta                  101.304498
_cell_angle_gamma                 117.044765
_cell_volume                      3922.70965637

loop_
_atom_site_label
_atom_site_type_symbol
_atom_type_description
_atom_site_fract_x
_atom_site_fract_y
_atom_site_fract_z
_atom_type_partial_charge
C1    C     C_R   0.855390 0.286832 0.503845 0.797434
C2    C     C_R   0.071389 0.457168 0.733117 -0.169344
C3    C     C_R   0.994690 0.493857 0.747107 0.165829
C4    C     C_R   0.987144 0.485600 0.899051 -0.116216
C5    C     C_R   0.885180 0.409244 0.872883 -0.138384
C6    C     C_R   0.781446 0.331803 0.898072 0.513480
C7    C     C_R   0.089900 0.565343 0.873815 -0.003390
C8    C     C_R   0.999066 0.498636 0.645799 -0.315726
C9    C     C_R   0.992617 0.489324 0.355437 -0.298956
C10   C     C_R   0.876725 0.414424 0.024681 0.030961
C11   C     C_R   0.095962 0.542745 0.029439 -0.060226
C12   C     C_R   0.999976 0.499783 0.592504 0.919445
C13   C     C_R   0.985288 0.478578 0.052318 0.022904
C14   C     C_R   0.767193 0.359259 0.047616 -0.290633
C15   C     C_R   0.764568 0.359083 0.097613 0.513252
C16   C     C_R   0.872833 0.419811 0.125865 -0.130600
C17   C     C_R   0.983258 0.478487 0.103220 -0.120836
C18   C     C_R   0.092012 0.537322 0.131548 -0.103285
C19   C     C_R   0.089153 0.538143 0.181559 0.655301
C20   C     C_R   0.874771 0.423085 0.176402 0.621958
C21   C     C_R   0.036180 0.417922 0.292114 0.383952
C22   C     C_R   0.041779 0.423114 0.342415 0.389377
C23   C     C_R   0.145061 0.713602 0.492688 0.780134
C24   C     C_R   0.935291 0.546414 0.317957 -0.372827
C25   C     C_R   0.930690 0.542198 0.268077 0.649545
C26   C     C_R   0.982072 0.479551 0.254748 0.042032
C27   C     C_R   0.880385 0.408722 0.974764 0.005200
C28   C     C_R   0.986638 0.482901 0.950399 0.072271
C29   C     C_R   0.092499 0.554975 0.976919 0.056144
C30   C     C_R   0.781098 0.330752 0.948420 -0.295821
C31   C     C_R   0.188909 0.643883 0.899109 -0.166214
C32   C     C_R   0.205957 0.589711 0.060517 0.451863
C33   C     C_R   0.202111 0.590642 0.110120 -0.194826
C34   C     C_R   0.998521 0.497819 0.407814 0.855043
C35   C     C_R   0.189476 0.639936 0.949510 -0.159271
C36   C     C_R   0.277540 0.030759 0.440059 -0.145683
C37   C     C_R   0.228538 0.836176 0.484434 -0.059047
C38   C     C_R   0.811716 0.086120 0.543544 -0.287170
C39   C     C_R   0.727111 0.979705 0.564678 -0.182950
C40   C     C_R   0.602993 0.948233 0.551947 0.492697
C41   C     C_R   0.562412 0.015883 0.510450 -0.049786
C42   C     C_R   0.649931 0.124854 0.489082 -0.038972
C43   C     C_R   0.438439 0.981795 0.490671 0.000580
C44   C     C_R   0.401794 0.061527 0.455604 0.053101
C45   C     C_R   0.890694 0.413065 0.822178 0.588405
C46   C     C_R   0.489668 0.167986 0.434575 0.446546
C47   C     C_R   0.612533 0.194817 0.448947 -0.244440
C48   C     C_R   0.351051 0.867970 0.501687 -0.169824
C49   C     C_R   0.191053 0.919179 0.455317 -0.206314
C50   C     C_R   0.773215 0.163153 0.509168 -0.099060
C51   C     C_R   0.363761 0.368017 0.592768 0.557139
C52   C     C_R   0.755887 0.639192 0.429256 0.066801
C53   C     C_R   0.659048 0.669030 0.413152 -0.250944
C54   C     C_R   0.558870 0.619334 0.440642 -0.145886
C55   C     C_R   0.554165 0.539170 0.485301 -0.046719
C56   C     C_R   0.090217 0.566772 0.823301 0.566397
C57   C     C_R   0.655539 0.509676 0.501124 0.177124
C58   C     C_R   0.451517 0.486066 0.514482 -0.107793
C59   C     C_R   0.460852 0.422142 0.562757 -0.081058
C60   C     C_R   0.564338 0.406381 0.580067 -0.214271
C61   C     C_R   0.647684 0.427586 0.547376 0.522858
C62   C     C_R   0.339481 0.493681 0.498571 0.043871
C63   C     C_R   0.255765 0.375475 0.574276 0.036774
C64   C     C_R   0.920578 0.533388 0.710673 -0.183995
C65   C     C_R   0.922492 0.536199 0.660409 0.532281
C66   C     C_R   0.073915 0.459262 0.682957 0.522093
Cu1   Cu    Cu3+1 0.098270 0.475420 0.511360 0.986005
Cu2   Cu    Cu3+1 0.901730 0.524580 0.488640 0.994211
H1    H     H_    0.861647 0.562517 0.721431 0.186125
H2    H     H_    0.266484 0.709582 0.879953 0.194680
H3    H     H_    0.896350 0.596852 0.327168 0.209591
H4    H     H_    0.287305 0.630497 0.132238 0.208341
H5    H     H_    0.264999 0.707830 0.965708 0.209366
H6    H     H_    0.096485 0.896019 0.441449 0.155239
H7    H     H_    0.247222 0.091635 0.414795 0.185722
H8    H     H_    0.128683 0.426259 0.761329 0.187181
H9    H     H_    0.378198 0.800552 0.520507 0.221911
H10   H     H_    0.906137 0.112683 0.558345 0.188234
H11   H     H_    0.757513 0.925687 0.594683 0.185157
H12   H     H_    0.678549 0.271352 0.428120 0.171107
H13   H     H_    0.180296 0.334803 0.597025 0.194629
H14   H     H_    0.572780 0.363290 0.618200 0.221867
H15   H     H_    0.324519 0.543451 0.462968 0.146956
H16   H     H_    0.833146 0.678479 0.407530 0.128483
H17   H     H_    0.487303 0.647081 0.426759 0.146210
H18   H     H_    0.661746 0.731321 0.379153 0.157073
H19   H     H_    0.680402 0.318171 0.027093 0.155039
H20   H     H_    0.702427 0.264778 0.966431 0.158841
N1    N     N_R   0.991960 0.490956 0.798762 -0.445755
N2    N     N_R   0.981877 0.481007 0.202931 -0.429496
N3    N     N_R   0.246290 0.438210 0.528570 -0.238514
N4    N     N_R   0.754320 0.561170 0.471730 -0.197215
O1    O     O_R   0.972510 0.318140 0.514280 -0.594785
O2    O     O_2   0.771359 0.367630 0.199336 -0.468555
O3    O     O_2   0.187736 0.643731 0.798725 -0.529075
O4    O     O_2   0.192812 0.595677 0.208742 -0.512953
O5    O     O_R   0.806530 0.359640 0.495100 -0.537064
O6    O     O_R   0.082990 0.479270 0.579320 -0.541541
O7    O     O_R   0.917010 0.520770 0.560140 -0.471118
O8    O     O_R   0.193470 0.640360 0.504900 -0.587017
O9    O     O_R   0.027490 0.681860 0.485720 -0.586363
O10   O     O_R   0.082990 0.479230 0.439860 -0.541711
O11   O     O_R   0.917010 0.520730 0.420680 -0.613982
O12   O     O_2   0.796433 0.339482 0.796332 -0.472799
F1    F     F_    0.148775 0.421495 0.671244 -0.632702
O13   O     O_3   0.319315 0.630382 0.044264 -0.598178
C67   C     C_3   0.347180 0.536043 0.049240 -0.266989
H21   H     H_    0.281098 0.473299 0.025589 0.161416
H22   H     H_    0.350838 0.492181 0.088924 0.179335
H23   H     H_    0.438396 0.568620 0.036406 0.205558
F2    F     F_    0.878793 0.601769 0.232365 -0.618229
O14   O     O_3   0.455567 0.238451 0.395111 -0.573559
C68   C     C_3   0.479188 0.340716 0.410432 -0.251736
H24   H     H_    0.578476 0.395879 0.414787 0.169687
H25   H     H_    0.437622 0.322446 0.445532 0.140469
H26   H     H_    0.437836 0.390048 0.381055 0.221710
O15   O     O_3   0.524644 0.855262 0.582846 -0.593061
C69   C     C_3   0.496190 0.897073 0.618271 -0.282152
H27   H     H_    0.449007 0.953055 0.600071 0.157744
H28   H     H_    0.579083 0.944483 0.641942 0.165896
H29   H     H_    0.433388 0.822530 0.643175 0.218277
F3    F     F_    0.372138 0.305690 0.639153 -0.648968
O16   O     O_3   0.682194 0.251437 0.874677 -0.532713
C70   C     C_3   0.587705 0.287549 0.862933 -0.196136
H30   H     H_    0.617639 0.375452 0.839453 0.163833
H31   H     H_    0.552180 0.284738 0.897236 0.128984
H32   H     H_    0.511557 0.227436 0.841061 0.208145
O17   O     O_3   0.720587 0.369274 0.561713 -0.526587
C71   C     C_3   0.659890 0.253045 0.585921 -0.331664
H33   H     H_    0.568416 0.207686 0.566586 0.152209
H34   H     H_    0.655068 0.247326 0.625994 0.178698
H35   H     H_    0.714723 0.206687 0.585996 0.185428
O18   O     O_3   0.100467 0.367071 0.378373 -0.529528
C72   C     C_3   0.013929 0.255604 0.396794 -0.225000
H36   H     H_    0.976657 0.201345 0.367586 0.149936
H37   H     H_    0.938571 0.258143 0.411870 0.124560
H38   H     H_    0.059682 0.213784 0.427915 0.180983
O19   O     O_3   0.092058 0.358711 0.280225 -0.514957
C73   C     C_3   0.003927 0.259843 0.261555 -0.263680
H39   H     H_    0.036744 0.191383 0.273010 0.191169
H40   H     H_    0.994017 0.279063 0.220167 0.161735
H41   H     H_    0.913246 0.223859 0.275955 0.130509
O20   O     O_3   0.653699 0.305352 0.117530 -0.531350
C74   C     C_3   0.617754 0.185230 0.128231 -0.223387
H42   H     H_    0.688011 0.162578 0.153750 0.151887
H43   H     H_    0.596855 0.149976 0.093485 0.138728
H44   H     H_    0.533420 0.143055 0.147477 0.204146
F4    F     F_    0.850263 0.577067 0.626393 -0.636812

loop_
_geom_bond_atom_site_label_1
_geom_bond_atom_site_label_2
_ccdc_geom_bond_type
C10   C27   A    
C58   C62   A    
C56   O3    S    
C21   C26   A    
C8    C66   A    
C57   N4    A    
C46   O14   S    
C41   C43   A    
C41   C42   A    
C54   C55   A    
Cu2   O11   S    
C62   H15   S    
O17   C71   S    
C72   H38   S    
O16   C70   S    
C23   O9    A    
C53   C54   A    
C34   O10   A    
C47   H12   S    
C63   H13   S    
C7    C56   A    
C28   C29   A    
C45   O12   S    
C14   H19   S    
C68   H24   S    
C4    C7    A    
C56   N1    A    
C5    C6    A    
C73   H41   S    
C9    C22   A    
O13   C67   S    
C15   C16   A    
C11   C13   A    
C18   C19   A    
C52   H16   S    
C69   H27   S    
C12   O7    A    
C33   H4    S    
Cu2   O5    S    
C60   H14   S    
C31   H2    S    
C16   C17   A    
C67   H21   S    
C53   H18   S    
C45   N1    A    
C43   C48   A    
C12   O6    A    
Cu1   O6    S    
C8    C12   S    
C68   H26   S    
C23   O8    A    
C59   C60   A    
C32   O13   S    
C21   C22   A    
C27   C30   A    
C67   H22   S    
C6    O16   S    
C74   H44   S    
O14   C68   S    
C4    C28   A    
C44   C46   A    
C7    C31   A    
C22   O18   S    
Cu1   Cu2   S    
C51   C63   A    
Cu2   O9    S    
C74   H43   S    
C10   C14   A    
C1    O5    A    
C39   C40   A    
C4    C5    A    
C72   H37   S    
C38   H10   S    
C58   C59   A    
C23   C37   S    
C20   N2    A    
C60   C61   A    
C65   F4    S    
C69   H29   S    
C39   H11   S    
C48   H9    S    
C43   C44   A    
C36   C49   A    
C36   H7    S    
C37   C49   A    
C16   C20   A    
C62   N3    A    
Cu1   N3    S    
C17   C18   A    
C64   H1    S    
C24   C25   A    
C37   C48   A    
Cu1   O8    S    
C42   C50   A    
C70   H32   S    
C15   O20   S    
C40   C41   A    
C6    C30   A    
C11   C32   A    
C55   C57   A    
O18   C72   S    
C67   H23   S    
C31   C35   A    
C36   C44   A    
C51   C59   A    
C24   H3    S    
C66   F1    S    
C30   H20   S    
C2    H8    S    
C52   C53   A    
C70   H31   S    
C71   H33   S    
C1    C50   S    
C20   O2    S    
C46   C47   A    
C35   H5    S    
C14   C15   A    
C74   H42   S    
C2    C66   A    
C10   C13   A    
C54   H17   S    
C21   O19   S    
C73   H39   S    
C9    C24   A    
C57   C61   A    
C72   H36   S    
C38   C50   A    
C26   N2    S    
C29   C35   A    
C34   O11   A    
C13   C17   A    
C3    N1    S    
C64   C65   A    
C71   H35   S    
C2    C3    A    
C25   C26   A    
Cu2   O7    S    
C19   N2    A    
O15   C69   S    
C32   C33   A    
C73   H40   S    
C38   C39   A    
C5    C45   A    
Cu2   N4    S    
C9    C34   S    
C40   O15   S    
C61   O17   S    
C42   C47   A    
C3    C64   A    
C18   C33   A    
C69   H28   S    
C52   N4    A    
O19   C73   S    
C25   F2    S    
C8    C65   A    
C11   C29   A    
C1    O1    A    
C55   C58   A    
C63   N3    A    
C27   C28   A    
Cu1   O1    S    
C51   F3    S    
C49   H6    S    
C71   H34   S    
C19   O4    S    
O20   C74   S    
Cu1   O10   S    
C70   H30   S    
C68   H25   S    
