data_mof_unit_61410.cif
_audit_creation_date              2012-12-11T14:47:32-0500
_audit_creation_method            fapswitch 2.2
_symmetry_space_group_name_H-M    P1
_symmetry_Int_Tables_number       1
_space_group_crystal_system       triclinic
_cell_length_a                    19.475346
_cell_length_b                    6.964341
_cell_length_c                    19.403834
_cell_angle_alpha                 91.086697
_cell_angle_beta                  95.9998
_cell_angle_gamma                 91.493083
_cell_volume                      2615.87158685

loop_
_atom_site_label
_atom_site_type_symbol
_atom_type_description
_atom_site_fract_x
_atom_site_fract_y
_atom_site_fract_z
_atom_type_partial_charge
O1    O     O_R   0.673510 0.377480 0.186100 -0.510149
O2    O     O_R   0.326490 0.622520 0.813900 -0.510149
O3    O     O_R   0.826490 0.877480 0.313900 -0.539944
O4    O     O_R   0.173510 0.122520 0.686100 -0.539944
O5    O     O_R   0.807790 0.705750 0.184090 -0.530600
O6    O     O_R   0.192210 0.294250 0.815910 -0.530600
O7    O     O_R   0.692210 0.205750 0.315910 -0.521319
O8    O     O_R   0.307790 0.794250 0.684090 -0.521319
C1    C     C_1   0.478156 0.994803 0.521227 0.003884
C2    C     C_1   0.521844 0.005197 0.478773 0.003884
C3    C     C_1   0.021844 0.494295 0.978788 0.002772
C4    C     C_1   0.978156 0.505705 0.021212 0.002772
C5    C     C_R   0.830901 0.538649 0.166293 0.727542
C6    C     C_R   0.169099 0.461351 0.833707 0.727543
C7    C     C_R   0.669083 0.037842 0.333732 0.736678
C8    C     C_R   0.330917 0.962158 0.666268 0.736678
O9    O     O_R   0.672870 0.707110 0.178120 -0.542560
O10   O     O_R   0.327130 0.292890 0.821880 -0.542560
O11   O     O_R   0.827130 0.207110 0.321880 -0.509220
O12   O     O_R   0.172870 0.792890 0.678120 -0.509220
O13   O     O_R   0.690610 0.878650 0.307880 -0.527105
O14   O     O_R   0.309390 0.121350 0.692120 -0.527105
O15   O     O_R   0.809390 0.378650 0.192120 -0.519347
O16   O     O_R   0.190610 0.621350 0.807880 -0.519346
C9    C     C_R   0.647095 0.534230 0.161656 0.742690
C10   C     C_R   0.352905 0.465770 0.838344 0.742690
C11   C     C_R   0.852897 0.042760 0.339000 0.736233
C12   C     C_R   0.147102 0.957240 0.661000 0.736233
C13   C     C_1   0.382920 0.972789 0.614293 -0.204204
C14   C     C_1   0.617080 0.027211 0.385707 -0.204204
C15   C     C_1   0.117087 0.470901 0.885742 -0.207121
C16   C     C_1   0.882913 0.529099 0.114258 -0.207121
O17   O     O_3   0.755980 0.544260 0.292580 -0.360391
O18   O     O_3   0.244020 0.455740 0.707420 -0.360391
O19   O     O_3   0.744020 0.044260 0.207420 -0.362218
O20   O     O_3   0.255980 0.955740 0.792580 -0.362218
V1    V     V_3+5 0.748890 0.818640 0.242100 1.437540
V2    V     V_3+5 0.251110 0.181360 0.757900 1.437541
V3    V     V_3+5 0.751110 0.318640 0.257900 1.499982
V4    V     V_3+5 0.248890 0.681360 0.742100 1.499983
C17   C     C_R   0.086267 0.948844 0.606633 -0.104457
C18   C     C_R   0.913733 0.051155 0.393367 -0.104457
C19   C     C_R   0.414681 0.493518 0.890435 -0.102642
C20   C     C_R   0.585319 0.506482 0.109565 -0.102644
C21   C     C_1   0.426403 0.982613 0.571617 0.005757
C22   C     C_1   0.573597 0.017387 0.428383 0.005758
C23   C     C_1   0.073606 0.481058 0.928417 0.004753
C24   C     C_1   0.926394 0.518942 0.071583 0.004753
C25   C     C_R   0.009612 0.234356 0.458482 -0.267359
C26   C     C_R   0.990388 0.765644 0.541518 -0.267359
C27   C     C_R   0.484006 0.311207 0.062609 -0.254103
C28   C     C_R   0.515994 0.688791 0.937391 -0.254103
C29   C     C_R   0.956854 0.219569 0.402748 0.357372
C30   C     C_R   0.043146 0.780431 0.597252 0.357372
C31   C     C_R   0.537692 0.351882 0.115965 0.356760
C32   C     C_R   0.462308 0.648116 0.884034 0.356756
C33   C     C_R   0.926366 0.899051 0.439319 -0.294844
C34   C     C_R   0.073634 0.100949 0.560681 -0.294844
C35   C     C_R   0.576751 0.620668 0.050453 -0.292293
C36   C     C_R   0.423249 0.379332 0.949547 -0.292291
C37   C     C_R   0.979184 0.915423 0.495023 0.118759
C38   C     C_R   0.020816 0.084577 0.504977 0.118759
C39   C     C_R   0.523219 0.578269 0.997066 0.117339
C40   C     C_R   0.476781 0.421731 0.002934 0.117339
H1    H     H_    0.106214 0.230006 0.567049 0.153175
H2    H     H_    0.893786 0.769994 0.432951 0.153175
H3    H     H_    0.386796 0.261716 0.955088 0.139983
H4    H     H_    0.613204 0.738285 0.044912 0.139983
H5    H     H_    0.041966 0.363737 0.465575 0.118850
H6    H     H_    0.958034 0.636263 0.534425 0.118850
H7    H     H_    0.447993 0.192211 0.067629 0.115786
H8    H     H_    0.552007 0.807787 0.932371 0.115786
O21   O     O_3   0.052855 0.632260 0.643384 -0.643401
H9    H     H_    0.019449 0.525383 0.629069 0.282133
O22   O     O_3   0.947145 0.367740 0.356616 -0.643401
H10   H     H_    0.980551 0.474617 0.370931 0.282133
O23   O     O_3   0.455725 0.757102 0.825016 -0.645677
H11   H     H_    0.492446 0.859270 0.828803 0.280968
O24   O     O_3   0.544276 0.242894 0.174983 -0.645675
H12   H     H_    0.507557 0.140715 0.171194 0.280966

loop_
_geom_bond_atom_site_label_1
_geom_bond_atom_site_label_2
_ccdc_geom_bond_type
C34   C38   A    
C1    C21   S    
O5    V1    S    
O21   H9    S    
C5    C16   S    
C3    C23   S    
O10   C10   A    
C6    C15   S    
C4    C24   S    
O23   H11   S    
C5    O15   A    
C26   C30   A    
C20   C31   A    
O19   V1    S    
C17   C34   A    
C18   C29   A    
O12   V4    S    
O15   V3    S    
C20   C35   A    
O14   V2    S    
C12   C17   S    
C9    C20   S    
C6    O16   A    
O17   V3    S    
C36   H3    S    
C2    C22   S    
O6    V2    S    
O11   C11   A    
C1    C2    T    
C33   H2    S    
O5    C5    A    
O7    C7    A    
O8    C8    A    
C15   C23   T    
O1    C9    A    
C16   C24   T    
C29   O22   S    
C27   H7    S    
C18   C33   A    
O4    C12   A    
C10   C19   S    
O20   V4    S    
O12   C12   A    
C8    C13   S    
O17   V1    S    
C32   O23   S    
O24   H12   S    
C13   C21   T    
O19   V3    S    
O22   H10   S    
C28   H8    S    
C35   H4    S    
O6    C6    A    
C30   O21   S    
C31   O24   S    
C34   H1    S    
O2    C10   A    
O9    V1    S    
O11   V3    S    
C19   C36   A    
O4    V2    S    
O18   V4    S    
C7    C14   S    
C8    O14   A    
C25   C38   A    
O18   V2    S    
C14   C22   T    
C27   C40   A    
C28   C39   A    
C3    C4    T    
C33   C37   A    
C35   C39   A    
C36   C40   A    
O9    C9    A    
O20   V2    S    
C26   H6    S    
C11   C18   S    
C25   C29   A    
O3    C11   A    
O16   V4    S    
C27   C31   A    
O10   V2    S    
C37   C38   A    
C17   C30   A    
O1    V3    S    
C39   C40   A    
O2    V4    S    
C19   C32   A    
C7    O13   A    
O13   V1    S    
O3    V1    S    
C26   C37   A    
O7    V3    S    
C25   H5    S    
O8    V4    S    
C28   C32   A    
