data_mof_unit_12516.cif
_audit_creation_date              2012-12-10T19:45:18-0500
_audit_creation_method            fapswitch 2.2
_symmetry_space_group_name_H-M    P1
_symmetry_Int_Tables_number       1
_space_group_crystal_system       triclinic
_cell_length_a                    14.904306
_cell_length_b                    14.258001
_cell_length_c                    10.77704
_cell_angle_alpha                 90.128464
_cell_angle_beta                  90.988633
_cell_angle_gamma                 90.035907
_cell_volume                      2289.83427369

loop_
_atom_site_label
_atom_site_type_symbol
_atom_type_description
_atom_site_fract_x
_atom_site_fract_y
_atom_site_fract_z
_atom_type_partial_charge
C1    C     C_R   0.327772 0.500094 0.501778 0.901498
C2    C     C_R   0.580038 0.895777 0.511775 -0.368383
C3    C     C_R   0.420832 0.896044 0.486066 -0.369828
C4    C     C_R   0.578297 0.796885 0.521048 0.522084
C5    C     C_R   0.421637 0.796688 0.478646 0.527917
C6    C     C_R   0.500604 0.947315 0.498271 0.097272
C7    C     C_R   0.499920 0.499565 0.262555 0.951543
C8    C     C_R   0.499371 0.499825 0.737232 0.897834
C9    C     C_2   0.481366 0.422516 0.933129 0.081490
C10   C     C_2   0.502918 0.419879 0.064275 0.090426
C11   C     C_2   0.506573 0.498103 0.868802 -0.392564
C12   C     C_R   0.672204 0.500288 0.500584 0.934994
C13   C     C_2   0.489060 0.497872 0.131068 -0.372780
C14   C     C_R   0.098884 0.568212 0.602988 -0.285219
C15   C     C_R   0.909762 0.570271 0.453049 -0.329369
C16   C     C_R   0.191582 0.565534 0.596299 0.426096
C17   C     C_R   0.816371 0.566164 0.436289 0.445373
C18   C     C_R   0.231835 0.500498 0.515110 -0.274418
C19   C     C_R   0.768544 0.502502 0.510483 -0.259389
C20   C     C_R   0.179419 0.436613 0.445963 0.421852
C21   C     C_R   0.812106 0.446504 0.600760 0.415109
C22   C     C_R   0.087200 0.436948 0.459429 -0.261941
C23   C     C_R   0.047886 0.503529 0.535668 0.018919
C24   C     C_R   0.904647 0.447329 0.608578 -0.259032
C25   C     C_3   0.681372 0.763015 0.672469 0.078426
C26   C     C_3   0.774749 0.722110 0.696970 -0.292714
C27   C     C_3   0.806072 0.738970 0.830681 -1.014539
C28   C     C_3   0.298437 0.776289 0.349286 0.103448
C29   C     C_3   0.222951 0.706981 0.318373 -0.293538
C30   C     C_3   0.165885 0.740200 0.208085 -1.020927
C31   C     C_3   0.280575 0.592844 0.768343 0.151244
C32   C     C_3   0.216191 0.597409 0.877337 -0.389983
C33   C     C_3   0.264457 0.572930 0.998828 -0.994980
C34   C     C_R   0.952301 0.509284 0.535766 0.031603
C35   C     C_3   0.815308 0.661279 0.255416 0.103359
C36   C     C_3   0.846059 0.761874 0.283071 -0.327711
C37   C     C_3   0.897410 0.802711 0.174530 -0.984789
C38   C     C_3   0.203497 0.401279 0.241053 0.056423
C39   C     C_3   0.161533 0.319680 0.168297 -0.332298
C40   C     C_3   0.145351 0.344984 0.032205 -0.969425
C41   C     C_3   0.733523 0.437716 0.781589 0.109078
C42   C     C_3   0.806822 0.449136 0.882165 -0.389010
C43   C     C_3   0.768022 0.485707 0.003042 -0.953889
C44   C     C_R   0.448272 0.105066 0.411752 -0.068510
C45   C     C_R   0.551876 0.105079 0.587173 -0.067639
C46   C     C_R   0.446640 0.204798 0.417159 0.176248
C47   C     C_R   0.552582 0.204852 0.583492 0.172081
C48   C     C_R   0.500554 0.053742 0.498768 0.146089
H1    H     H_    0.540744 0.557130 0.912823 0.129197
H2    H     H_    0.469940 0.284927 0.886654 0.170021
H3    H     H_    0.600627 0.321668 0.069073 0.166386
H4    H     H_    0.497854 0.280563 0.100153 0.162182
H5    H     H_    0.632282 0.726080 0.732027 0.141222
H6    H     H_    0.683414 0.838693 0.698636 0.131926
H7    H     H_    0.773374 0.645668 0.679332 0.214282
H8    H     H_    0.823484 0.754571 0.632953 0.226711
H9    H     H_    0.813211 0.815341 0.848873 0.269030
H10   H     H_    0.872195 0.704824 0.846764 0.271688
H11   H     H_    0.757253 0.708931 0.896351 0.261181
H12   H     H_    0.462621 0.561360 0.088561 0.129289
H13   H     H_    0.346086 0.777065 0.270543 0.120020
H14   H     H_    0.268000 0.846931 0.360073 0.135100
H15   H     H_    0.252201 0.637272 0.296699 0.205341
H16   H     H_    0.178902 0.699488 0.399856 0.244176
H17   H     H_    0.131575 0.806999 0.231080 0.273968
H18   H     H_    0.114104 0.686546 0.185301 0.262486
H19   H     H_    0.208289 0.751110 0.125642 0.279598
H20   H     H_    0.341142 0.635105 0.792067 0.180963
H21   H     H_    0.303906 0.519266 0.754684 0.101218
H22   H     H_    0.187721 0.669204 0.884748 0.237575
H23   H     H_    0.066739 0.620625 0.660088 0.167793
H24   H     H_    0.160167 0.547104 0.861433 0.214581
H25   H     H_    0.298123 0.503801 0.991520 0.269666
H26   H     H_    0.215083 0.569717 0.074304 0.270172
H27   H     H_    0.315271 0.627381 0.022462 0.266271
H28   H     H_    0.768009 0.663803 0.174708 0.162357
H29   H     H_    0.871400 0.615507 0.225353 0.110454
H30   H     H_    0.786349 0.806337 0.300767 0.240441
H31   H     H_    0.889593 0.763845 0.367630 0.213579
H32   H     H_    0.957136 0.759043 0.154629 0.269814
H33   H     H_    0.920154 0.874871 0.197971 0.268570
H34   H     H_    0.950883 0.618287 0.401257 0.157181
H35   H     H_    0.853456 0.805836 0.090421 0.273261
H36   H     H_    0.269596 0.418536 0.200690 0.166460
H37   H     H_    0.159743 0.464458 0.229497 0.120471
H38   H     H_    0.206669 0.257743 0.173841 0.214820
H39   H     H_    0.096438 0.300580 0.210219 0.218386
H40   H     H_    0.101115 0.407443 0.024148 0.266826
H41   H     H_    0.112304 0.285284 0.983373 0.265056
H42   H     H_    0.210000 0.359692 0.986565 0.264933
H43   H     H_    0.677768 0.396376 0.821102 0.180274
H44   H     H_    0.704553 0.507167 0.756038 0.101472
H45   H     H_    0.046009 0.387830 0.406746 0.162039
H46   H     H_    0.839603 0.380342 0.899868 0.232840
H47   H     H_    0.858425 0.499483 0.850309 0.216427
H48   H     H_    0.733698 0.553836 0.987505 0.257305
H49   H     H_    0.823044 0.495542 0.072502 0.258069
H50   H     H_    0.719315 0.434733 0.040612 0.269256
H51   H     H_    0.421675 0.078004 0.229932 0.181617
H52   H     H_    0.330887 0.072768 0.323021 0.172045
H53   H     H_    0.577239 0.077422 0.769023 0.181966
H54   H     H_    0.668741 0.073227 0.677136 0.177191
H55   H     H_    0.399150 0.239689 0.246308 0.147238
H56   H     H_    0.939346 0.400391 0.672195 0.165323
H57   H     H_    0.321675 0.235110 0.357882 0.209434
H58   H     H_    0.591417 0.240793 0.758019 0.146391
H59   H     H_    0.674972 0.236068 0.653908 0.210441
H60   H     H_    0.643905 0.931824 0.518332 0.178942
H61   H     H_    0.357611 0.933177 0.483000 0.172950
H62   H     H_    0.372827 0.337342 0.925678 0.166256
N1    N     N_R   0.500000 0.252470 0.500000 -0.096616
N2    N     N_R   0.500000 0.747550 0.500000 -0.165681
N3    N     N_3   0.432197 0.346210 0.876831 -0.418236
N4    N     N_3   0.541807 0.336329 0.116779 -0.410629
N5    N     N_3   0.398876 0.056007 0.316293 -0.477437
N6    N     N_3   0.600783 0.055981 0.682707 -0.478343
N7    N     N_3   0.386835 0.256845 0.338504 -0.360066
N8    N     N_3   0.608721 0.257157 0.667145 -0.367604
O1    O     O_R   0.369060 0.579480 0.500010 -0.544531
O2    O     O_3   0.341837 0.748490 0.461104 -0.577488
O3    O     O_3   0.241101 0.632640 0.660386 -0.602085
O4    O     O_3   0.767302 0.625218 0.356841 -0.602612
O5    O     O_3   0.218469 0.373464 0.365835 -0.636809
O6    O     O_3   0.765405 0.387222 0.677910 -0.645194
O7    O     O_R   0.630940 0.579480 0.499990 -0.536837
O8    O     O_R   0.369050 0.420520 0.500010 -0.577621
O9    O     O_R   0.630950 0.420520 0.499990 -0.590672
O10   O     O_R   0.500000 0.579460 0.319080 -0.627340
O11   O     O_R   0.500000 0.579460 0.680920 -0.652833
O12   O     O_R   0.499990 0.420500 0.319080 -0.575706
O13   O     O_R   0.500010 0.420500 0.680920 -0.574602
O14   O     O_3   0.657666 0.750331 0.545847 -0.587207
Zn1   Zn    Zn3+2 0.500000 0.606140 0.500000 1.013481
Zn2   Zn    Zn3+2 0.500000 0.393860 0.500000 1.003012

loop_
_geom_bond_atom_site_label_1
_geom_bond_atom_site_label_2
_ccdc_geom_bond_type
C29   H15   S    
C41   C42   S    
C14   H23   S    
C35   C36   S    
C43   H50   S    
C39   H39   S    
N2    Zn1   S    
C3    C6    A    
C37   H33   S    
C26   H7    S    
C4    O14   S    
C13   H12   S    
O12   Zn2   S    
C26   C27   S    
O1    Zn1   S    
C6    C48   S    
C41   O6    S    
C36   C37   S    
C19   C21   A    
C25   H5    S    
H51   N5    S    
C38   C39   S    
H55   N7    S    
C1    O1    A    
C20   O5    S    
C33   H27   S    
C47   N8    S    
C44   N5    S    
C7    O12   A    
O9    Zn2   S    
C40   H41   S    
C9    C10   S    
C15   C34   A    
C38   O5    S    
C10   N4    S    
C28   H13   S    
O13   Zn2   S    
C4    N2    A    
C29   H16   S    
C46   N1    A    
H58   N8    S    
H57   N7    S    
C2    C6    A    
H52   N5    S    
C44   C46   A    
C15   H34   S    
C45   C47   A    
C31   H20   S    
C37   H32   S    
C35   H28   S    
H3    N4    S    
C5    O2    S    
C42   H47   S    
C43   H49   S    
C1    O8    A    
C31   O3    S    
C32   H24   S    
C28   O2    S    
C39   C40   S    
C12   O9    A    
C3    H61   S    
C32   H22   S    
C12   O7    A    
C38   H37   S    
C25   C26   S    
C10   C13   D    
C24   C34   A    
C46   N7    S    
C24   H56   S    
C14   C23   A    
C2    C4    A    
C16   O3    S    
C29   C30   S    
C11   H1    S    
C17   O4    S    
C31   C32   S    
C31   H21   S    
C23   C34   S    
C8    O13   A    
C43   H48   S    
C1    C18   S    
C25   H6    S    
C9    C11   D    
H62   N3    S    
C30   H18   S    
O11   Zn1   S    
C33   H25   S    
C41   H43   S    
C20   C22   A    
C27   H9    S    
C7    O10   A    
C22   H45   S    
C14   C16   A    
C42   C43   S    
C45   C48   A    
O7    Zn1   S    
C15   C17   A    
C28   C29   S    
H59   N8    S    
C38   H36   S    
C42   H46   S    
C35   O4    S    
C30   H19   S    
C3    C5    A    
C36   H31   S    
C26   H8    S    
N1    Zn2   S    
C5    N2    A    
H4    N4    S    
H2    N3    S    
C9    N3    S    
C32   C33   S    
C40   H40   S    
C21   O6    S    
C36   H30   S    
O10   Zn1   S    
C45   N6    S    
C27   H10   S    
C8    C11   S    
C47   N1    A    
C12   C19   S    
C2    H60   S    
C17   C19   A    
C35   H29   S    
C18   C20   A    
C30   H17   S    
H54   N6    S    
C33   H26   S    
C7    C13   S    
C41   H44   S    
O8    Zn2   S    
C16   C18   A    
C21   C24   A    
C8    O11   A    
H53   N6    S    
C22   C23   A    
C37   H35   S    
C27   H11   S    
C39   H38   S    
C40   H42   S    
C25   O14   S    
C44   C48   A    
C28   H14   S    
