data_mof_unit_40149.cif
_audit_creation_date              2012-12-10T18:44:21-0500
_audit_creation_method            fapswitch 2.2
_symmetry_space_group_name_H-M    P1
_symmetry_Int_Tables_number       1
_space_group_crystal_system       triclinic
_cell_length_a                    12.850597
_cell_length_b                    10.680564
_cell_length_c                    9.908153
_cell_angle_alpha                 90.851352
_cell_angle_beta                  98.08978
_cell_angle_gamma                 91.331439
_cell_volume                      1345.78802627

loop_
_atom_site_label
_atom_site_type_symbol
_atom_type_description
_atom_site_fract_x
_atom_site_fract_y
_atom_site_fract_z
_atom_type_partial_charge
C1    C     C_R   0.499625 0.260136 0.499273 0.861496
C2    C     C_R   0.500949 0.739859 0.500953 0.861240
C3    C     C_R   0.502236 0.872412 0.502110 -0.008906
C4    C     C_R   0.499803 0.127602 0.499152 -0.003978
C5    C     C_R   0.565772 0.578290 0.086998 -0.114995
C6    C     C_R   0.433007 0.423182 0.912815 -0.116811
C7    C     C_R   0.568294 0.577331 0.944275 0.219915
C8    C     C_R   0.433634 0.420314 0.056056 0.220376
C9    C     C_R   0.298088 0.498449 0.472353 0.879159
C10   C     C_R   0.701918 0.500861 0.527500 0.879120
C11   C     C_R   0.814475 0.498834 0.544140 -0.046316
C12   C     C_R   0.185477 0.498357 0.454872 -0.050261
C13   C     C_R   0.020699 0.556718 0.328588 -0.220660
C14   C     C_R   0.978911 0.437517 0.668906 -0.223739
C15   C     C_R   0.128365 0.544186 0.335905 -0.209839
C16   C     C_R   0.871275 0.449892 0.661524 -0.203510
C17   C     C_R   0.135468 0.459805 0.563967 -0.279046
C18   C     C_R   0.864513 0.537290 0.434947 -0.279897
C19   C     C_R   0.028705 0.472811 0.558119 0.187668
C20   C     C_R   0.971086 0.522869 0.440060 0.187246
C21   C     C_R   0.543673 0.063922 0.397925 -0.193464
C22   C     C_R   0.459875 0.936162 0.604669 -0.199413
C23   C     C_R   0.544463 0.935567 0.398975 -0.193091
C24   C     C_R   0.458263 0.064458 0.602886 -0.192657
H1    H     H_    0.820158 0.576106 0.344472 0.150702
H2    H     H_    0.179980 0.422029 0.654916 0.149751
H3    H     H_    0.832205 0.417299 0.744743 0.159766
H4    H     H_    0.167214 0.573975 0.251177 0.160329
H5    H     H_    0.976682 0.594197 0.237314 0.140388
H6    H     H_    0.022729 0.398734 0.759570 0.138127
H7    H     H_    0.578692 0.113185 0.320114 0.151261
H8    H     H_    0.426597 0.887000 0.684116 0.154904
H9    H     H_    0.578812 0.885927 0.320540 0.146511
H10   H     H_    0.423996 0.114047 0.681438 0.146685
H11   H     H_    0.617557 0.640962 0.153876 0.143586
H12   H     H_    0.379409 0.362687 0.845668 0.143086
N1    N     N_R   0.499970 0.499970 0.857200 -0.117989
N2    N     N_R   0.500030 0.500030 0.142800 -0.118085
O1    O     O_R   0.499990 0.316750 0.614620 -0.621909
O2    O     O_R   0.500010 0.683250 0.385380 -0.621854
O3    O     O_R   0.499990 0.316780 0.385290 -0.626768
O4    O     O_R   0.500010 0.683220 0.614710 -0.646967
O5    O     O_R   0.346360 0.499970 0.595710 -0.620103
O6    O     O_R   0.653640 0.500030 0.404290 -0.619776
O7    O     O_R   0.346360 0.499990 0.366380 -0.646969
O8    O     O_R   0.653640 0.500010 0.633620 -0.627330
Zn1   Zn    Zn3+2 0.500000 0.499980 0.653120 0.930883
Zn2   Zn    Zn3+2 0.500000 0.500020 0.346880 0.930693
C25   C     C_3   0.648530 0.664090 0.894500 -0.384585
C26   C     C_3   0.760705 0.625672 0.946772 -0.902420
H13   H     H_    0.770302 0.524621 0.925696 0.267467
H14   H     H_    0.817315 0.680743 0.894966 0.257143
H15   H     H_    0.779624 0.643786 0.058254 0.242045
H16   H     H_    0.640405 0.666875 0.783527 0.270234
H17   H     H_    0.636967 0.761289 0.930184 0.177848
C27   C     C_3   0.358717 0.327081 0.106749 -0.392043
C28   C     C_3   0.388712 0.192336 0.079316 -0.887375
H18   H     H_    0.472808 0.178496 0.118292 0.268643
H19   H     H_    0.340021 0.126515 0.131426 0.256701
H20   H     H_    0.374937 0.169789 0.968385 0.243104
H21   H     H_    0.355828 0.337722 0.215787 0.270444
H22   H     H_    0.277673 0.342650 0.054934 0.174234

loop_
_geom_bond_atom_site_label_1
_geom_bond_atom_site_label_2
_ccdc_geom_bond_type
C12   C17   A    
C10   O8    A    
C26   H14   S    
C11   C18   A    
C9    O7    A    
C14   C16   A    
N1    Zn1   S    
O5    Zn1   S    
C11   C16   A    
C3    C22   A    
C3    C23   A    
C19   C20   A    
C12   C15   A    
C1    C4    S    
C8    C27   S    
C16   H3    S    
C13   C15   A    
C2    C3    S    
C7    N1    A    
C6    N1    A    
C25   H17   S    
C5    N2    A    
C4    C21   A    
C21   H7    S    
C28   H18   S    
C18   H1    S    
C22   H8    S    
C8    N2    A    
C2    O4    A    
C17   H2    S    
C5    H11   S    
C1    O3    A    
C17   C19   A    
O3    Zn2   S    
C14   H6    S    
C26   H13   S    
C22   C24   A    
O4    Zn1   S    
C21   C23   A    
C4    C24   A    
C9    C12   S    
C27   H22   S    
C28   H19   S    
C26   H15   S    
C9    O5    A    
C10   C11   S    
C1    O1    A    
C10   O6    A    
C25   H16   S    
C15   H4    S    
C2    O2    A    
C27   C28   S    
C7    C25   S    
C18   C20   A    
O1    Zn1   S    
C25   C26   S    
O7    Zn2   S    
C13   H5    S    
C5    C7    A    
O2    Zn2   S    
O8    Zn1   S    
C28   H20   S    
C6    C8    A    
C13   C20   A    
C27   H21   S    
N2    Zn2   S    
C14   C19   A    
C24   H10   S    
O6    Zn2   S    
C6    H12   S    
C23   H9    S    
