data_mof_unit_18513.cif
_audit_creation_date              2012-12-10T18:10:22-0500
_audit_creation_method            fapswitch 2.2
_symmetry_space_group_name_H-M    P1
_symmetry_Int_Tables_number       1
_space_group_crystal_system       triclinic
_cell_length_a                    10.793398
_cell_length_b                    9.406798
_cell_length_c                    15.902148
_cell_angle_alpha                 89.936021
_cell_angle_beta                  90.34665
_cell_angle_gamma                 89.971849
_cell_volume                      1614.53523617

loop_
_atom_site_label
_atom_site_type_symbol
_atom_type_description
_atom_site_fract_x
_atom_site_fract_y
_atom_site_fract_z
_atom_type_partial_charge
C1    C     C_R   0.259865 0.499879 0.497451 0.877177
C2    C     C_3   0.589314 0.611915 0.947803 -0.497219
C3    C     C_3   0.596921 0.618821 0.047054 -0.182299
C4    C     C_1   0.497064 0.498402 0.824489 0.017067
C5    C     C_1   0.504133 0.501661 0.175821 0.099180
C6    C     C_1   0.503563 0.500818 0.251130 -0.064361
C7    C     C_3   0.073689 0.593918 0.566269 -0.448048
C8    C     C_3   0.071298 0.347028 0.509675 -0.474053
C9    C     C_3   0.931387 0.582888 0.572967 0.180740
C10   C     C_3   0.928960 0.345062 0.501690 0.152962
C11   C     C_3   0.071689 0.552059 0.402982 -0.143432
C12   C     C_3   0.121910 0.500055 0.492783 -0.164976
C13   C     C_3   0.877867 0.501012 0.494916 -0.054183
C14   C     C_R   0.502170 0.500184 0.340415 0.874112
C15   C     C_3   0.923885 0.571599 0.409756 0.680639
C16   C     C_3   0.617776 0.083589 0.536158 -0.205869
C17   C     C_3   0.618140 0.916098 0.535616 -0.171380
C18   C     C_3   0.398510 0.083848 0.553963 -0.187139
C19   C     C_3   0.399291 0.916169 0.554627 -0.204182
C20   C     C_3   0.483940 0.083757 0.415903 -0.176496
C21   C     C_3   0.483530 0.916552 0.415951 -0.175921
C22   C     C_R   0.740001 0.500034 0.499746 0.799836
C23   C     C_R   0.499767 0.499894 0.659755 0.829692
C24   C     C_3   0.368598 0.532388 0.050670 0.247563
C25   C     C_3   0.546970 0.352757 0.050666 0.142489
C26   C     C_3   0.542020 0.350477 0.952253 -0.169545
C27   C     C_3   0.365782 0.542178 0.952333 -0.255178
C28   C     C_1   0.498557 0.499418 0.749128 -0.126829
C29   C     C_3   0.503959 0.502164 0.083444 -0.007549
C30   C     C_3   0.495503 0.497120 0.916828 0.005600
Cu1   Cu    Cu3+1 0.499860 0.642410 0.500040 0.940828
Cu2   Cu    Cu3+1 0.499860 0.357590 0.500040 0.937285
H1    H     H_    0.633667 0.123040 0.601256 0.158780
H2    H     H_    0.635216 0.875360 0.600353 0.184253
H3    H     H_    0.697138 0.120825 0.498075 0.176255
H4    H     H_    0.697158 0.880007 0.496672 0.179910
H5    H     H_    0.406366 0.123780 0.619557 0.165659
H6    H     H_    0.409184 0.877699 0.620467 0.154051
H7    H     H_    0.395794 0.123458 0.387776 0.157822
H8    H     H_    0.395179 0.877382 0.388132 0.179224
H9    H     H_    0.559996 0.121476 0.374584 0.170494
H10   H     H_    0.559089 0.878417 0.374368 0.165330
H11   H     H_    0.307281 0.120806 0.529664 0.147610
H12   H     H_    0.307973 0.877610 0.531951 0.177048
H13   H     H_    0.645637 0.335189 0.069412 0.124392
H14   H     H_    0.338544 0.637652 0.074385 0.201749
H15   H     H_    0.640011 0.340171 0.931210 0.137730
H16   H     H_    0.354900 0.657217 0.937019 0.113018
H17   H     H_    0.561119 0.716579 0.920884 0.208822
H18   H     H_    0.680732 0.591704 0.918537 0.243793
H19   H     H_    0.104943 0.705376 0.560167 0.233648
H20   H     H_    0.112669 0.267463 0.466395 0.210604
H21   H     H_    0.115248 0.556638 0.626722 0.162100
H22   H     H_    0.098314 0.312274 0.574237 0.165976
H23   H     H_    0.910845 0.517942 0.629833 0.136086
H24   H     H_    0.891132 0.294427 0.559718 0.094652
N1    N     N_3   0.500250 0.143650 0.501830 -0.130624
N2    N     N_3   0.500250 0.856350 0.501830 -0.143285
O1    O     O_R   0.317570 0.620260 0.500050 -0.589789
O2    O     O_R   0.317570 0.379740 0.500050 -0.583724
O3    O     O_R   0.499890 0.620310 0.379470 -0.584618
O4    O     O_R   0.499890 0.379690 0.379470 -0.582299
O5    O     O_R   0.682190 0.620260 0.500020 -0.568857
O6    O     O_R   0.682190 0.379740 0.500020 -0.577981
O7    O     O_R   0.499870 0.620210 0.620600 -0.586073
O8    O     O_R   0.499870 0.379790 0.620600 -0.582998
C31   C     C_2   0.250321 0.477982 0.912065 0.909771
O9    O     O_2   0.256957 0.396019 0.852683 -0.584662
O10   O     O_R   0.134066 0.519749 0.941556 -0.710781
H25   H     H_    0.063352 0.472527 0.909987 0.347833
C32   C     C_2   0.477910 0.220986 0.915079 0.980058
O11   O     O_2   0.373596 0.187199 0.936856 -0.524184
O12   O     O_R   0.540715 0.138201 0.856062 -0.772796
H26   H     H_    0.489798 0.054328 0.835703 0.328513
O13   O     O_3   0.874851 0.715984 0.587202 -0.712102
H27   H     H_    0.916637 0.790076 0.553420 0.377504
O14   O     O_3   0.892036 0.263717 0.431750 -0.643625
H28   H     H_    0.909318 0.162727 0.445838 0.330835
C33   C     C_2   0.131162 0.694356 0.375555 0.919323
O15   O     O_2   0.182890 0.705248 0.307488 -0.544010
O16   O     O_R   0.122983 0.814714 0.426804 -0.768182
H29   H     H_    0.162460 0.901944 0.400764 0.320418
C34   C     C_2   0.112567 0.438705 0.337361 0.909115
O17   O     O_2   0.039039 0.360176 0.301682 -0.453065
O18   O     O_R   0.238555 0.421993 0.320326 -0.776485
H30   H     H_    0.255422 0.344120 0.277842 0.350505
O19   O     O_3   0.894791 0.718454 0.410569 -0.733819
H31   H     H_    0.810305 0.734496 0.387669 0.332592
O20   O     O_3   0.864225 0.509071 0.339338 -0.633814
H32   H     H_    0.773405 0.522605 0.343124 0.305696
O21   O     O_3   0.282237 0.435522 0.084427 -0.640534
H33   H     H_    0.283289 0.347147 0.050883 0.403942
O22   O     O_3   0.477174 0.241555 0.086257 -0.689495
H34   H     H_    0.514029 0.219173 0.142092 0.333318
C35   C     C_2   0.567321 0.771338 0.074379 0.854101
O23   O     O_2   0.492687 0.796197 0.130036 -0.586488
O24   O     O_R   0.632158 0.884087 0.037661 -0.723438
H35   H     H_    0.606851 0.980018 0.060933 0.359397
C36   C     C_2   0.729346 0.590264 0.078968 0.867392
O25   O     O_2   0.755024 0.611262 0.153028 -0.555160
O26   O     O_R   0.821306 0.538303 0.025429 -0.756261
H36   H     H_    0.903611 0.523419 0.055239 0.383324

loop_
_geom_bond_atom_site_label_1
_geom_bond_atom_site_label_2
_ccdc_geom_bond_type
C27   H16   S    
O19   H31   S    
C25   O22   S    
O22   H34   S    
O12   H26   S    
Cu1   O3    S    
C35   O23   D    
C24   C27   S    
O16   H29   S    
O14   H28   S    
O26   H36   S    
Cu1   N2    S    
Cu2   O8    S    
C2    H17   S    
C18   H5    S    
C1    O1    A    
C16   H3    S    
C5    C6    T    
C6    C14   S    
C14   O4    A    
O24   H35   S    
Cu1   O7    S    
C18   C19   S    
Cu1   O1    S    
C3    C29   S    
C9    C13   S    
C24   C29   S    
C2    H18   S    
C22   O5    A    
C11   C15   S    
Cu1   Cu2   S    
C16   C17   S    
C9    H23   S    
C17   H4    S    
C10   H24   S    
C8    H20   S    
C17   N2    S    
C27   C30   S    
C26   C32   S    
C1    C12   S    
Cu2   N1    S    
C4    C28   T    
C10   O14   S    
C20   H9    S    
C5    C29   S    
C19   N2    S    
C25   C29   S    
C7    C12   S    
C31   O9    D    
Cu1   O5    S    
Cu2   O6    S    
C1    O2    A    
C8    H22   S    
O21   H33   S    
C33   O16   S    
C20   H7    S    
C11   C34   S    
C25   C26   S    
O18   H30   S    
C14   O3    A    
C22   O6    A    
C21   H10   S    
C31   O10   S    
O13   H27   S    
C19   H6    S    
C16   H1    S    
C15   O20   S    
C18   N1    S    
C34   O17   D    
C8    C12   S    
C23   C28   S    
C11   C33   S    
C26   H15   S    
C34   O18   S    
C26   C30   S    
C13   C15   S    
C17   H2    S    
Cu2   O2    S    
C24   O21   S    
C25   H13   S    
C19   H12   S    
C23   O8    A    
C15   O19   S    
C7    C9    S    
C36   O26   S    
C10   C13   S    
C11   C12   S    
C35   O24   S    
C36   O25   D    
C2    C30   S    
C24   H14   S    
C23   O7    A    
C2    C3    S    
O20   H32   S    
Cu2   O4    S    
C32   O11   D    
C18   H11   S    
C21   H8    S    
C13   C22   S    
C16   N1    S    
O10   H25   S    
C27   C31   S    
C7    H19   S    
C33   O15   D    
C3    C36   S    
C21   N2    S    
C20   C21   S    
C8    C10   S    
C32   O12   S    
C7    H21   S    
C3    C35   S    
C9    O13   S    
C20   N1    S    
C4    C30   S    
