data_mof_unit_37979.cif
_audit_creation_date              2012-12-10T17:20:25-0500
_audit_creation_method            fapswitch 2.2
_symmetry_space_group_name_H-M    P1
_symmetry_Int_Tables_number       1
_space_group_crystal_system       triclinic
_cell_length_a                    11.701585
_cell_length_b                    10.772714
_cell_length_c                    9.622417
_cell_angle_alpha                 89.781975
_cell_angle_beta                  90.02088
_cell_angle_gamma                 92.602779
_cell_volume                      1211.72084772

loop_
_atom_site_label
_atom_site_type_symbol
_atom_type_description
_atom_site_fract_x
_atom_site_fract_y
_atom_site_fract_z
_atom_type_partial_charge
C1    C     C_R   0.497999 0.262840 0.500288 0.796385
C2    C     C_R   0.196269 0.048134 0.625527 -0.135959
C3    C     C_R   0.195593 0.918545 0.624489 0.223749
C4    C     C_R   0.294419 0.859244 0.583564 -0.192044
C5    C     C_R   0.394406 0.928870 0.543253 0.014525
C6    C     C_R   0.393884 0.059933 0.544160 0.089944
C7    C     C_R   0.493067 0.128958 0.501057 -0.103861
C8    C     C_R   0.590512 0.070274 0.458109 -0.239308
C9    C     C_R   0.592366 0.941631 0.458490 0.136322
C10   C     C_R   0.494616 0.871005 0.500056 -0.071105
C11   C     C_R   0.653405 0.663760 0.142772 -0.126672
C12   C     C_R   0.284171 0.499409 0.499980 0.791180
C13   C     C_R   0.729715 0.742277 0.070195 -0.200547
C14   C     C_R   0.729254 0.742760 0.927061 -0.199675
C15   C     C_R   0.653097 0.664065 0.855441 -0.129651
C16   C     C_R   0.575131 0.580693 0.924872 0.208603
C17   C     C_R   0.575163 0.580619 0.074280 0.200261
C18   C     C_R   0.428514 0.423156 0.074101 -0.048494
C19   C     C_R   0.428563 0.423162 0.926374 -0.049697
C20   C     C_R   0.499287 0.737156 0.499863 0.815678
C21   C     C_R   0.715826 0.500510 0.500025 0.811746
C22   C     C_1   0.162441 0.499950 0.499989 -0.190799
C23   C     C_1   0.059947 0.500495 0.500060 -0.009407
C24   C     C_1   0.940117 0.500925 0.500116 -0.002141
C25   C     C_1   0.837594 0.500904 0.500094 -0.174906
C26   C     C_R   0.293842 0.118352 0.585571 -0.228169
Cu1   Cu    Cu3+1 0.499990 0.499990 0.640660 0.938145
Cu2   Cu    Cu3+1 0.500010 0.500010 0.359340 0.945534
H1    H     H_    0.666274 0.124831 0.426240 0.143160
H2    H     H_    0.659649 0.672737 0.745886 0.199311
H3    H     H_    0.369985 0.360019 0.871598 0.139122
H4    H     H_    0.289812 0.218490 0.586593 0.137173
H5    H     H_    0.120487 0.094877 0.656912 0.143920
H6    H     H_    0.291961 0.758868 0.582566 0.131441
H7    H     H_    0.369876 0.360038 0.129274 0.140453
N1    N     N_R   0.501070 0.501210 0.147910 -0.199940
N2    N     N_R   0.501110 0.501290 0.852040 -0.198574
O1    O     O_R   0.499990 0.319640 0.618810 -0.574754
O2    O     O_R   0.500000 0.319660 0.381240 -0.573849
O3    O     O_R   0.337190 0.500000 0.618790 -0.580421
O4    O     O_R   0.337200 0.500030 0.381210 -0.567831
O5    O     O_R   0.500000 0.680340 0.618760 -0.602839
O6    O     O_R   0.500010 0.680360 0.381190 -0.584168
O7    O     O_R   0.662800 0.499970 0.618790 -0.589211
O8    O     O_R   0.662810 0.500000 0.381210 -0.590120
H8    H     H_    0.788363 0.804732 0.870744 0.158647
N3    N     N_3   0.093934 0.848488 0.665949 -0.595976
H9    H     H_    0.030860 0.864127 0.591718 0.207771
H10   H     H_    0.107729 0.753283 0.664194 0.222111
N4    N     N_3   0.694828 0.882451 0.419947 -0.632102
H11   H     H_    0.759633 0.911872 0.488756 0.213255
H12   H     H_    0.718387 0.914054 0.320791 0.217950
H13   H     H_    0.659699 0.672244 0.252240 0.214590
H14   H     H_    0.789725 0.803470 0.125492 0.151245

loop_
_geom_bond_atom_site_label_1
_geom_bond_atom_site_label_2
_ccdc_geom_bond_type
C12   O3    A    
N4    H12   S    
C23   C24   S    
C26   H4    S    
C12   O4    A    
C17   N1    A    
C21   O7    A    
C18   H7    S    
C16   N2    A    
Cu2   O6    S    
C20   O5    A    
N3    H9    S    
C11   H13   S    
Cu1   O3    S    
C19   H3    S    
C2    C3    A    
C5    C10   A    
N3    H10   S    
C13   C14   A    
C11   C13   A    
Cu1   O5    S    
C6    C26   A    
C1    O1    A    
Cu1   N2    S    
C8    H1    S    
C2    H5    S    
C3    N3    S    
N4    H11   S    
C6    C7    A    
C21   O8    A    
C22   C23   T    
C5    C6    A    
C4    H6    S    
Cu2   O8    S    
C16   C17   A    
C1    O2    A    
Cu1   O1    S    
C15   C16   A    
C12   C22   S    
Cu2   O4    S    
C7    C8    A    
C20   O6    A    
C18   C19   A    
C24   C25   T    
Cu2   N1    S    
C15   H2    S    
C2    C26   A    
C13   H14   S    
C9    C10   A    
Cu1   Cu2   S    
C21   C25   S    
C14   C15   A    
C4    C5    A    
C19   N2    A    
Cu2   O2    S    
C1    C7    S    
C18   N1    A    
Cu1   O7    S    
C11   C17   A    
C9    N4    S    
C3    C4    A    
C10   C20   S    
C8    C9    A    
C14   H8    S    
