data_mof_unit_5899.cif
_audit_creation_date              2012-10-26T19:04:21-0400
_audit_creation_method            fapswitch 2.2
_symmetry_space_group_name_H-M    P1
_symmetry_Int_Tables_number       1
_space_group_crystal_system       triclinic
_cell_length_a                    15.003832
_cell_length_b                    15.711658
_cell_length_c                    9.580415
_cell_angle_alpha                 89.528549
_cell_angle_beta                  89.461786
_cell_angle_gamma                 90.068766
_cell_volume                      2258.26193269

loop_
_atom_site_label
_atom_site_type_symbol
_atom_type_description
_atom_site_fract_x
_atom_site_fract_y
_atom_site_fract_z
_atom_type_partial_charge
C1    C     C_R   0.377634 0.885029 0.500986 0.536876
C2    C     C_R   0.736927 0.205131 0.386107 0.240470
C3    C     C_R   0.200733 0.264065 0.379831 0.239722
C4    C     C_R   0.236904 0.705148 0.386086 0.240474
C5    C     C_R   0.670701 0.800390 0.505588 -0.012875
C6    C     C_R   0.674431 0.196686 0.496239 -0.000686
C7    C     C_R   0.170704 0.300392 0.505589 -0.012871
C8    C     C_R   0.174429 0.696689 0.496243 -0.000632
C9    C     C_R   0.663513 0.991121 0.141879 -0.019385
C10   C     C_R   0.163514 0.491135 0.141880 -0.019332
C11   C     C_R   0.743414 0.983946 0.068719 -0.136801
C12   C     C_R   0.384069 0.121757 0.501019 0.534104
C13   C     C_R   0.243417 0.483983 0.068719 -0.136777
C14   C     C_R   0.743688 0.985987 0.924929 -0.181552
C15   C     C_R   0.243690 0.486021 0.924929 -0.181527
C16   C     C_R   0.663980 0.993908 0.853681 -0.091264
C17   C     C_R   0.163981 0.493921 0.853681 -0.091265
C18   C     C_R   0.580540 0.996240 0.924040 0.138990
C19   C     C_R   0.080541 0.496247 0.924040 0.138975
C20   C     C_R   0.580410 0.995556 0.073672 0.143165
C21   C     C_R   0.080410 0.495563 0.073673 0.143206
C22   C     C_R   0.423439 0.004301 0.075063 -0.011981
C23   C     C_R   0.877634 0.385029 0.500986 0.536857
C24   C     C_R   0.923439 0.504295 0.075063 -0.011950
C25   C     C_R   0.615057 0.122318 0.499006 0.554026
C26   C     C_R   0.612226 0.875579 0.501010 0.554411
C27   C     C_R   0.115055 0.622320 0.499007 0.554049
C28   C     C_R   0.112227 0.375580 0.501010 0.554392
C29   C     C_R   0.423488 0.004274 0.927087 -0.013112
C30   C     C_R   0.923487 0.504267 0.927086 -0.013095
C31   C     C_R   0.333616 0.219109 0.761199 -0.097167
C32   C     C_R   0.223604 0.894713 0.695695 -0.096552
C33   C     C_R   0.833610 0.719105 0.761200 -0.097162
C34   C     C_R   0.884068 0.621756 0.501019 0.534099
C35   C     C_R   0.723577 0.394738 0.695632 -0.096554
C36   C     C_R   0.293265 0.240720 0.887424 -0.131067
C37   C     C_R   0.153562 0.895710 0.792003 -0.131338
C38   C     C_R   0.793256 0.740712 0.887425 -0.131063
C39   C     C_R   0.653517 0.395751 0.791907 -0.131323
C40   C     C_R   0.705637 0.768309 0.889174 -0.121363
C41   C     C_R   0.590309 0.331217 0.792174 -0.131352
C42   C     C_R   0.205647 0.268318 0.889176 -0.121365
C43   C     C_R   0.090347 0.831179 0.792255 -0.131352
C44   C     C_R   0.661278 0.781841 0.764306 -0.100309
C45   C     C_R   0.272842 0.209045 0.380887 -0.136565
C46   C     C_R   0.596596 0.265687 0.695599 -0.105248
C47   C     C_R   0.161285 0.281847 0.764309 -0.100307
C48   C     C_R   0.096614 0.765668 0.695643 -0.105231
C49   C     C_R   0.705178 0.769949 0.634285 -0.017858
C50   C     C_R   0.668657 0.261237 0.599498 -0.018041
C51   C     C_R   0.205183 0.269953 0.634286 -0.017855
C52   C     C_R   0.168667 0.761227 0.599523 -0.018052
C53   C     C_R   0.286788 0.225710 0.633304 0.013336
C54   C     C_R   0.233756 0.826761 0.600636 0.013401
C55   C     C_R   0.786783 0.725707 0.633304 0.013333
C56   C     C_R   0.304214 0.764916 0.395191 -0.142742
C57   C     C_R   0.733745 0.326772 0.600609 0.013407
C58   C     C_R   0.317005 0.189596 0.505290 -0.058162
C59   C     C_R   0.304558 0.824281 0.501980 -0.052558
C60   C     C_R   0.817003 0.689594 0.505290 -0.058158
C61   C     C_R   0.804561 0.324279 0.501982 -0.052576
C62   C     C_3   0.585001 0.729302 0.241446 -0.115757
C63   C     C_3   0.702695 0.200548 0.156488 -0.112237
C64   C     C_3   0.085007 0.229301 0.241443 -0.115743
C65   C     C_3   0.202868 0.700662 0.156357 -0.112192
C66   C     C_R   0.772840 0.709044 0.380887 -0.136555
C67   C     C_R   0.804235 0.264897 0.395220 -0.142684
C68   C     C_R   0.700731 0.764064 0.379830 0.239726
Cu1   Cu    Cu3+1 0.499990 0.000000 0.640660 0.888003
Cu2   Cu    Cu3+1 0.999990 0.500000 0.640660 0.887999
Cu3   Cu    Cu3+1 0.500010 0.000000 0.359340 0.938365
Cu4   Cu    Cu3+1 0.000010 0.500000 0.359340 0.938485
H1    H     H_    0.293440 0.180865 0.282893 0.143545
H2    H     H_    0.860809 0.508139 0.872806 0.109540
H3    H     H_    0.402055 0.199704 0.767118 0.134715
H4    H     H_    0.266985 0.949460 0.693832 0.136485
H5    H     H_    0.902050 0.699703 0.767121 0.134722
H6    H     H_    0.766961 0.449482 0.693763 0.136473
H7    H     H_    0.329357 0.233950 0.984232 0.116798
H8    H     H_    0.147033 0.948004 0.864265 0.102979
H9    H     H_    0.829347 0.733942 0.984234 0.116818
H10   H     H_    0.646971 0.448059 0.864136 0.102984
H11   H     H_    0.672561 0.781591 0.986902 0.170817
H12   H     H_    0.356329 0.765166 0.315949 0.135934
H13   H     H_    0.534522 0.333300 0.864594 0.103980
H14   H     H_    0.172573 0.281603 0.986904 0.170814
H15   H     H_    0.034570 0.833253 0.864693 0.103991
H16   H     H_    0.591876 0.799513 0.771881 0.150084
H17   H     H_    0.542164 0.221364 0.693930 0.139307
H18   H     H_    0.091883 0.299519 0.771887 0.150092
H19   H     H_    0.042172 0.721354 0.693961 0.139314
H20   H     H_    0.360695 0.007839 0.131253 0.112267
H21   H     H_    0.860694 0.507827 0.131253 0.112255
H22   H     H_    0.671315 0.996656 0.251310 0.218272
H23   H     H_    0.793439 0.680864 0.282892 0.143552
H24   H     H_    0.171315 0.496660 0.251312 0.218245
H25   H     H_    0.805817 0.980110 0.124291 0.137155
H26   H     H_    0.305821 0.480158 0.124291 0.137122
H27   H     H_    0.537013 0.737918 0.329583 0.123718
H28   H     H_    0.604948 0.661294 0.233578 0.103773
H29   H     H_    0.549504 0.746777 0.144329 0.129897
H30   H     H_    0.747528 0.254802 0.128885 0.108822
H31   H     H_    0.633783 0.223935 0.177341 0.126946
H32   H     H_    0.699981 0.159308 0.063394 0.147397
H33   H     H_    0.037017 0.237914 0.329579 0.123723
H34   H     H_    0.856358 0.265138 0.315992 0.136021
H35   H     H_    0.104957 0.161294 0.233575 0.103783
H36   H     H_    0.049510 0.246776 0.144325 0.129916
H37   H     H_    0.248143 0.754445 0.128360 0.108952
H38   H     H_    0.134255 0.724671 0.177316 0.126570
H39   H     H_    0.199594 0.659342 0.063489 0.147378
H40   H     H_    0.806259 0.982954 0.867916 0.124945
H41   H     H_    0.306262 0.482997 0.867916 0.124927
H42   H     H_    0.672172 0.998491 0.743796 0.197136
H43   H     H_    0.172172 0.498494 0.743794 0.197133
H44   H     H_    0.360810 0.008153 0.872807 0.109532
N1    N     N_R   0.501200 0.000000 0.147910 -0.248801
N2    N     N_R   0.001200 0.500000 0.147910 -0.248770
N3    N     N_R   0.501270 0.000000 0.852040 -0.249056
N4    N     N_R   0.001270 0.500000 0.852040 -0.249058
O1    O     O_R   0.409820 0.909830 0.618810 -0.506034
O2    O     O_R   0.590170 0.909830 0.618760 -0.540316
O3    O     O_R   0.090170 0.590170 0.618760 -0.544053
O4    O     O_R   0.090170 0.409830 0.618760 -0.540326
O5    O     O_R   0.590190 0.090180 0.381190 -0.480947
O6    O     O_R   0.590190 0.909820 0.381190 -0.473059
O7    O     O_R   0.090190 0.590180 0.381190 -0.480753
O8    O     O_R   0.090190 0.409820 0.381190 -0.473084
O9    O     O_3   0.660539 0.782263 0.253960 -0.569719
O10   O     O_3   0.735168 0.152718 0.271035 -0.577154
O11   O     O_3   0.160541 0.282265 0.253961 -0.569733
O12   O     O_R   0.409820 0.090170 0.618810 -0.522844
O13   O     O_3   0.235092 0.652751 0.270991 -0.577114
O14   O     O_R   0.909820 0.409830 0.618810 -0.506023
O15   O     O_R   0.909820 0.590170 0.618810 -0.522857
O16   O     O_R   0.409840 0.909830 0.381240 -0.509362
O17   O     O_R   0.409840 0.090170 0.381240 -0.512338
O18   O     O_R   0.909840 0.409830 0.381240 -0.509380
O19   O     O_R   0.909840 0.590170 0.381240 -0.512316
O20   O     O_R   0.590170 0.090170 0.618760 -0.544012

loop_
_geom_bond_atom_site_label_1
_geom_bond_atom_site_label_2
_ccdc_geom_bond_type
C44   C49   A    
C33   C55   A    
C22   N1    A    
C66   C68   A    
C22   C29   A    
C23   O18   A    
C36   C42   A    
C62   O9    S    
C4    C8    A    
C64   H33   S    
Cu3   O17   S    
C46   H17   S    
C14   H40   S    
C29   N3    A    
Cu4   O8    S    
C3    O11   S    
Cu1   O2    S    
C19   C21   A    
C3    C7    A    
C63   H30   S    
C30   H2    S    
C11   C14   A    
C6    C25   S    
C34   O19   A    
C45   H1    S    
C26   O6    A    
C63   O10   S    
C13   H26   S    
Cu1   Cu3   S    
C25   O5    A    
C65   H39   S    
C17   C19   A    
C27   O7    A    
Cu2   O3    S    
Cu4   O19   S    
Cu2   N4    S    
C48   H19   S    
C41   C46   A    
C15   H41   S    
Cu3   O6    S    
C56   H12   S    
C42   H14   S    
Cu1   O1    S    
C1    O16   A    
C43   C48   A    
C8    C52   A    
C40   C44   A    
C62   H29   S    
C12   C58   S    
Cu1   O20   S    
Cu4   O18   S    
C60   C66   A    
C10   C13   A    
C55   C60   A    
C4    C56   A    
C34   C60   S    
C40   H11   S    
C5    C49   A    
C2    C6    A    
C5    C68   A    
C32   C54   A    
C20   N1    A    
C52   C54   A    
C64   H36   S    
C24   C30   A    
C54   C59   A    
C10   C21   A    
C37   H8    S    
C45   C58   A    
Cu3   N1    S    
Cu4   O7    S    
C25   O20   A    
C39   C41   A    
C2    C67   A    
Cu3   O16   S    
C27   O3    A    
C47   C51   A    
C49   C55   A    
C3    C45   A    
C31   C53   A    
C7    C28   S    
C62   H27   S    
C51   C53   A    
C37   C43   A    
C35   C39   A    
C21   N2    A    
C61   C67   A    
C9    C20   A    
C31   H3    S    
C64   O11   S    
C10   H24   S    
C32   C37   A    
C6    C50   A    
C9    C11   A    
C65   H37   S    
C62   H28   S    
C63   H31   S    
C29   H44   S    
C19   N4    A    
C13   C15   A    
C38   H9    S    
Cu2   O15   S    
C47   H18   S    
C14   C16   A    
C17   H43   S    
C64   H35   S    
C23   C61   S    
C15   C17   A    
C12   O12   A    
C23   O14   A    
C12   O17   A    
C50   C57   A    
C39   H10   S    
C63   H32   S    
C36   H7    S    
C16   H42   S    
C32   H4    S    
C53   C58   A    
C28   O4    A    
C67   H34   S    
C57   C61   A    
C41   H13   S    
C46   C50   A    
C35   H6    S    
C24   N2    A    
C33   C38   A    
C56   C59   A    
C11   H25   S    
C35   C57   A    
C43   H15   S    
C1    C59   S    
C7    C51   A    
C24   H21   S    
C38   C40   A    
C33   H5    S    
C30   N4    A    
C34   O15   A    
Cu1   O12   S    
C9    H22   S    
C2    O10   S    
Cu1   N3    S    
C66   H23   S    
C18   C20   A    
C42   C47   A    
C68   O9    S    
C1    O1    A    
C65   H38   S    
C5    C26   S    
Cu2   O4    S    
C48   C52   A    
C16   C18   A    
Cu4   N2    S    
Cu2   O14   S    
C8    C27   S    
C22   H20   S    
C31   C36   A    
Cu3   O5    S    
Cu2   Cu4   S    
C26   O2    A    
C44   H16   S    
C18   N3    A    
C65   O13   S    
C28   O8    A    
C4    O13   S    
