data_mof_unit_52170.cif
_audit_creation_date              2012-12-11T15:55:37-0500
_audit_creation_method            fapswitch 2.2
_symmetry_space_group_name_H-M    P1
_symmetry_Int_Tables_number       1
_space_group_crystal_system       triclinic
_cell_length_a                    6.952026
_cell_length_b                    14.52911
_cell_length_c                    16.103601
_cell_angle_alpha                 90.017587
_cell_angle_beta                  90.097934
_cell_angle_gamma                 89.928957
_cell_volume                      1626.56870594

loop_
_atom_site_label
_atom_site_type_symbol
_atom_type_description
_atom_site_fract_x
_atom_site_fract_y
_atom_site_fract_z
_atom_type_partial_charge
O1    O     O_R   0.505680 0.583900 0.413320 -0.536398
O2    O     O_R   0.176010 0.594950 0.586080 -0.544721
O3    O     O_R   0.005680 0.416100 0.586680 -0.534585
C1    C     C_R   0.345074 0.617286 0.614876 0.684865
O4    O     O_R   0.175960 0.594930 0.413930 -0.550334
O5    O     O_R   0.005640 0.416080 0.413300 -0.539421
C2    C     C_R   0.344339 0.619375 0.386679 0.679531
O6    O     O_R   0.505720 0.583920 0.586700 -0.540050
O7    O     O_3   0.339190 0.441320 0.500000 -0.366828
V1    V     V_3+5 0.064350 0.510890 0.500000 1.392798
O8    O     O_R   0.675920 0.405050 0.413920 -0.542882
C3    C     C_R   0.844935 0.382770 0.385070 0.687863
O9    O     O_R   0.675960 0.405070 0.586070 -0.545267
C4    C     C_R   0.844994 0.382826 0.614651 0.701499
V2    V     V_3+5 0.564340 0.489110 0.500000 1.401444
O10   O     O_3   0.839370 0.558680 0.500000 -0.372572
C5    C     C_R   0.016963 0.310899 0.735969 0.046283
C6    C     C_R   0.854136 0.316831 0.684855 -0.088375
C7    C     C_R   0.700212 0.257171 0.702252 -0.159092
H1    H     H_    0.575891 0.256366 0.662107 0.155223
C8    C     C_R   0.711515 0.193261 0.767842 -0.143640
H2    H     H_    0.596070 0.145377 0.777365 0.179443
C9    C     C_R   0.877125 0.185768 0.817223 -0.077105
C10   C     C_R   0.029930 0.244595 0.798768 0.041965
C11   C     C_3   0.228808 0.218632 0.773633 0.106203
C12   C     C_3   0.218521 0.294403 0.709048 -0.410312
H3    H     H_    0.334104 0.231953 0.824130 0.096648
H4    H     H_    0.228137 0.269890 0.643743 0.207249
H5    H     H_    0.312333 0.354169 0.723773 0.137170
C13   C     C_R   0.046501 0.224276 0.217940 -0.158370
H6    H     H_    0.186929 0.205652 0.194251 0.115825
C14   C     C_R   0.035313 0.287859 0.283157 -0.147290
H7    H     H_    0.167719 0.316388 0.307500 0.119824
C15   C     C_R   0.856131 0.314306 0.316290 -0.045591
C16   C     C_R   0.688470 0.275294 0.282352 -0.153870
H8    H     H_    0.548044 0.293903 0.306052 0.118023
C17   C     C_R   0.699658 0.211708 0.217137 -0.149757
H9    H     H_    0.567256 0.183163 0.192806 0.118412
C18   C     C_R   0.878828 0.185354 0.183931 -0.044273
C19   C     C_R   0.188612 0.725575 0.716782 -0.152160
H10   H     H_    0.048274 0.707523 0.692531 0.117488
C20   C     C_R   0.199701 0.789179 0.781982 -0.117389
H11   H     H_    0.067355 0.818316 0.805753 0.123629
C21   C     C_R   0.378739 0.814792 0.815885 -0.040103
C22   C     C_R   0.546409 0.775272 0.782488 -0.146738
H12   H     H_    0.686757 0.793367 0.806700 0.117276
C23   C     C_R   0.535325 0.711684 0.717280 -0.146055
H13   H     H_    0.667694 0.682620 0.693459 0.118614
C24   C     C_R   0.356255 0.685844 0.683553 -0.049445
C25   C     C_R   0.202794 0.756612 0.305993 0.126031
C26   C     C_R   0.218081 0.817261 0.237681 -0.135947
H14   H     H_    0.105381 0.866486 0.224890 0.132030
C27   C     C_R   0.379521 0.817156 0.185486 -0.085536
C28   C     C_R   0.528967 0.755025 0.201711 -0.171369
H15   H     H_    0.655778 0.753691 0.162745 0.126021
C29   C     C_R   0.514945 0.692344 0.267252 -0.165590
H16   H     H_    0.631505 0.643828 0.276294 0.124039
C30   C     C_R   0.352565 0.690651 0.319530 -0.099310
O11   O     O_R   0.229200 0.915950 0.913350 -0.532553
O12   O     O_R   0.559090 0.905000 0.086080 -0.544231
O13   O     O_R   0.729280 0.083880 0.086680 -0.542694
C31   C     C_R   0.390450 0.883271 0.115206 0.683214
O14   O     O_R   0.558920 0.904980 0.913920 -0.544762
O15   O     O_R   0.729110 0.083860 0.913300 -0.542949
C32   C     C_R   0.389881 0.882899 0.884923 0.725086
O16   O     O_R   0.229360 0.915970 0.086730 -0.544516
O17   O     O_3   0.395680 0.058580 0.000030 -0.369117
V3    V     V_3+5 0.670570 0.989070 0.999990 1.414674
O18   O     O_R   0.058820 0.094950 0.913870 -0.524462
C33   C     C_R   0.889760 0.116409 0.884693 0.734420
O19   O     O_R   0.058990 0.094970 0.086020 -0.547817
C34   C     C_R   0.889997 0.117092 0.114991 0.671948
V4    V     V_3+5 0.170560 0.010930 0.999930 1.434235
O20   O     O_3   0.895590 0.941310 0.999960 -0.373822
C35   C     C_3   0.030867 0.762899 0.364774 -0.328493
C36   C     C_3   0.905426 0.849223 0.357208 -0.771980
H17   H     H_    0.994454 0.912280 0.363582 0.233647
H18   H     H_    0.827273 0.849969 0.297061 0.225675
H19   H     H_    0.796321 0.849225 0.407512 0.231895
H20   H     H_    0.936713 0.702170 0.354864 0.193367
H21   H     H_    0.085140 0.761683 0.429746 0.186593
Br1   Br    Br    0.238121 0.096338 0.722531 -0.582383

loop_
_geom_bond_atom_site_label_1
_geom_bond_atom_site_label_2
_ccdc_geom_bond_type
O14   C32   A    
V4    O20   S    
C4    C6    S    
C7    H1    S    
C36   H19   S    
C1    O6    A    
C23   C24   A    
C22   H12   S    
C5    C12   S    
O15   V3    S    
C7    C8    A    
C36   H18   S    
C6    C7    A    
O5    C3    A    
C13   H6    S    
V3    O20   S    
C19   C24   A    
C29   H16   S    
O12   C31   A    
C15   C16   A    
O14   V3    S    
O8    V2    S    
C16   H8    S    
C18   C34   S    
O18   V4    S    
O17   V4    S    
O15   C33   A    
C35   H20   S    
O11   V4    S    
C2    C30   S    
C19   C20   A    
O9    C4    A    
C9    C33   S    
C21   C32   S    
C20   C21   A    
C25   C26   A    
C22   C23   A    
C28   C29   A    
C5    C10   A    
C31   O16   A    
C26   H14   S    
C25   C30   A    
C10   C11   S    
O19   V4    S    
C35   H21   S    
C11   C12   S    
C27   C28   A    
O16   V4    S    
O17   V3    S    
C26   C27   A    
C14   C15   A    
O2    C1    A    
C35   C36   S    
C17   H9    S    
C27   C31   S    
C23   H13   S    
C9    C10   A    
C5    C6    A    
C36   H17   S    
O3    C4    A    
O1    V2    S    
O13   C34   A    
C19   H10   S    
O6    V2    S    
O9    V2    S    
C11   Br1   S    
C20   H11   S    
C3    C15   S    
O2    V1    S    
C21   C22   A    
O4    C2    A    
O7    V1    S    
C28   H15   S    
C16   C17   A    
O1    C2    A    
O5    V1    S    
O8    C3    A    
C11   H3    S    
C12   H4    S    
C1    C24   S    
C14   H7    S    
C8    C9    A    
O7    V2    S    
O4    V1    S    
C17   C18   A    
O3    V1    S    
V1    O10   S    
C25   C35   S    
O11   C32   A    
C13   C14   A    
O13   V3    S    
C29   C30   A    
C13   C18   A    
O18   C33   A    
O19   C34   A    
O12   V3    S    
C12   H5    S    
C8    H2    S    
V2    O10   S    
