data_mof_unit_32049.cif
_audit_creation_date              2012-12-10T20:40:01-0500
_audit_creation_method            fapswitch 2.2
_symmetry_space_group_name_H-M    P1
_symmetry_Int_Tables_number       1
_space_group_crystal_system       triclinic
_cell_length_a                    23.42829
_cell_length_b                    10.793469
_cell_length_c                    9.847616
_cell_angle_alpha                 89.020068
_cell_angle_beta                  90.503065
_cell_angle_gamma                 90.74366
_cell_volume                      2489.52636053

loop_
_atom_site_label
_atom_site_type_symbol
_atom_type_description
_atom_site_fract_x
_atom_site_fract_y
_atom_site_fract_z
_atom_type_partial_charge
C1    C     C_R   0.501845 0.260058 0.501275 0.899135
C2    C     C_R   0.966881 0.260652 0.544388 0.114123
C3    C     C_R   0.027145 0.261038 0.564430 0.149507
C4    C     C_R   0.058731 0.370482 0.531811 -0.042659
C5    C     C_R   0.030709 0.485281 0.525200 -0.102164
C6    C     C_R   0.062719 0.598012 0.517862 -0.045993
C7    C     C_R   0.033955 0.712831 0.523539 0.144736
C8    C     C_R   0.975133 0.711826 0.550148 0.180425
C9    C     C_R   0.117859 0.370155 0.507896 0.501150
C10   C     C_R   0.122618 0.590642 0.512872 0.516378
C11   C     C_R   0.237122 0.520840 0.382036 -0.097354
C12   C     C_R   0.389357 0.498347 0.499435 0.870602
C13   C     C_R   0.296373 0.528247 0.382319 -0.217503
C14   C     C_R   0.327294 0.490333 0.498030 -0.039087
C15   C     C_R   0.298530 0.442374 0.611942 -0.227818
C16   C     C_R   0.239418 0.434831 0.611423 -0.105491
C17   C     C_R   0.208708 0.475054 0.497063 0.326224
C18   C     C_R   0.760803 0.456775 0.386664 -0.098746
C19   C     C_R   0.701643 0.457712 0.390748 -0.271921
C20   C     C_R   0.673350 0.510068 0.500863 -0.064331
C21   C     C_R   0.705684 0.566675 0.606625 0.143742
C22   C     C_R   0.765104 0.561837 0.601792 -0.154178
C23   C     C_R   0.502564 0.740241 0.498572 0.879063
C24   C     C_R   0.792490 0.507146 0.493253 0.293079
C25   C     C_R   0.504174 0.060502 0.623411 0.094663
C26   C     C_R   0.511286 0.129485 0.504310 -0.163829
C27   C     C_R   0.530625 0.070757 0.387939 -0.239874
C28   C     C_R   0.532356 0.941471 0.383734 0.154298
C29   C     C_R   0.511159 0.872357 0.497477 -0.147049
C30   C     C_R   0.501350 0.934433 0.617816 0.031834
C31   C     C_3   0.455684 0.924123 0.723702 -0.025899
C32   C     C_3   0.460418 0.065471 0.732983 -0.022645
C33   C     C_R   0.465749 0.418992 0.072242 0.227493
C34   C     C_R   0.610800 0.503763 0.500620 0.867977
C35   C     C_R   0.537652 0.571220 0.071398 -0.135841
C36   C     C_R   0.536965 0.572889 0.927431 -0.148263
C37   C     C_R   0.465617 0.419446 0.929695 0.207565
C38   C     C_3   0.402141 0.412147 0.923202 -0.521240
C39   C     C_3   0.402280 0.411438 0.077227 -0.497194
C40   C     C_R   0.884399 0.606327 0.498773 0.506492
C41   C     C_R   0.877893 0.386080 0.509147 0.506850
C42   C     C_R   0.938173 0.375839 0.523280 -0.068061
C43   C     C_R   0.970664 0.487760 0.524049 -0.093687
C44   C     C_R   0.943159 0.603146 0.523909 -0.048413
H1    H     H_    0.677916 0.415148 0.308514 0.169783
H2    H     H_    0.790819 0.600874 0.682847 0.126311
H3    H     H_    0.542458 0.124926 0.298530 0.174349
H4    H     H_    0.470019 0.872176 0.816176 0.185334
H5    H     H_    0.421642 0.117444 0.701212 0.172423
H6    H     H_    0.567638 0.629667 0.125115 0.152253
H7    H     H_    0.565107 0.635562 0.872826 0.149776
H8    H     H_    0.382983 0.497160 0.877861 0.222335
H9    H     H_    0.386701 0.323312 0.879758 0.200023
H10   H     H_    0.383150 0.495857 0.119803 0.214021
H11   H     H_    0.386886 0.322336 0.122809 0.205326
H12   H     H_    0.213186 0.552884 0.293955 0.135096
H13   H     H_    0.317841 0.565936 0.293643 0.148901
H14   H     H_    0.321612 0.410264 0.700937 0.151534
H15   H     H_    0.217315 0.400201 0.700725 0.127987
H16   H     H_    0.782069 0.414794 0.302119 0.148749
N1    N     N_R   0.853328 0.499428 0.495563 -0.344513
N2    N     N_R   0.148016 0.478595 0.502643 -0.356563
N3    N     N_R   0.499610 0.499140 0.142800 -0.108886
N4    N     N_R   0.499610 0.499180 0.857150 -0.105005
O1    O     O_R   0.500010 0.316790 0.614690 -0.616357
O2    O     O_2   0.843172 0.285761 0.510936 -0.579473
O3    O     O_2   0.145260 0.263358 0.486241 -0.569398
O4    O     O_2   0.155941 0.693031 0.522136 -0.563103
O5    O     O_R   0.500000 0.316760 0.385350 -0.620067
O6    O     O_R   0.416160 0.499980 0.614700 -0.623377
O7    O     O_R   0.416150 0.499940 0.385360 -0.619452
O8    O     O_R   0.500000 0.683240 0.614650 -0.618981
O9    O     O_R   0.499990 0.683210 0.385310 -0.616552
O10   O     O_R   0.583850 0.500060 0.614640 -0.616386
O11   O     O_R   0.583840 0.500020 0.385300 -0.630181
O12   O     O_2   0.858195 0.714953 0.473562 -0.575411
Zn1   Zn    Zn3+2 0.500000 0.500020 0.653130 0.939949
Zn2   Zn    Zn3+2 0.500000 0.499980 0.346870 0.939248
C45   C     C_3   0.934689 0.137462 0.543381 -0.343495
C46   C     C_3   0.905536 0.110401 0.680022 -0.765444
H17   H     H_    0.885040 0.193969 0.720568 0.280754
H18   H     H_    0.872115 0.037642 0.667491 0.258895
H19   H     H_    0.936984 0.078116 0.757116 0.225104
H20   H     H_    0.904128 0.133250 0.457174 0.249481
H21   H     H_    0.963121 0.060925 0.517102 0.146958
C47   C     C_3   0.679693 0.635037 0.723789 -0.411459
C48   C     C_3   0.651993 0.755806 0.676147 -0.824702
H22   H     H_    0.617962 0.738590 0.599851 0.246579
H23   H     H_    0.632857 0.802474 0.764128 0.235553
H24   H     H_    0.684647 0.818841 0.630316 0.265906
H25   H     H_    0.649298 0.574224 0.779485 0.220731
H26   H     H_    0.712911 0.659839 0.800346 0.196433
C49   C     C_3   0.555547 0.885190 0.256214 -0.379624
C50   C     C_3   0.509367 0.876009 0.146180 -0.844370
H27   H     H_    0.475125 0.809548 0.176557 0.284049
H28   H     H_    0.489979 0.967995 0.127350 0.253978
H29   H     H_    0.528517 0.844503 0.050239 0.228482
H30   H     H_    0.590925 0.944735 0.216368 0.192511
H31   H     H_    0.575372 0.794258 0.277556 0.209211
C51   C     C_3   0.397532 0.879855 0.669171 -0.883597
H32   H     H_    0.397797 0.778258 0.654020 0.261091
H33   H     H_    0.363971 0.900378 0.744120 0.249626
H34   H     H_    0.386761 0.926796 0.571060 0.245682
C52   C     C_3   0.486702 0.109001 0.866960 -0.924468
H35   H     H_    0.522457 0.048756 0.900386 0.244067
H36   H     H_    0.504175 0.204057 0.853933 0.268156
H37   H     H_    0.453464 0.108742 0.946574 0.241108
C53   C     C_3   0.056587 0.151861 0.637080 -0.369445
C54   C     C_3   0.086575 0.191121 0.768618 -0.813136
H38   H     H_    0.123085 0.254926 0.748836 0.266023
H39   H     H_    0.055843 0.237289 0.835884 0.249606
H40   H     H_    0.103272 0.107897 0.822812 0.246888
H41   H     H_    0.026469 0.078743 0.670169 0.189632
H42   H     H_    0.086427 0.104767 0.569113 0.255229
C55   C     C_3   0.063462 0.835670 0.491999 -0.824196
H43   H     H_    0.090079 0.828191 0.399868 0.273258
H44   H     H_    0.032503 0.909326 0.465992 0.193567
H45   H     H_    0.089748 0.865560 0.580174 0.268691
C56   C     C_3   0.949458 0.817628 0.628630 -0.379745
C57   C     C_3   0.922444 0.772669 0.762018 -0.842743
H46   H     H_    0.909526 0.853484 0.822247 0.246416
H47   H     H_    0.883838 0.714814 0.743507 0.264064
H48   H     H_    0.953705 0.718111 0.822937 0.256141
H49   H     H_    0.982903 0.885072 0.659157 0.198780
H50   H     H_    0.918176 0.868525 0.565138 0.257983

loop_
_geom_bond_atom_site_label_1
_geom_bond_atom_site_label_2
_ccdc_geom_bond_type
C48   H22   S    
C49   C50   S    
C41   C42   A    
C19   C20   A    
C41   N1    A    
C52   H36   S    
C7    C8    A    
C56   H49   S    
C26   C27   A    
C33   C39   S    
C18   C24   A    
C23   C29   S    
C28   C29   A    
C37   C38   S    
C47   H25   S    
C54   H39   S    
C30   C31   S    
C39   H10   S    
C38   H8    S    
C53   H42   S    
C15   C16   A    
C53   C54   S    
C18   C19   A    
N4    Zn1   S    
C7    C55   S    
C2    C45   S    
O8    Zn1   S    
C39   H11   S    
C35   C36   A    
C16   C17   A    
C55   H44   S    
O10   Zn1   S    
C1    O1    A    
O9    Zn2   S    
C32   C52   S    
C13   C14   A    
C49   H31   S    
C57   H48   S    
C34   O11   A    
C20   C34   S    
C25   C32   S    
C5    C43   A    
C21   C22   A    
O6    Zn1   S    
C45   H20   S    
O5    Zn2   S    
C10   N2    A    
C23   O9    A    
C46   H19   S    
C52   H35   S    
C57   H47   S    
C38   C39   S    
O1    Zn1   S    
C9    N2    A    
C46   H18   S    
C54   H40   S    
C47   C48   S    
C46   H17   S    
C50   H29   S    
C25   C26   A    
C51   H34   S    
C33   C37   A    
C40   N1    A    
C40   O12   S    
C28   C49   S    
C16   H15   S    
C53   H41   S    
C43   C44   A    
C9    O3    S    
C29   C30   A    
C17   N2    S    
C31   C32   S    
C33   N3    A    
C55   H45   S    
C35   H6    S    
C51   H33   S    
C31   C51   S    
C50   H28   S    
C6    C7    A    
C36   H7    S    
C34   O10   A    
C24   N1    S    
C56   H50   S    
C18   H16   S    
C22   H2    S    
C12   O7    A    
C12   C14   S    
C31   H4    S    
C48   H23   S    
C1    C26   S    
C15   H14   S    
C22   C24   A    
C42   C43   A    
C3    C4    A    
C45   H21   S    
C37   N4    A    
C57   H46   S    
C27   H3    S    
C25   C30   A    
C12   O6    A    
C21   C47   S    
C11   C17   A    
C23   O8    A    
C8    C44   A    
C4    C5    A    
C6    C10   A    
C56   C57   S    
C19   H1    S    
C41   O2    S    
C10   O4    S    
C3    C53   S    
C2    C3    A    
C47   H26   S    
C54   H38   S    
C11   C13   A    
C5    C6    A    
C38   H9    S    
C2    C42   A    
C51   H32   S    
O7    Zn2   S    
C50   H27   S    
O11   Zn2   S    
C1    O5    A    
C32   H5    S    
C45   C46   S    
C40   C44   A    
C13   H13   S    
C20   C21   A    
C48   H24   S    
C27   C28   A    
C14   C15   A    
C35   N3    A    
C4    C9    A    
C36   N4    A    
C49   H30   S    
C52   H37   S    
C11   H12   S    
C55   H43   S    
C8    C56   S    
N3    Zn2   S    
