data_mof_unit_17038.cif
_audit_creation_date              2013-03-05T16:07:36-0500
_audit_creation_method            fapswitch 2.2
_symmetry_space_group_name_H-M    P1
_symmetry_Int_Tables_number       1
_space_group_crystal_system       triclinic
_cell_length_a                    21.726147
_cell_length_b                    7.0756
_cell_length_c                    14.973832
_cell_angle_alpha                 89.841006
_cell_angle_beta                  106.599514
_cell_angle_gamma                 90.055964
_cell_volume                      2205.92163324

loop_
_atom_site_label
_atom_site_type_symbol
_atom_site_description
_atom_site_fract_x
_atom_site_fract_y
_atom_site_fract_z
_atom_type_partial_charge
O1    O     O_R   0.585850 0.505770 0.002130 -0.575477
O2    O     O_R   0.414150 0.005770 0.997870 -0.581819
O3    O     O_R   0.467530 0.173560 0.861970 -0.583643
O4    O     O_R   0.532470 0.673560 0.138030 -0.576543
C1    C     C_R   0.457009 0.345346 0.824954 1.023336
C2    C     C_R   0.543139 0.844283 0.175019 1.025389
O5    O     O_R   0.588690 0.175900 0.993250 -0.562599
O6    O     O_R   0.411310 0.675900 0.006750 -0.555230
O7    O     O_R   0.536170 0.007950 0.130090 -0.581547
O8    O     O_R   0.463830 0.507950 0.869910 -0.572960
C3    C     C_R   0.614492 0.345599 0.994919 0.972921
C4    C     C_R   0.385462 0.845052 0.004966 0.971858
O9    O     O_3   0.482630 0.339970 0.044740 -0.274513
O10   O     O_3   0.517370 0.839970 0.955260 -0.276016
V1    V     V_3+5 0.503220 0.064200 0.991700 1.299541
V2    V     V_3+5 0.496780 0.564200 0.008300 1.306819
C5    C     C_R   0.279132 0.012383 0.969659 0.142350
C6    C     C_R   0.720882 0.514607 0.030329 0.157609
C7    C     C_R   0.317122 0.855116 0.005990 -0.274406
C8    C     C_R   0.682699 0.357558 0.993395 -0.281699
C9    C     C_R   0.286807 0.704336 0.038315 -0.049137
C10   C     C_R   0.712845 0.207249 0.960829 -0.046701
H1    H     H_    0.314359 0.581637 0.069287 0.147396
H2    H     H_    0.685065 0.085554 0.929270 0.151254
C11   C     C_R   0.221480 0.715471 0.036268 -0.085210
C12   C     C_R   0.778287 0.217130 0.963614 -0.081930
H3    H     H_    0.201111 0.601336 0.066798 0.127368
H4    H     H_    0.798548 0.103068 0.933193 0.122299
C13   C     C_R   0.183773 0.875561 0.999353 -0.219998
C14   C     C_R   0.816245 0.376061 0.000962 -0.210607
C15   C     C_R   0.213573 0.019573 0.962947 0.007605
C16   C     C_R   0.786536 0.520143 0.037233 -0.011811
C17   C     C_3   0.215821 0.224507 0.985283 -0.000644
C18   C     C_3   0.785614 0.725638 0.016390 -0.002723
C19   C     C_3   0.288205 0.212752 0.001811 0.530819
C20   C     C_3   0.713100 0.716848 0.998501 0.548630
H5    H     H_    0.201133 0.257879 0.048838 0.023857
H6    H     H_    0.801167 0.761352 0.953740 0.027829
H7    H     H_    0.316261 0.225349 0.076368 -0.032048
H8    H     H_    0.685885 0.730941 0.923622 -0.048215
C21   C     C_R   0.927080 0.882870 0.725004 -0.188182
C22   C     C_R   0.072888 0.384290 0.275097 -0.189889
C23   C     C_R   0.571882 0.850250 0.276919 -0.302909
C24   C     C_R   0.428343 0.356854 0.723046 -0.302529
C25   C     C_R   0.937779 0.811768 0.572979 0.847476
C26   C     C_R   0.062353 0.427207 0.429543 0.849695
C27   C     C_R   0.965796 0.846636 0.667188 -0.293015
C28   C     C_R   0.034290 0.409542 0.334124 -0.291364
C29   C     C_R   0.860460 0.895652 0.688145 -0.240537
C30   C     C_R   0.139403 0.365659 0.311484 -0.241015
C31   C     C_R   0.830642 0.862717 0.592440 0.101886
C32   C     C_R   0.169289 0.382661 0.408263 0.101932
C33   C     C_R   0.870546 0.809605 0.536389 -0.122399
C34   C     C_R   0.129564 0.424528 0.466224 -0.122542
C35   C     C_R   0.762633 0.873754 0.551357 0.045067
C36   C     C_R   0.237255 0.367275 0.448828 0.046675
C37   C     C_R   0.735334 0.819442 0.456618 0.086463
C38   C     C_R   0.264771 0.407435 0.545310 0.086771
C39   C     C_R   0.776671 0.736371 0.410186 -0.094543
C40   C     C_R   0.223640 0.479635 0.594975 -0.095649
C41   C     C_R   0.842843 0.743062 0.446562 -0.082827
C42   C     C_R   0.157465 0.475884 0.558508 -0.084266
C43   C     C_R   0.721299 0.938584 0.601751 -0.389013
C44   C     C_R   0.278327 0.311594 0.396209 -0.390898
C45   C     C_R   0.655188 0.937915 0.563808 0.857560
C46   C     C_R   0.344476 0.309147 0.433988 0.860571
C47   C     C_R   0.626856 0.883291 0.470715 -0.264242
C48   C     C_R   0.373059 0.352223 0.528578 -0.261466
C49   C     C_R   0.667523 0.842627 0.413268 -0.133989
C50   C     C_R   0.332608 0.381710 0.587452 -0.135971
C51   C     C_R   0.558916 0.878490 0.432167 0.515158
C52   C     C_R   0.441029 0.355424 0.566976 0.515924
C53   C     C_R   0.532560 0.865356 0.335385 -0.272467
C54   C     C_R   0.467560 0.353652 0.664036 -0.275196
C55   C     C_R   0.638679 0.835427 0.314752 0.319054
C56   C     C_R   0.361588 0.374764 0.685898 0.318181
H9    H     H_    0.872332 0.686023 0.405624 0.211139
H10   H     H_    0.128164 0.524184 0.601635 0.210785
H11   H     H_    0.480891 0.865451 0.305189 0.178365
H12   H     H_    0.519232 0.351232 0.694075 0.180139
H13   H     H_    0.017549 0.839753 0.695647 0.172189
H14   H     H_    0.982605 0.420650 0.305935 0.172010
H15   H     H_    0.833333 0.921483 0.736974 0.112947
H16   H     H_    0.166522 0.349216 0.261883 0.114449
H17   H     H_    0.759402 0.657184 0.347008 0.195531
H18   H     H_    0.241055 0.548655 0.661026 0.194414
H19   H     H_    0.738688 0.992920 0.671579 0.162298
H20   H     H_    0.260634 0.266545 0.324763 0.161703
O11   O     O_R   0.036080 0.231270 0.130120 -0.593256
O12   O     O_R   0.963920 0.731270 0.869880 -0.595098
O13   O     O_R   0.911300 0.558970 0.006750 -0.596135
O14   O     O_R   0.088700 0.058970 0.993250 -0.593735
C57   C     C_R   0.884646 0.389697 0.000759 0.951627
C58   C     C_R   0.115386 0.889698 0.999433 0.952810
O15   O     O_R   0.032450 0.561140 0.138040 -0.595871
O16   O     O_R   0.967550 0.061140 0.861960 -0.594222
O17   O     O_R   0.085870 0.728910 0.002130 -0.569929
O18   O     O_R   0.914130 0.228910 0.997870 -0.571030
C59   C     C_R   0.044692 0.392169 0.174586 0.983555
C60   C     C_R   0.955314 0.892675 0.825411 0.981971
O19   O     O_3   0.017320 0.394650 0.955270 -0.248177
O20   O     O_3   0.982680 0.894650 0.044730 -0.250436
V3    V     V_3+5 0.996780 0.670490 0.008300 1.240825
V4    V     V_3+5 0.003220 0.170490 0.991700 1.243860
F1    F     F_    0.619925 0.008438 0.617594 -0.650339
F2    F     F_    0.379491 0.246046 0.378228 -0.649721
F3    F     F_    0.976330 0.776810 0.517886 -0.650584
F4    F     F_    0.023910 0.450699 0.485867 -0.650377
N1    N     N_R   0.516053 0.876265 0.489969 0.283131
O21   O     O_R   0.458079 0.942663 0.458023 -0.337041
O22   O     O_R   0.529498 0.772980 0.565138 -0.330055
N2    N     N_R   0.483656 0.371152 0.509116 0.282493
O23   O     O_R   0.542224 0.308353 0.538952 -0.333912
O24   O     O_R   0.468953 0.481469 0.436402 -0.333217
N3    N     N_R   0.181678 0.335088 0.903029 0.293252
O25   O     O_R   0.191422 0.305556 0.822404 -0.275116
O26   O     O_R   0.133579 0.440634 0.906576 -0.372432
N4    N     N_R   0.819399 0.831848 0.100090 0.299577
O27   O     O_R   0.810159 0.793740 0.180414 -0.286523
O28   O     O_R   0.866280 0.943815 0.097573 -0.365205
F5    F     F_    0.311693 0.324047 0.943782 -0.586912
F6    F     F_    0.690131 0.833387 0.055357 -0.589292
N5    N     N_R   0.676171 0.829321 0.250691 0.232549
O29   O     O_R   0.709020 0.976607 0.239214 -0.300997
O30   O     O_R   0.674543 0.678721 0.200415 -0.354548
N6    N     N_R   0.324054 0.363896 0.749710 0.231614
O31   O     O_R   0.324327 0.504986 0.805408 -0.328002
O32   O     O_R   0.295043 0.206920 0.758327 -0.319980

loop_
_geom_bond_atom_site_label_1
_geom_bond_atom_site_label_2
_geom_bond_distance
_ccdc_geom_bond_type
C23   C53   1.391315 A    
C46   C48   1.408594 A    
C43   C45   1.385511 A    
C18   N4    1.467258 S    
N6    O31   1.301530 A    
C56   N6    1.424275 S    
C19   H7    1.112426 S    
O1    C3    1.312904 A    
O2    C4    1.314801 A    
C2    O7    1.324544 A    
N2    O24   1.301481 A    
C30   H16   1.078408 S    
N5    O29   1.300989 A    
O5    C3    1.321909 A    
O11   C59   1.306533 A    
C55   N5    1.425547 S    
C7    C9    1.408610 A    
C14   C57   1.489998 S    
N1    O22   1.301652 A    
C13   C58   1.489596 S    
O20   V4    2.197978 S    
O15   C59   1.308977 A    
N5    O30   1.301016 A    
C38   C40   1.412562 A    
N3    O25   1.301325 A    
O16   C60   1.308017 A    
C40   C42   1.384701 A    
O12   C60   1.306772 A    
C24   C56   1.402837 A    
N4    O27   1.302185 A    
C9    C11   1.413132 A    
C17   C19   1.522840 S    
C33   C41   1.390509 A    
C21   C29   1.396895 A    
O15   V3    2.026312 S    
C29   C31   1.413792 A    
C35   C43   1.405760 A    
C30   C32   1.413975 A    
C36   C44   1.405840 A    
C36   C38   1.426099 A    
C6    C8    1.402967 A    
C48   C52   1.423633 A    
O5    V1    2.011466 S    
C25   C33   1.405995 A    
O6    V2    2.012840 S    
C54   H12   1.083684 S    
C11   C13   1.413985 A    
C46   F2    1.356770 S    
C45   F1    1.356510 S    
N2    O23   1.300539 A    
C32   C34   1.419779 A    
C25   C27   1.390114 A    
C53   H11   1.083775 S    
C26   C28   1.389924 A    
C3    C8    1.490874 S    
C17   N3    1.467384 S    
C39   C41   1.385066 A    
C15   C17   1.486624 S    
C20   H8    1.112392 S    
C52   C54   1.402117 A    
C41   H9    1.084165 S    
C51   C53   1.401142 A    
C40   H18   1.071607 S    
C38   C50   1.439441 A    
C34   C42   1.390234 A    
C31   C35   1.431209 A    
C45   C47   1.408426 A    
C17   H5    1.112725 S    
C26   F4    1.356495 S    
C31   C33   1.419654 A    
C44   C46   1.386093 A    
O4    V2    2.029796 S    
C20   F6    1.378830 S    
C39   H17   1.072094 S    
O13   C57   1.321912 A    
C19   F5    1.372705 S    
O6    C4    1.319505 A    
C26   C34   1.405723 A    
O14   C58   1.322603 A    
C21   C27   1.393009 A    
C21   C60   1.454327 S    
O1    V2    2.007035 S    
C22   C28   1.393209 A    
C24   C54   1.391954 A    
O2    V1    2.006151 S    
O17   V3    2.006561 S    
C22   C30   1.397386 A    
O4    C2    1.322682 A    
C1    C24   1.476300 S    
C8    C10   1.408753 A    
C12   C14   1.412645 A    
O19   V4    1.731111 S    
C2    C23   1.475067 S    
C9    H1    1.080409 S    
O11   V4    2.037035 S    
C50   C56   1.428711 A    
C5    C15   1.399907 A    
C10   H2    1.080416 S    
C6    C16   1.400908 A    
O3    V1    2.026259 S    
C23   C55   1.402952 A    
O16   V4    2.029849 S    
N3    O26   1.298481 A    
N6    O32   1.300725 A    
C43   H19   1.077061 S    
C18   H6    1.112537 S    
C42   H10   1.084250 S    
O13   V3    2.011167 S    
O3    C1    1.327137 A    
C11   H3    1.081598 S    
C12   H4    1.081622 S    
C58   O17   1.311590 A    
C37   C49   1.439540 A    
C52   N2    1.441661 S    
C29   H15   1.078184 S    
C35   C37   1.426081 A    
O7    V1    2.028153 S    
C1    O8    1.321277 A    
C13   C15   1.397115 A    
O8    V2    2.030136 S    
C22   C59   1.454758 S    
C14   C16   1.398408 A    
O18   V4    2.007445 S    
C51   N1    1.441195 S    
C4    C7    1.490990 S    
C5    C7    1.399046 A    
C18   C20   1.521993 S    
C28   H14   1.083734 S    
C49   C55   1.429540 A    
C47   C51   1.423474 A    
C27   H13   1.083711 S    
O20   V3    1.734430 S    
N4    O28   1.298722 A    
O12   V3    2.034900 S    
C37   C39   1.412634 A    
O14   V4    2.012539 S    
C32   C36   1.431341 A    
O19   V3    2.202660 S    
C10   C12   1.412137 A    
O9    V2    1.731907 S    
C48   C50   1.427283 A    
O10   V1    1.735228 S    
C5    C19   1.493187 S    
C47   C49   1.428110 A    
N1    O21   1.300645 A    
C6    C20   1.501349 S    
C57   O18   1.313020 A    
C44   H20   1.077304 S    
C25   F3    1.356306 S    
C16   C18   1.485223 S    
