data_mof_unit_46037.cif
_audit_creation_date              2012-12-11T14:14:34-0500
_audit_creation_method            fapswitch 2.2
_symmetry_space_group_name_H-M    P1
_symmetry_Int_Tables_number       1
_space_group_crystal_system       monoclinic
_cell_length_a                    24.443561
_cell_length_b                    17.304184
_cell_length_c                    15.53098
_cell_angle_alpha                 90.0
_cell_angle_beta                  129.023445
_cell_angle_gamma                 90.0
_cell_volume                      5103.55838741

loop_
_atom_site_label
_atom_site_type_symbol
_atom_type_description
_atom_site_fract_x
_atom_site_fract_y
_atom_site_fract_z
_atom_type_partial_charge
C1    C     C_R   0.349276 0.361889 0.240044 -0.109255
C2    C     C_R   0.650724 0.361889 0.759955 -0.109254
C3    C     C_R   0.849276 0.861889 0.240044 -0.109255
C4    C     C_R   0.150724 0.861889 0.759955 -0.109254
C5    C     C_R   0.408896 0.639664 0.592663 -0.115867
C6    C     C_R   0.591104 0.639664 0.407337 -0.115867
C7    C     C_R   0.908896 0.139664 0.592663 -0.115867
C8    C     C_R   0.091104 0.139664 0.407337 -0.115867
C9    C     C_R   0.354928 0.680339 0.499519 0.128715
C10   C     C_R   0.645072 0.680339 0.500481 0.128715
C11   C     C_R   0.854928 0.180339 0.499519 0.128715
C12   C     C_R   0.145072 0.180339 0.500481 0.128714
C13   C     C_R   0.354194 0.628260 0.137861 0.154069
C14   C     C_R   0.645806 0.628260 0.862139 0.154069
C15   C     C_R   0.854194 0.128260 0.137861 0.154069
C16   C     C_R   0.145806 0.128260 0.862139 0.154069
C17   C     C_2   0.651149 0.795570 0.416372 -0.113450
C18   C     C_2   0.348851 0.795570 0.583628 -0.113450
C19   C     C_2   0.151149 0.295570 0.416372 -0.113450
C20   C     C_2   0.848851 0.295570 0.583628 -0.113450
C21   C     C_2   0.679556 0.749659 0.504625 -0.173819
C22   C     C_2   0.320444 0.749659 0.495375 -0.173819
C23   C     C_2   0.179556 0.249659 0.504625 -0.173819
C24   C     C_2   0.820444 0.249659 0.495375 -0.173819
C25   C     C_2   0.195642 0.348322 0.410627 -0.105667
C26   C     C_2   0.804358 0.348322 0.589373 -0.105667
C27   C     C_2   0.695642 0.848322 0.410627 -0.105667
C28   C     C_2   0.304358 0.848322 0.589373 -0.105667
C29   C     C_2   0.258936 0.370802 0.502164 -0.187121
C30   C     C_2   0.741064 0.370802 0.497836 -0.187120
C31   C     C_2   0.758936 0.870802 0.502164 -0.187121
C32   C     C_2   0.241064 0.870802 0.497836 -0.187120
C33   C     C_2   0.645243 0.248012 0.860151 -0.067064
C34   C     C_2   0.354757 0.248011 0.139849 -0.067063
C35   C     C_2   0.145243 0.748012 0.860151 -0.067063
C36   C     C_2   0.854757 0.748012 0.139849 -0.067063
C37   C     C_2   0.696960 0.208425 0.871652 -0.229179
C38   C     C_2   0.303040 0.208425 0.128348 -0.229179
C39   C     C_2   0.196960 0.708425 0.871652 -0.229179
C40   C     C_2   0.803040 0.708425 0.128348 -0.229179
C41   C     C_2   0.309655 0.658309 0.024883 -0.210659
C42   C     C_2   0.690345 0.658309 0.975117 -0.210659
C43   C     C_2   0.809655 0.158309 0.024883 -0.210660
C44   C     C_2   0.190345 0.158309 0.975117 -0.210659
C45   C     C_R   0.614771 0.399964 0.408211 -0.135429
C46   C     C_R   0.385229 0.399964 0.591789 -0.135429
C47   C     C_R   0.114771 0.899964 0.408211 -0.135429
C48   C     C_R   0.885229 0.899964 0.591789 -0.135429
C49   C     C_2   0.239775 0.651884 0.960012 -0.049026
C50   C     C_2   0.760225 0.651884 0.039988 -0.049026
C51   C     C_2   0.739775 0.151884 0.960012 -0.049026
C52   C     C_2   0.260225 0.151884 0.039988 -0.049026
C53   C     C_R   0.688430 0.399592 0.591951 -0.126995
C54   C     C_R   0.311570 0.399592 0.408049 -0.126995
C55   C     C_R   0.188430 0.899592 0.591951 -0.126995
C56   C     C_R   0.811570 0.899592 0.408049 -0.126995
C57   C     C_R   0.559260 0.360636 0.759787 -0.115825
C58   C     C_R   0.440740 0.360636 0.240213 -0.115825
C59   C     C_R   0.059260 0.860636 0.759787 -0.115825
C60   C     C_R   0.940740 0.860636 0.240213 -0.115825
C61   C     C_R   0.381449 0.319438 0.206336 0.051736
C62   C     C_R   0.618551 0.319438 0.793664 0.051736
C63   C     C_R   0.881449 0.819438 0.206336 0.051736
C64   C     C_R   0.118551 0.819438 0.793664 0.051736
C65   C     C_R   0.683490 0.385843 0.500028 0.138099
C66   C     C_R   0.316510 0.385843 0.499972 0.138099
C67   C     C_R   0.183490 0.885843 0.500028 0.138099
C68   C     C_R   0.816510 0.885843 0.499972 0.138099
C69   C     C_R   0.333521 0.638980 0.407212 -0.138143
C70   C     C_R   0.666479 0.638980 0.592788 -0.138143
C71   C     C_R   0.833521 0.138980 0.407212 -0.138143
C72   C     C_R   0.166479 0.138980 0.592788 -0.138143
C73   C     C_R   0.424411 0.609518 0.199441 -0.163765
C74   C     C_R   0.575589 0.609518 0.800559 -0.163765
C75   C     C_R   0.924411 0.109518 0.199441 -0.163765
C76   C     C_R   0.075589 0.109518 0.800559 -0.163765
C77   C     C_R   0.667061 0.606840 0.801174 -0.106741
C78   C     C_R   0.332939 0.606840 0.198826 -0.106741
C79   C     C_R   0.167061 0.106840 0.801174 -0.106741
C80   C     C_R   0.832939 0.106840 0.198826 -0.106741
H1    H     H_    0.300763 0.349082 0.225249 0.092204
H2    H     H_    0.699237 0.349082 0.774750 0.092204
H3    H     H_    0.800763 0.849082 0.225249 0.092204
H4    H     H_    0.199237 0.849082 0.774750 0.092204
H5    H     H_    0.732829 0.757601 0.580691 0.137172
H6    H     H_    0.267171 0.757601 0.419309 0.137172
H7    H     H_    0.232829 0.257601 0.580691 0.137172
H8    H     H_    0.767171 0.257601 0.419309 0.137172
H9    H     H_    0.180885 0.356141 0.329135 0.116673
H10   H     H_    0.819115 0.356141 0.670865 0.116673
H11   H     H_    0.680885 0.856141 0.329135 0.116673
H12   H     H_    0.319115 0.856141 0.670865 0.116673
H13   H     H_    0.272254 0.367879 0.583196 0.135402
H14   H     H_    0.727746 0.367879 0.416804 0.135402
H15   H     H_    0.772254 0.867879 0.583196 0.135402
H16   H     H_    0.227746 0.867879 0.416804 0.135402
H17   H     H_    0.215140 0.615541 0.983900 0.140401
H18   H     H_    0.784860 0.615541 0.016100 0.140401
H19   H     H_    0.715140 0.115541 0.983900 0.140401
H20   H     H_    0.284860 0.115541 0.016100 0.140401
H21   H     H_    0.715056 0.225431 0.826070 0.142284
H22   H     H_    0.284944 0.225431 0.173930 0.142284
H23   H     H_    0.215056 0.725431 0.826070 0.142284
H24   H     H_    0.784944 0.725431 0.173930 0.142284
H25   H     H_    0.334118 0.693993 0.999854 0.130546
H26   H     H_    0.665881 0.693993 0.000146 0.130546
H27   H     H_    0.834118 0.193993 0.999854 0.130547
H28   H     H_    0.165881 0.193993 0.000146 0.130547
H29   H     H_    0.595558 0.405639 0.323895 0.098522
H30   H     H_    0.404442 0.405639 0.676105 0.098522
H31   H     H_    0.095558 0.905639 0.323895 0.098522
H32   H     H_    0.904442 0.905639 0.676105 0.098522
H33   H     H_    0.736234 0.406110 0.676367 0.085428
H34   H     H_    0.263766 0.406110 0.323633 0.085428
H35   H     H_    0.236234 0.906110 0.676367 0.085428
H36   H     H_    0.763766 0.906110 0.323633 0.085428
H37   H     H_    0.521985 0.346193 0.772818 0.139601
H38   H     H_    0.478015 0.346193 0.227182 0.139602
H39   H     H_    0.021985 0.846193 0.772818 0.139601
H40   H     H_    0.978015 0.846193 0.227182 0.139601
H41   H     H_    0.291434 0.653340 0.321553 0.116267
H42   H     H_    0.708566 0.653340 0.678447 0.116267
H43   H     H_    0.791433 0.153340 0.321553 0.116267
H44   H     H_    0.208566 0.153340 0.678447 0.116267
H45   H     H_    0.454141 0.608385 0.169532 0.095862
H46   H     H_    0.545859 0.608385 0.830468 0.095862
H47   H     H_    0.954141 0.108385 0.169532 0.095862
H48   H     H_    0.045859 0.108385 0.830468 0.095862
H49   H     H_    0.720357 0.604592 0.829785 0.113647
H50   H     H_    0.279643 0.604592 0.170214 0.113647
H51   H     H_    0.220357 0.104592 0.829785 0.113647
H52   H     H_    0.779643 0.104592 0.170214 0.113647
H53   H     H_    0.435831 0.654113 0.678374 0.090480
H54   H     H_    0.564169 0.654113 0.321625 0.090480
H55   H     H_    0.935831 0.154113 0.678375 0.090480
H56   H     H_    0.064169 0.154113 0.321625 0.090480
H57   H     H_    0.598238 0.784821 0.340341 0.121542
H58   H     H_    0.401762 0.784821 0.659659 0.121542
H59   H     H_    0.098238 0.284822 0.340341 0.121542
H60   H     H_    0.901762 0.284822 0.659659 0.121542
N1    N     N_R   0.389060 0.424180 0.294540 -0.043670
N2    N     N_R   0.610940 0.424180 0.705460 -0.043670
N3    N     N_R   0.889060 0.924180 0.294540 -0.043670
N4    N     N_R   0.110940 0.924180 0.705460 -0.043670
N5    N     N_R   0.579670 0.423790 0.443360 -0.042391
N6    N     N_R   0.420330 0.423790 0.556640 -0.042391
N7    N     N_R   0.079670 0.923790 0.443360 -0.042391
N8    N     N_R   0.920330 0.923790 0.556640 -0.042391
N9    N     N_R   0.625470 0.423490 0.556600 -0.042799
N10   N     N_R   0.374530 0.423490 0.443400 -0.042799
N11   N     N_R   0.125470 0.923490 0.556600 -0.042799
N12   N     N_R   0.874530 0.923490 0.443400 -0.042799
N13   N     N_R   0.555250 0.423100 0.705420 -0.046514
N14   N     N_R   0.444750 0.423100 0.294580 -0.046514
N15   N     N_R   0.055250 0.923100 0.705420 -0.046514
N16   N     N_R   0.944750 0.923100 0.294580 -0.046514
N17   N     N_R   0.375210 0.577180 0.443400 -0.044120
N18   N     N_R   0.624790 0.577180 0.556600 -0.044120
N19   N     N_R   0.875210 0.077180 0.443400 -0.044120
N20   N     N_R   0.124790 0.077180 0.556600 -0.044120
N21   N     N_R   0.445430 0.577570 0.294580 -0.040628
N22   N     N_R   0.554570 0.577570 0.705420 -0.040628
N23   N     N_R   0.945430 0.077570 0.294580 -0.040628
N24   N     N_R   0.054570 0.077570 0.705420 -0.040628
N25   N     N_R   0.611620 0.576500 0.705460 -0.048349
N26   N     N_R   0.388380 0.576500 0.294540 -0.048349
N27   N     N_R   0.111620 0.076500 0.705460 -0.048349
N28   N     N_R   0.888380 0.076500 0.294540 -0.048349
N29   N     N_R   0.421010 0.576890 0.556640 -0.043997
N30   N     N_R   0.578990 0.576890 0.443360 -0.043997
N31   N     N_R   0.921010 0.076890 0.556640 -0.043997
N32   N     N_R   0.078990 0.076890 0.443360 -0.043997
Ni1   Ni    Ni4+2 0.383200 0.500680 0.370150 0.213474
Ni2   Ni    Ni4+2 0.616800 0.500680 0.629850 0.213474
Ni3   Ni    Ni4+2 0.883200 0.000680 0.370150 0.213474
Ni4   Ni    Ni4+2 0.116800 0.000680 0.629850 0.213474
Ni5   Ni    Ni4+2 0.512440 0.500680 0.370150 0.214612
Ni6   Ni    Ni4+2 0.487560 0.500680 0.629850 0.214612
Ni7   Ni    Ni4+2 0.012440 0.000680 0.370150 0.214612
Ni8   Ni    Ni4+2 0.987560 0.000680 0.629850 0.214612
C81   C     C_2   0.620192 0.227090 0.923006 0.998642
O1    O     O_2   0.557502 0.215787 0.873543 -0.655745
O2    O     O_R   0.668138 0.221469 0.038581 -0.818522
H61   H     H_    0.644699 0.206880 0.071706 0.319361
C82   C     C_2   0.379808 0.227090 0.076994 0.998642
O3    O     O_2   0.442498 0.215787 0.126457 -0.655745
O4    O     O_R   0.331862 0.221469 0.961419 -0.818522
H62   H     H_    0.355300 0.206880 0.928294 0.319360
C83   C     C_2   0.120192 0.727090 0.923006 0.998642
O5    O     O_2   0.057502 0.715787 0.873543 -0.655745
O6    O     O_R   0.168138 0.721469 0.038581 -0.818522
H63   H     H_    0.144700 0.706880 0.071706 0.319360
C84   C     C_2   0.879808 0.727090 0.076994 0.998642
O7    O     O_2   0.942498 0.715787 0.126457 -0.655745
O8    O     O_R   0.831862 0.721469 0.961418 -0.818521
H64   H     H_    0.855300 0.706880 0.928294 0.319360

loop_
_geom_bond_atom_site_label_1
_geom_bond_atom_site_label_2
_ccdc_geom_bond_type
N28   Ni3   S    
C15   C75   A    
C80   H52   S    
C7    N31   A    
C8    H56   S    
C35   C39   D    
N3    Ni3   S    
C13   C41   S    
C82   O3    D    
C57   C62   A    
C54   N10   A    
C74   H46   S    
C81   O1    D    
C7    C11   A    
C12   C23   S    
C59   C64   A    
C41   H25   S    
C60   C63   A    
C45   N5    A    
C14   C74   A    
C71   H43   S    
C9    C69   A    
C46   C66   A    
C37   C51   S    
N16   Ni7   S    
C45   H29   S    
C9    C22   S    
C82   O4    S    
C38   C52   S    
C77   N25   A    
N22   N25   A    
C16   C76   A    
C54   H34   S    
C11   C24   S    
C58   H38   S    
N6    Ni6   S    
C75   N23   A    
N9    Ni2   S    
C14   C77   A    
C47   C67   A    
C18   H58   S    
C36   C84   S    
C73   N21   A    
C58   N14   A    
N17   N29   A    
N6    N10   A    
N12   Ni3   S    
N18   Ni2   S    
C20   C24   D    
C33   C62   S    
C84   O8    S    
C69   N17   A    
C27   H11   S    
C35   C64   S    
N13   Ni6   S    
C69   H41   S    
C56   N12   A    
C36   C63   S    
C53   C65   A    
C16   C44   S    
C75   H47   S    
N21   N26   A    
N24   Ni8   S    
C14   C42   S    
C44   C52   D    
C58   C61   A    
C81   O2    S    
C12   C72   A    
N8    Ni8   S    
C23   H7    S    
C72   H44   S    
C53   N9    A    
N20   Ni4   S    
C41   C49   D    
C29   H13   S    
C53   H33   S    
C47   N7    A    
C44   H28   S    
C10   C21   S    
C25   C29   D    
C31   C68   S    
C21   H5    S    
C78   N26   A    
C50   H18   S    
N30   Ni5   S    
C27   C31   D    
O6    H63   S    
C17   C27   S    
C28   C32   D    
C3    N3    A    
N2    Ni2   S    
C74   N22   A    
C59   N15   A    
N18   N30   A    
C77   H49   S    
C56   H36   S    
C6    C10   A    
N25   Ni2   S    
C56   C68   A    
C57   N13   A    
C52   H20   S    
C34   C61   S    
C33   C37   D    
C29   C66   S    
C70   N18   A    
C34   C82   S    
C19   C23   D    
O2    H61   S    
C60   N16   A    
C76   N24   A    
C5    C9    A    
C40   H24   S    
C51   H19   S    
C24   H8    S    
C70   H42   S    
C15   C80   A    
C4    H4    S    
C36   C40   D    
C8    C12   A    
C79   H51   S    
N4    Ni4   S    
N20   N32   A    
C18   C28   S    
C28   H12   S    
C43   H27   S    
C48   C68   A    
C55   N11   A    
C42   H26   S    
N19   N31   A    
C42   C50   D    
C32   C67   S    
C10   C70   A    
N32   Ni7   S    
C31   H15   S    
C48   H32   S    
C13   C73   A    
C26   C30   D    
C3    C63   A    
C46   H30   S    
C3    H3    S    
N19   Ni3   S    
C2    N2    A    
N31   Ni8   S    
C2    H2    S    
C83   O6    S    
N21   Ni5   S    
N29   Ni6   S    
N15   Ni8   S    
C57   H37   S    
C6    N30   A    
N1    Ni1   S    
C13   C78   A    
N26   Ni1   S    
C59   H39   S    
N11   Ni4   S    
C39   C49   S    
C34   C38   D    
N24   N27   A    
N8    N12   A    
C1    C61   A    
C4    N4    A    
C33   C81   S    
C55   C67   A    
C39   H23   S    
C54   C66   A    
C5    H53   S    
C26   H10   S    
C71   N19   A    
C4    C64   A    
C25   H9    S    
C72   N20   A    
C47   H31   S    
C16   C79   A    
C45   C65   A    
C20   H60   S    
N4    N15   A    
C18   C22   D    
N23   N28   A    
C78   H50   S    
C15   C43   S    
O4    H62   S    
C30   H14   S    
C37   H21   S    
C32   H16   S    
C55   H35   S    
C43   C51   D    
N3    N16   A    
C46   N6    A    
C20   C26   S    
C73   H45   S    
N7    N11   A    
C48   N8    A    
C60   H40   S    
C11   C71   A    
C22   H6    S    
N2    N13   A    
C38   H22   S    
C83   O5    D    
C19   C25   S    
C17   C21   D    
N22   Ni6   S    
C30   C65   S    
C1    N1    A    
C7    H55   S    
C49   H17   S    
O8    H64   S    
N7    Ni7   S    
C40   C50   S    
C6    H54   S    
N10   Ni1   S    
C35   C83   S    
C84   O7    D    
N14   Ni5   S    
N5    Ni5   S    
C2    C62   A    
C5    N29   A    
C17   H57   S    
C79   N27   A    
N1    N14   A    
N23   Ni7   S    
C1    H1    S    
C80   N28   A    
C19   H59   S    
N5    N9    A    
C8    N32   A    
N17   Ni1   S    
N27   Ni4   S    
C76   H48   S    
