data_mof_unit_25905.cif
_audit_creation_date              2013-03-05T16:41:26-0500
_audit_creation_method            fapswitch 2.2
_symmetry_space_group_name_H-M    P1
_symmetry_Int_Tables_number       1
_space_group_crystal_system       triclinic
_cell_length_a                    10.63502
_cell_length_b                    10.701162
_cell_length_c                    9.921128
_cell_angle_alpha                 89.560045
_cell_angle_beta                  102.941929
_cell_angle_gamma                 91.778643
_cell_volume                      1099.88228429

loop_
_atom_site_label
_atom_site_type_symbol
_atom_site_description
_atom_site_fract_x
_atom_site_fract_y
_atom_site_fract_z
_atom_type_partial_charge
O1    O     O_R   0.500020 0.316790 0.614700 -0.631768
O2    O     O_R   0.500000 0.316760 0.385350 -0.596175
C1    C     C_R   0.506929 0.260442 0.501869 0.917205
O3    O     O_R   0.317820 0.500020 0.571850 -0.566903
O4    O     O_R   0.317800 0.499980 0.342510 -0.603359
C2    C     C_R   0.258708 0.504976 0.442470 0.975913
Zn1   Zn    Zn3+2 0.500010 0.500020 0.653140 1.051405
Zn2   Zn    Zn3+2 0.499990 0.499980 0.346860 0.994329
O5    O     O_R   0.500000 0.683240 0.614650 -0.602205
O6    O     O_R   0.499980 0.683210 0.385300 -0.631542
O7    O     O_R   0.682200 0.500020 0.657490 -0.562928
O8    O     O_R   0.682180 0.499980 0.428150 -0.632899
C3    C     C_R   0.501691 0.740069 0.499735 0.890032
C4    C     C_R   0.741390 0.509297 0.556498 0.905802
H1    H     H_    0.872898 0.579113 0.372890 0.188537
H2    H     H_    0.126242 0.624770 0.590944 0.257833
C5    C     C_2   0.121447 0.523737 0.408174 -0.305500
C6    C     C_2   0.068209 0.584533 0.496603 -0.020717
H3    H     H_    0.935117 0.539088 0.689774 0.241323
C7    C     C_2   0.877978 0.542195 0.584481 -0.210221
C8    C     C_2   0.930208 0.575971 0.478426 -0.168290
H4    H     H_    0.063350 0.484985 0.312420 0.176555
C9    C     C_R   0.541744 0.063635 0.629926 0.080957
C10   C     C_R   0.531717 0.130044 0.507090 -0.098759
C11   C     C_R   0.544427 0.067104 0.387265 -0.115499
H5    H     H_    0.549240 0.116798 0.292990 0.201081
C12   C     C_R   0.538805 0.937559 0.385125 -0.152517
H6    H     H_    0.541413 0.889835 0.289922 0.184892
C13   C     C_R   0.519219 0.872311 0.502358 -0.068077
C14   C     C_R   0.529231 0.936218 0.625782 0.034604
C15   C     C_3   0.447941 0.932785 0.731617 0.132852
C16   C     C_3   0.471110 0.073971 0.743527 -0.127005
H7    H     H_    0.488950 0.880091 0.826877 0.187139
H8    H     H_    0.382543 0.129339 0.714640 0.214433
C17   C     C_R   0.439668 0.405507 0.058783 0.084542
N1    N     N_R   0.499160 0.499140 0.142600 -0.131864
C18   C     C_R   0.574708 0.582950 0.090113 -0.143537
H9    H     H_    0.634851 0.649655 0.159237 0.169242
C19   C     C_R   0.578277 0.581276 0.947469 0.367379
N2    N     N_R   0.499160 0.499180 0.856960 -0.135480
C20   C     C_R   0.439346 0.405035 0.916985 -0.025454
C21   C     C_3   0.301637 0.355528 0.884182 0.062414
C22   C     C_3   0.301949 0.364512 0.037826 0.057233
H10   H     H_    0.291823 0.258511 0.843688 0.157143
H11   H     H_    0.240986 0.438575 0.065604 0.171329
C23   C     C_3   0.564283 0.114540 0.878429 -0.819582
H12   H     H_    0.653636 0.059569 0.898226 0.278293
H13   H     H_    0.592292 0.214740 0.872628 0.259979
H14   H     H_    0.517892 0.099868 0.966573 0.282791
N3    N     N_R   0.674501 0.657904 0.904151 0.210017
O9    O     O_R   0.779620 0.605223 0.891140 -0.364442
O10   O     O_R   0.682106 0.776341 0.934005 -0.437325
N4    N     N_R   0.209532 0.438354 0.800833 0.218262
O11   O     O_R   0.206929 0.555662 0.833669 -0.379271
O12   O     O_R   0.115864 0.388953 0.707677 -0.406907
N5    N     N_R   0.283744 0.244480 0.103590 0.231279
O13   O     O_R   0.342842 0.145508 0.079076 -0.417740
O14   O     O_R   0.206189 0.236169 0.187911 -0.343006
N6    N     N_R   0.312567 0.897666 0.673022 0.209096
O15   O     O_R   0.252020 0.820694 0.740307 -0.330082
O16   O     O_R   0.250303 0.945731 0.557116 -0.364838

loop_
_geom_bond_atom_site_label_1
_geom_bond_atom_site_label_2
_geom_bond_distance
_ccdc_geom_bond_type
O4    Zn2   1.928388 S    
N3    O10   1.299721 A    
Zn1   N2    2.024118 S    
C15   H7    1.106267 S    
C10   C11   1.405380 A    
C18   H9    1.082419 S    
C11   C12   1.385838 A    
C6    C8    1.438141 S    
C17   C22   1.485249 S    
C20   C21   1.507460 S    
C5    H4    1.087846 S    
Zn2   O8    1.924771 S    
C9    C16   1.494340 S    
C5    C6    1.329531 D    
N6    O15   1.299964 A    
C18   C19   1.424434 A    
H2    C6    1.083183 S    
N4    O11   1.302010 A    
C7    C8    1.337826 D    
Zn1   O7    1.928386 S    
C22   H11   1.113437 S    
C23   H14   1.104142 S    
C1    C10   1.426521 S    
C14   C15   1.501765 S    
C21   H10   1.109518 S    
O3    Zn1   1.924771 S    
C3    C13   1.421286 S    
N2    C20   1.376569 A    
N5    O14   1.300541 A    
O2    C1    1.287976 A    
O1    C1    1.293073 A    
N4    O12   1.299385 A    
C21   N4    1.452137 S    
O4    C2    1.289720 A    
C17   C20   1.406080 A    
O7    C4    1.298894 A    
C23   H13   1.108463 S    
N6    O16   1.302430 A    
O3    C2    1.298156 A    
C12   C13   1.403816 A    
C21   C22   1.527337 S    
C9    C10   1.390947 A    
C13   C14   1.388661 A    
C9    C14   1.365913 A    
C4    C7    1.449211 S    
C22   N5    1.463336 S    
H1    C8    1.088018 S    
C19   N3    1.429630 S    
N5    O13   1.299858 A    
Zn2   O6    2.000397 S    
Zn2   N1    2.024618 S    
C15   N6    1.465198 S    
C19   N2    1.383436 A    
Zn1   O5    1.994625 S    
C2    C5    1.442802 S    
O5    C3    1.291437 A    
C23   H12   1.112182 S    
N1    C18   1.362562 A    
N3    O9    1.299676 A    
C11   H5    1.082749 S    
O1    Zn1   2.000397 S    
C16   C23   1.532902 S    
O6    C3    1.288483 A    
C15   C16   1.524444 S    
O2    Zn2   1.994627 S    
H3    C7    1.085355 S    
O8    C4    1.291046 A    
C12   H6    1.083384 S    
C17   N1    1.354086 A    
C16   H8    1.109739 S    
