data_mof_unit_8647.cif
_audit_creation_date              2012-12-10T19:00:47-0500
_audit_creation_method            fapswitch 2.2
_symmetry_space_group_name_H-M    P1
_symmetry_Int_Tables_number       1
_space_group_crystal_system       triclinic
_cell_length_a                    15.095714
_cell_length_b                    10.866558
_cell_length_c                    9.532918
_cell_angle_alpha                 89.634894
_cell_angle_beta                  90.161391
_cell_angle_gamma                 89.508925
_cell_volume                      1563.66947749

loop_
_atom_site_label
_atom_site_type_symbol
_atom_type_description
_atom_site_fract_x
_atom_site_fract_y
_atom_site_fract_z
_atom_type_partial_charge
C1    C     C_R   0.498233 0.262244 0.499967 0.834450
C2    C     C_R   0.908235 0.532981 0.627487 0.031245
C3    C     C_R   0.953104 0.473933 0.248998 -0.190853
C4    C     C_R   0.045447 0.471325 0.248345 -0.222738
C5    C     C_R   0.092744 0.487418 0.373496 0.111708
C6    C     C_R   0.046942 0.506977 0.500460 0.089970
C7    C     C_R   0.094069 0.522795 0.626914 0.117450
C8    C     C_R   0.048402 0.542414 0.752432 -0.247547
C9    C     C_R   0.956260 0.547674 0.752795 -0.182848
C10   C     C_R   0.185115 0.484641 0.373948 -0.264617
C11   C     C_R   0.231963 0.500761 0.499730 -0.071804
C12   C     C_R   0.328666 0.499739 0.499826 0.802445
C13   C     C_R   0.186235 0.519099 0.625785 -0.254065
C14   C     C_R   0.526417 0.061954 0.616138 0.008195
C15   C     C_R   0.498933 0.128540 0.497682 -0.202344
C16   C     C_R   0.478802 0.063587 0.373116 0.426089
C17   C     C_R   0.481506 0.935063 0.373960 -0.313870
C18   C     C_R   0.502182 0.870170 0.497398 -0.217895
C19   C     C_R   0.528280 0.935242 0.615589 0.122677
C20   C     C_3   0.498223 0.924586 0.763943 0.291989
C21   C     C_3   0.493658 0.064493 0.764201 -0.513966
C22   C     C_R   0.575457 0.474252 0.074113 0.256418
C23   C     C_R   0.499531 0.737416 0.499563 0.815846
C24   C     C_R   0.428097 0.541491 0.073784 -0.121797
C25   C     C_R   0.427902 0.540767 0.924986 -0.090636
C26   C     C_R   0.576002 0.476695 0.926716 0.286150
C27   C     C_3   0.630053 0.361941 0.919661 -0.486082
C28   C     C_3   0.626757 0.356355 0.078616 -0.500166
C29   C     C_R   0.671457 0.504175 0.500369 0.825690
C30   C     C_R   0.815458 0.540348 0.626305 0.403954
C31   C     C_R   0.768547 0.512773 0.501489 -0.189630
C32   C     C_R   0.814959 0.493459 0.376246 -0.312547
C33   C     C_R   0.907109 0.493383 0.374669 0.108881
C34   C     C_R   0.953993 0.510928 0.500942 -0.010957
Cu1   Cu    Cu3+1 0.500000 0.499980 0.640670 0.946378
Cu2   Cu    Cu3+1 0.500000 0.500020 0.359330 0.942787
H1    H     H_    0.462782 0.886722 0.279634 0.165184
H2    H     H_    0.433433 0.876868 0.774662 0.067920
H3    H     H_    0.541939 0.104834 0.837774 0.215643
H4    H     H_    0.369413 0.572084 0.128517 0.139280
H5    H     H_    0.697634 0.378810 0.878403 0.233396
H6    H     H_    0.587141 0.278177 0.119397 0.251979
H7    H     H_    0.779452 0.477417 0.279496 0.170399
H8    H     H_    0.220385 0.469710 0.276484 0.149493
H9    H     H_    0.922917 0.562601 0.851746 0.186566
N1    N     N_R   0.500570 0.500930 0.147930 -0.177669
N2    N     N_R   0.500570 0.500890 0.852020 -0.184850
O1    O     O_R   0.500000 0.319640 0.618810 -0.583427
O2    O     O_R   0.500010 0.319680 0.381230 -0.531451
O3    O     O_R   0.370250 0.499950 0.618800 -0.597796
O4    O     O_R   0.370260 0.499990 0.381220 -0.597804
O5    O     O_R   0.499990 0.680320 0.618770 -0.582311
O6    O     O_R   0.500000 0.680360 0.381190 -0.590537
O7    O     O_R   0.629740 0.500010 0.618780 -0.556880
O8    O     O_R   0.629750 0.500050 0.381200 -0.590752
O9    O     O_3   0.771383 0.570988 0.748690 -0.616851
C35   C     C_3   0.740424 0.694397 0.740807 0.125258
H10   H     H_    0.672955 0.697017 0.786134 0.224485
H11   H     H_    0.734157 0.732386 0.632035 0.115430
C36   C     C_3   0.799586 0.777939 0.827135 -0.840085
H12   H     H_    0.866040 0.784290 0.778251 0.238723
H13   H     H_    0.769864 0.871667 0.831448 0.243604
H14   H     H_    0.806547 0.741244 0.935645 0.246358
O10   O     O_3   0.568036 0.877319 0.847691 -0.574778
C37   C     C_3   0.538947 0.861144 0.986900 0.054186
H15   H     H_    0.485313 0.791735 0.992037 0.139222
H16   H     H_    0.514607 0.949644 0.031441 0.175983
C38   C     C_3   0.616578 0.815306 0.075729 -0.767795
H17   H     H_    0.670741 0.883795 0.073682 0.246743
H18   H     H_    0.595669 0.800892 0.185787 0.224806
H19   H     H_    0.641832 0.726447 0.034713 0.233363
H20   H     H_    0.424960 0.101387 0.772440 0.159151
H21   H     H_    0.369081 0.570917 0.869422 0.134404
H22   H     H_    0.594269 0.287023 0.867320 0.211135
H23   H     H_    0.692935 0.366381 0.127666 0.188712
H24   H     H_    0.917643 0.460558 0.151315 0.141053
H25   H     H_    0.079837 0.456351 0.150188 0.136125
H26   H     H_    0.222258 0.531825 0.723105 0.145414
H27   H     H_    0.083959 0.554091 0.850328 0.138357
O11   O     O_3   0.456744 0.124584 0.249980 -0.577996
C39   C     C_3   0.363582 0.128375 0.236965 0.071550
H28   H     H_    0.332198 0.170280 0.331324 0.134140
H29   H     H_    0.336911 0.034222 0.221102 0.127153
C40   C     C_3   0.338575 0.206881 0.110124 -0.782678
H30   H     H_    0.368948 0.168021 0.013950 0.236383
H31   H     H_    0.265440 0.209206 0.097302 0.190823
H32   H     H_    0.362398 0.302221 0.124875 0.263277

loop_
_geom_bond_atom_site_label_1
_geom_bond_atom_site_label_2
_ccdc_geom_bond_type
C8    C9    A    
C9    H9    S    
C19   C20   S    
C40   H32   S    
Cu1   N2    S    
C12   O4    A    
C39   H28   S    
C23   O5    A    
C7    C8    A    
C26   C27   S    
C36   H14   S    
C14   C21   S    
C40   H31   S    
C5    C6    A    
C35   H11   S    
C29   O7    A    
C3    C33   A    
C15   C16   A    
O9    C35   S    
C36   H13   S    
C18   C19   A    
Cu2   O6    S    
C38   H17   S    
Cu1   Cu2   S    
C16   C17   A    
C37   H16   S    
C8    H27   S    
Cu2   N1    S    
C1    C15   S    
C27   H22   S    
C25   N2    A    
C2    C34   A    
C22   C28   S    
Cu1   O7    S    
Cu1   O1    S    
C39   H29   S    
C33   C34   A    
C21   H20   S    
C10   H8    S    
C18   C23   S    
C2    C9    A    
C24   C25   A    
C4    C5    A    
C35   C36   S    
C29   O8    A    
C30   O9    S    
C6    C34   A    
C36   H12   S    
C16   O11   S    
C20   O10   S    
C20   H2    S    
C27   H5    S    
C31   C32   A    
C21   H3    S    
C7    C13   A    
C37   C38   S    
Cu1   O3    S    
C17   C18   A    
C17   H1    S    
C40   H30   S    
C3    H24   S    
Cu2   O4    S    
C26   N2    A    
C22   N1    A    
C3    C4    A    
Cu1   O5    S    
C39   C40   S    
C13   H26   S    
C14   C19   A    
O11   C39   S    
C12   O3    A    
C11   C12   S    
C1    O1    A    
C6    C7    A    
C2    C30   A    
C24   N1    A    
C32   C33   A    
C5    C10   A    
C29   C31   S    
Cu2   O8    S    
O10   C37   S    
C11   C13   A    
C35   H10   S    
C30   C31   A    
C38   H19   S    
C23   O6    A    
C28   H6    S    
C24   H4    S    
C32   H7    S    
C25   H21   S    
C10   C11   A    
C4    H25   S    
C20   C21   S    
C38   H18   S    
C37   H15   S    
C22   C26   A    
C27   C28   S    
C14   C15   A    
C28   H23   S    
C1    O2    A    
Cu2   O2    S    
