data_mof_unit_38705.cif
_audit_creation_date              2012-12-10T18:44:20-0500
_audit_creation_method            fapswitch 2.2
_symmetry_space_group_name_H-M    P1
_symmetry_Int_Tables_number       1
_space_group_crystal_system       triclinic
_cell_length_a                    12.846318
_cell_length_b                    10.719274
_cell_length_c                    9.821044
_cell_angle_alpha                 90.029222
_cell_angle_beta                  98.364073
_cell_angle_gamma                 90.142034
_cell_volume                      1338.0002172

loop_
_atom_site_label
_atom_site_type_symbol
_atom_type_description
_atom_site_fract_x
_atom_site_fract_y
_atom_site_fract_z
_atom_type_partial_charge
C1    C     C_R   0.499929 0.259813 0.499919 0.879470
C2    C     C_R   0.500070 0.740187 0.500081 0.879468
C3    C     C_R   0.500094 0.872599 0.500082 -0.014031
C4    C     C_R   0.499905 0.127401 0.499918 -0.014030
C5    C     C_R   0.554499 0.588806 0.082374 -0.068824
C6    C     C_R   0.445501 0.411194 0.917626 -0.068829
C7    C     C_R   0.554329 0.588890 0.938335 -0.087702
C8    C     C_R   0.445671 0.411110 0.061665 -0.087701
C9    C     C_R   0.297717 0.500049 0.471340 0.946818
C10   C     C_R   0.702283 0.499950 0.528660 0.946820
C11   C     C_R   0.815291 0.498236 0.549329 -0.233142
C12   C     C_R   0.184708 0.501762 0.450671 -0.233145
C13   C     C_R   0.019808 0.583716 0.337738 0.194939
C14   C     C_R   0.980191 0.416280 0.662260 0.194937
C15   C     C_R   0.126912 0.562802 0.337465 0.415992
C16   C     C_R   0.873087 0.437194 0.662533 0.415991
C17   C     C_R   0.135594 0.449746 0.554176 -0.267402
C18   C     C_R   0.864406 0.550253 0.445824 -0.267402
C19   C     C_R   0.029115 0.465518 0.554273 0.014486
C20   C     C_R   0.970884 0.534480 0.445726 0.014485
C21   C     C_R   0.517146 0.063867 0.381010 -0.177314
C22   C     C_R   0.482854 0.936132 0.618990 -0.177313
C23   C     C_R   0.517265 0.936088 0.381101 -0.166524
C24   C     C_R   0.482735 0.063912 0.618900 -0.166524
H1    H     H_    0.817385 0.599774 0.362786 0.216400
H2    H     H_    0.182615 0.400226 0.637215 0.216400
H3    H     H_    0.531075 0.112474 0.288601 0.160622
H4    H     H_    0.468925 0.887526 0.711399 0.160622
H5    H     H_    0.531293 0.887451 0.288747 0.156933
H6    H     H_    0.468707 0.112549 0.711252 0.156933
H7    H     H_    0.598307 0.659525 0.145360 0.139988
H8    H     H_    0.401693 0.340475 0.854640 0.139988
H9    H     H_    0.598042 0.659619 0.891990 0.134960
H10   H     H_    0.401958 0.340381 0.108010 0.134958
N1    N     N_R   0.499970 0.499970 0.857200 -0.083259
N2    N     N_R   0.500030 0.500030 0.142800 -0.083258
O1    O     O_R   0.499990 0.316750 0.614620 -0.624430
O2    O     O_R   0.500010 0.683250 0.385380 -0.624430
O3    O     O_R   0.499990 0.316780 0.385290 -0.635518
O4    O     O_R   0.500010 0.683220 0.614710 -0.635517
O5    O     O_R   0.346360 0.499970 0.595710 -0.624758
O6    O     O_R   0.653640 0.500030 0.404290 -0.624759
O7    O     O_R   0.346360 0.499990 0.366380 -0.593768
O8    O     O_R   0.653640 0.500010 0.633620 -0.593769
Zn1   Zn    Zn3+2 0.500000 0.499980 0.653120 0.963448
Zn2   Zn    Zn3+2 0.500000 0.500020 0.346880 0.963449
O9    O     O_3   0.822987 0.384054 0.763926 -0.569292
C25   C     C_3   0.830902 0.466660 0.877312 0.163111
H11   H     H_    0.785856 0.553720 0.849174 0.144969
H12   H     H_    0.914157 0.492160 0.915322 0.163795
C26   C     C_3   0.785530 0.403597 0.994484 -0.734687
H13   H     H_    0.833104 0.320273 0.029878 0.266600
H14   H     H_    0.786636 0.469330 0.082099 0.219512
H15   H     H_    0.703095 0.374039 0.959342 0.254742
O10   O     O_3   0.177012 0.615940 0.236070 -0.569291
C27   C     C_3   0.169097 0.533330 0.122688 0.163109
H16   H     H_    0.085842 0.507822 0.084683 0.163790
H17   H     H_    0.214149 0.446274 0.150828 0.144969
C28   C     C_3   0.214461 0.596393 0.005510 -0.734684
H18   H     H_    0.296895 0.625960 0.040647 0.254743
H19   H     H_    0.213359 0.530656 0.917897 0.219512
H20   H     H_    0.166880 0.679710 0.970112 0.266601
Br1   Br    Br    0.945670 0.686545 0.193591 -0.556130
Br2   Br    Br    0.054328 0.313446 0.806403 -0.556128

loop_
_geom_bond_atom_site_label_1
_geom_bond_atom_site_label_2
_ccdc_geom_bond_type
C12   C17   A    
C6    H8    S    
O10   C27   S    
C27   C28   S    
C11   C18   A    
N2    Zn2   S    
C14   C16   A    
C10   O6    A    
O1    Zn1   S    
C11   C16   A    
C2    O2    A    
C9    O5    A    
C19   C20   A    
C13   Br1   S    
C12   C15   A    
C1    O1    A    
C1    C4    S    
C14   Br2   S    
C26   H15   S    
C25   H12   S    
C2    C3    S    
C21   H3    S    
C28   H18   S    
C8    H10   S    
C6    N1    A    
C4    C21   A    
C7    H9    S    
C18   H1    S    
O3    Zn2   S    
C6    C8    A    
C17   H2    S    
C23   H5    S    
C16   O9    S    
C25   H11   S    
C17   C19   A    
C27   H17   S    
C18   C20   A    
C10   C11   S    
C13   C15   A    
C21   C23   A    
C8    N2    A    
O4    Zn1   S    
C4    C24   A    
O7    Zn2   S    
C22   C24   A    
C9    O7    A    
C24   H6    S    
O2    Zn2   S    
C9    C12   S    
C1    O3    A    
C10   O8    A    
C26   H13   S    
N1    Zn1   S    
C5    N2    A    
C2    O4    A    
C27   H16   S    
O6    Zn2   S    
C28   H19   S    
C5    C7    A    
O5    Zn1   S    
C28   H20   S    
C22   H4    S    
C13   C20   A    
C5    H7    S    
C3    C23   A    
C7    N1    A    
C14   C19   A    
C25   C26   S    
C3    C22   A    
O8    Zn1   S    
O9    C25   S    
C26   H14   S    
C15   O10   S    
