data_mof_unit_68129.cif
_audit_creation_date              2013-03-05T15:58:27-0500
_audit_creation_method            fapswitch 2.2
_symmetry_space_group_name_H-M    P1
_symmetry_Int_Tables_number       1
_space_group_crystal_system       triclinic
_cell_length_a                    7.325113
_cell_length_b                    15.005353
_cell_length_c                    15.729878
_cell_angle_alpha                 90.000065
_cell_angle_beta                  89.997476
_cell_angle_gamma                 89.999959
_cell_volume                      1728.96379515

loop_
_atom_site_label
_atom_site_type_symbol
_atom_site_description
_atom_site_fract_x
_atom_site_fract_y
_atom_site_fract_z
_atom_type_partial_charge
O1    O     O_R   0.388780 0.834790 0.412340 -0.581817
O2    O     O_R   0.111220 0.165210 0.912340 -0.581863
O3    O     O_R   0.888780 0.665210 0.587660 -0.581846
O4    O     O_R   0.611220 0.334790 0.087660 -0.581847
O5    O     O_R   0.059040 0.845930 0.587040 -0.524276
O6    O     O_R   0.440960 0.154070 0.087040 -0.524247
O7    O     O_R   0.559040 0.654070 0.412960 -0.524279
O8    O     O_R   0.940960 0.345930 0.912960 -0.524232
C1    C     C_R   0.226481 0.869438 0.613564 0.820875
C2    C     C_R   0.273515 0.130566 0.113568 0.820772
C3    C     C_R   0.726485 0.630567 0.386431 0.820821
C4    C     C_R   0.773519 0.369439 0.886437 0.820794
O9    O     O_R   0.059070 0.845930 0.412970 -0.553994
O10   O     O_R   0.440930 0.154070 0.912970 -0.554008
O11   O     O_R   0.559070 0.654070 0.587030 -0.554021
O12   O     O_R   0.940930 0.345930 0.087030 -0.553983
O13   O     O_R   0.888760 0.665210 0.412340 -0.577498
O14   O     O_R   0.611240 0.334790 0.912340 -0.577600
O15   O     O_R   0.388760 0.834790 0.587660 -0.577554
O16   O     O_R   0.111240 0.165210 0.087660 -0.577528
C5    C     C_R   0.227353 0.868313 0.385541 0.847029
C6    C     C_R   0.272650 0.131688 0.885540 0.846897
C7    C     C_R   0.727350 0.631688 0.614460 0.846913
C8    C     C_R   0.772646 0.368313 0.114458 0.846992
O17   O     O_3   0.222280 0.690700 0.500000 -0.239457
O18   O     O_3   0.277720 0.309300 0.000000 -0.239478
O19   O     O_3   0.722280 0.809300 0.500000 -0.239467
O20   O     O_3   0.777720 0.190700 0.000000 -0.239456
V1    V     V_3+5 0.947430 0.761000 0.500000 1.276890
V2    V     V_3+5 0.552570 0.239000 0.000000 1.276848
V3    V     V_3+5 0.447430 0.739000 0.500000 1.276883
V4    V     V_3+5 0.052570 0.261000 0.000000 1.276862
C9    C     C_3   0.931426 0.560998 0.726036 -0.429046
C10   C     C_3   0.568560 0.439023 0.226026 -0.429082
C11   C     C_3   0.431445 0.939028 0.273979 -0.429106
C12   C     C_3   0.068581 0.061004 0.773957 -0.429014
H1    H     H_    0.025768 0.533154 0.677732 0.148060
H2    H     H_    0.474249 0.466875 0.177719 0.148038
H3    H     H_    0.525744 0.966882 0.322290 0.148059
H4    H     H_    0.974225 0.033161 0.822256 0.148043
H5    H     H_    0.980900 0.629901 0.735335 0.260841
H6    H     H_    0.519053 0.370125 0.235325 0.260833
H7    H     H_    0.480960 0.870131 0.264681 0.260818
H8    H     H_    0.019116 0.129908 0.764658 0.260856
C13   C     C_3   0.941075 0.506874 0.811688 -0.220924
C14   C     C_3   0.558907 0.493150 0.311676 -0.220903
C15   C     C_3   0.441104 0.993156 0.188331 -0.220938
C16   C     C_3   0.058941 0.006883 0.688303 -0.220889
H9    H     H_    0.789657 0.455538 0.595848 0.063333
H10   H     H_    0.710410 0.544470 0.095840 0.063347
H11   H     H_    0.289564 0.044474 0.404160 0.063244
H12   H     H_    0.210316 0.955541 0.904151 0.063399
C17   C     C_3   0.698068 0.463097 0.651744 -0.347547
C18   C     C_3   0.801978 0.536901 0.151739 -0.347547
C19   C     C_3   0.198005 0.036901 0.348259 -0.347524
C20   C     C_3   0.301915 0.963096 0.848258 -0.347565
C21   C     C_3   0.603718 0.581938 0.759569 -0.293787
C22   C     C_3   0.896243 0.418050 0.259569 -0.293803
C23   C     C_3   0.103773 0.918044 0.240427 -0.293839
C24   C     C_3   0.396302 0.081930 0.740437 -0.293773
C25   C     C_3   0.736386 0.560616 0.685669 -0.016554
C26   C     C_3   0.763609 0.439386 0.185665 -0.016573
C27   C     C_3   0.236391 0.939386 0.314335 -0.016560
C28   C     C_3   0.263615 0.060615 0.814331 -0.016550
H13   H     H_    0.464459 0.597638 0.736751 0.228559
H14   H     H_    0.035501 0.402328 0.236756 0.228539
H15   H     H_    0.964515 0.902317 0.263236 0.228500
H16   H     H_    0.535562 0.097623 0.763258 0.228620
H17   H     H_    0.654376 0.642089 0.792480 0.217162
H18   H     H_    0.845542 0.357907 0.292482 0.217176
H19   H     H_    0.154490 0.857904 0.207516 0.217236
H20   H     H_    0.345665 0.142084 0.707520 0.217068
C29   C     C_3   0.768537 0.440098 0.813748 -0.202527
C30   C     C_3   0.731472 0.559910 0.313740 -0.202498
C31   C     C_3   0.268528 0.059911 0.186261 -0.202408
C32   C     C_3   0.231466 0.940099 0.686251 -0.202651
C33   C     C_3   0.750962 0.390607 0.722799 -0.254385
C34   C     C_3   0.749090 0.609398 0.222791 -0.254340
C35   C     C_3   0.250897 0.109399 0.277209 -0.254382
C36   C     C_3   0.249023 0.890608 0.777200 -0.254323
C37   C     C_3   0.595701 0.503319 0.823766 -0.256908
C38   C     C_3   0.904284 0.496673 0.323760 -0.256824
C39   C     C_3   0.095726 0.996668 0.176238 -0.256637
C40   C     C_3   0.404313 0.003314 0.676236 -0.257188
H21   H     H_    0.477473 0.465562 0.804857 0.216550
H22   H     H_    0.022532 0.534412 0.304840 0.216553
H23   H     H_    0.977472 0.034401 0.195164 0.216513
H24   H     H_    0.522534 0.965547 0.695136 0.216608
C41   C     C_2   0.508818 0.447801 0.612822 1.020807
O21   O     O_2   0.479712 0.378324 0.574379 -0.558630
O22   O     O_R   0.369434 0.510837 0.618299 -0.809215
H25   H     H_    0.257182 0.492762 0.584775 0.322024
C42   C     C_2   0.991251 0.552178 0.112825 1.020676
O23   O     O_2   0.020401 0.621649 0.074378 -0.558581
O24   O     O_R   0.130608 0.489130 0.118311 -0.809214
H26   H     H_    0.242864 0.507185 0.084776 0.322037
C43   C     C_2   0.008726 0.052173 0.387169 1.020677
O25   O     O_2   0.979563 0.121644 0.425614 -0.558609
O26   O     O_R   0.869381 0.989119 0.381683 -0.809198
H27   H     H_    0.757126 0.007168 0.415222 0.322101
C44   C     C_2   0.491159 0.947795 0.887185 1.020818
O27   O     O_2   0.520251 0.878317 0.925629 -0.558584
O28   O     O_R   0.630554 0.010825 0.881709 -0.809226
H28   H     H_    0.742809 0.992743 0.915227 0.321983
C45   C     C_2   0.612572 0.312832 0.726388 1.079600
O29   O     O_2   0.653618 0.238859 0.699752 -0.581792
O30   O     O_R   0.436649 0.326533 0.757673 -0.811997
H29   H     H_    0.361579 0.270688 0.763191 0.333699
C46   C     C_2   0.887504 0.687163 0.226367 1.079497
O31   O     O_2   0.846567 0.761104 0.199619 -0.581758
O32   O     O_R   0.063351 0.673476 0.257743 -0.811996
H30   H     H_    0.138486 0.729307 0.263183 0.333684
C47   C     C_2   0.112480 0.187162 0.273628 1.079479
O33   O     O_2   0.153418 0.261106 0.300370 -0.581733
O34   O     O_R   0.936635 0.173473 0.242252 -0.811982
H31   H     H_    0.861494 0.229303 0.236816 0.333695
C48   C     C_2   0.387409 0.812830 0.773617 1.079609
O35   O     O_2   0.346364 0.738861 0.800263 -0.581849
O36   O     O_R   0.563334 0.826528 0.742331 -0.812008
H32   H     H_    0.638396 0.770682 0.736806 0.333686
C49   C     C_2   0.937186 0.568333 0.888800 0.800210
H33   H     H_    0.912092 0.538413 0.950065 -0.073655
O37   O     O_2   0.963912 0.648520 0.884270 -0.500015
C50   C     C_2   0.562752 0.431694 0.388791 0.800091
H34   H     H_    0.587827 0.461617 0.450055 -0.073585
O38   O     O_2   0.536008 0.351510 0.384264 -0.500042
C51   C     C_2   0.437283 0.931702 0.111216 0.800288
H35   H     H_    0.412191 0.961624 0.049952 -0.073519
O39   O     O_2   0.464075 0.851521 0.115740 -0.499988
C52   C     C_2   0.062863 0.068345 0.611192 0.799942
H36   H     H_    0.087942 0.038424 0.549926 -0.073776
O40   O     O_2   0.036189 0.148535 0.615724 -0.500078
C53   C     C_2   0.126455 0.462389 0.815392 0.550037
H37   H     H_    0.194400 0.442568 0.757453 0.073142
O41   O     O_2   0.204175 0.449279 0.882997 -0.577877
C54   C     C_2   0.373538 0.537649 0.315372 0.550023
H38   H     H_    0.305625 0.557480 0.257432 0.073120
O42   O     O_2   0.295788 0.550757 0.382973 -0.577837
C55   C     C_2   0.626468 0.037661 0.184642 0.549890
H39   H     H_    0.694377 0.057485 0.242586 0.073183
O43   O     O_2   0.704221 0.050779 0.117044 -0.577902
C56   C     C_2   0.873554 0.962405 0.684589 0.550249
H40   H     H_    0.805604 0.942573 0.742522 0.073050
O44   O     O_2   0.795838 0.949310 0.616980 -0.577776
C57   C     C_2   0.933191 0.348259 0.697410 0.591087
H41   H     H_    0.002793 0.366244 0.638972 0.074454
O45   O     O_2   0.004535 0.292081 0.742577 -0.587600
C58   C     C_2   0.566884 0.651764 0.197402 0.590993
H42   H     H_    0.497271 0.633772 0.138971 0.074486
O46   O     O_2   0.495571 0.707959 0.242563 -0.587671
C59   C     C_2   0.433097 0.151767 0.302604 0.590984
H43   H     H_    0.502699 0.133781 0.361038 0.074469
O47   O     O_2   0.504415 0.207961 0.257442 -0.587652
C60   C     C_2   0.066786 0.848264 0.802584 0.591068
H44   H     H_    0.997171 0.866256 0.861016 0.074467
O48   O     O_2   0.995450 0.792083 0.757416 -0.587616
C61   C     C_2   0.552345 0.533911 0.914192 0.556678
H45   H     H_    0.541157 0.485704 0.965157 0.014677
O49   O     O_2   0.524532 0.612190 0.931207 -0.495836
C62   C     C_2   0.947617 0.466085 0.414188 0.556629
H46   H     H_    0.958828 0.514297 0.465147 0.014708
O50   O     O_2   0.975384 0.387805 0.431209 -0.495821
C63   C     C_2   0.052392 0.966090 0.085807 0.555991
H47   H     H_    0.040812 0.014325 0.034890 0.015262
O51   O     O_2   0.025053 0.887790 0.068736 -0.495934
C64   C     C_2   0.447667 0.033918 0.585814 0.557641
H48   H     H_    0.458305 0.985747 0.534788 0.013848
O52   O     O_2   0.476118 0.112166 0.568874 -0.495666

loop_
_geom_bond_atom_site_label_1
_geom_bond_atom_site_label_2
_geom_bond_distance
_ccdc_geom_bond_type
O17   V3    1.801471 S    
C39   H23   1.076813 S    
C22   C26   1.548519 S    
C42   O23   1.223923 D    
O19   V1    1.801470 S    
C48   O35   1.223929 D    
C9    C13   1.574736 S    
C38   C62   1.527976 S    
C16   C32   1.613185 S    
C11   H3    1.108763 S    
C63   H47   1.082840 S    
C10   H6    1.105305 S    
C10   C26   1.563450 S    
C11   C15   1.574729 S    
C32   C40   1.589855 S    
C57   H41   1.085219 S    
O4    V2    2.037632 S    
O1    C5    1.352403 A    
C45   O30   1.394645 S    
C23   H19   1.104711 S    
C61   H45   1.082889 S    
O2    V4    2.037608 S    
C63   O51   1.221742 D    
C23   C39   1.553975 S    
C20   C44   1.532763 S    
C22   C38   1.553977 S    
O4    C8    1.352403 A    
C24   H20   1.104729 S    
O34   H31   1.006035 S    
C43   O25   1.223923 D    
O1    V3    2.037635 S    
O13   V1    2.037665 S    
C13   C29   1.613193 S    
O3    V1    2.037610 S    
C18   C42   1.532773 S    
C46   O32   1.394632 S    
C43   O26   1.394462 S    
C17   C25   1.582664 S    
C1    O15   1.359897 A    
O24   H26   1.013794 S    
C5    C27   1.548002 S    
C2    O16   1.359899 A    
C19   C27   1.582689 S    
O2    C6    1.352399 A    
O30   H29   1.006039 S    
C20   C28   1.582655 S    
C10   C14   1.574728 S    
C1    C32   1.559756 S    
C41   O22   1.394470 S    
C11   H7    1.105309 S    
C60   O48   1.220052 D    
C34   C58   1.531348 S    
C23   H15   1.106779 S    
O11   C7    1.348512 A    
C59   H43   1.085222 S    
O15   V3    2.037637 S    
C42   O24   1.394462 S    
C4    C29   1.559758 S    
C64   O52   1.221896 D    
C14   C50   1.523994 S    
C64   H48   1.082956 S    
C30   C38   1.589869 S    
C29   C37   1.589855 S    
C57   O45   1.220051 D    
C22   H14   1.106777 S    
O7    C3    1.342723 A    
O5    V1    2.041350 S    
O7    V3    2.041303 S    
C16   C56   1.514254 S    
O8    V4    2.041352 S    
C44   O27   1.223923 D    
C32   C36   1.617017 S    
C12   H4    1.108789 S    
C37   C61   1.527981 S    
C58   H42   1.085221 S    
C54   O42   1.222179 D    
C21   H13   1.106771 S    
O22   H25   1.013796 S    
O18   V4    1.801471 S    
C22   H18   1.104719 S    
C18   C26   1.582678 S    
C13   C49   1.523997 S    
O3    C7    1.352398 A    
C38   H22   1.076805 S    
C14   C54   1.514261 S    
O11   V3    2.041335 S    
C9    H1    1.108782 S    
C62   O50   1.221809 D    
C52   O40   1.221117 D    
C51   O39   1.221128 D    
O5    C1    1.342726 A    
C19   C35   1.607035 S    
C2    C31   1.559757 S    
O26   H27   1.013795 S    
O8    C4    1.342727 A    
C19   C43   1.532772 S    
C60   H44   1.085220 S    
O9    C5    1.348497 A    
H10   C18   1.111747 S    
C55   O43   1.222175 D    
O36   H32   1.006038 S    
C21   C25   1.548522 S    
C49   H33   1.078910 S    
O14   V2    2.037641 S    
C9    C25   1.563473 S    
O6    V2    2.041305 S    
C35   C47   1.546855 S    
C17   C41   1.532758 S    
C17   C33   1.607038 S    
C56   O44   1.222183 D    
C12   H8    1.105305 S    
C4    O14   1.359898 A    
C51   H35   1.078910 S    
C33   C57   1.531364 S    
C14   C30   1.613207 S    
C50   O38   1.221120 D    
C47   O33   1.223927 D    
O16   V4    2.037666 S    
C35   C59   1.531350 S    
O9    V1    2.041288 S    
C39   C63   1.527978 S    
C36   C48   1.546879 S    
C3    O13   1.359898 A    
C8    C26   1.548002 S    
O32   H30   1.006029 S    
C10   H2    1.108768 S    
C13   C53   1.514249 S    
C40   H24   1.076789 S    
C58   O46   1.220051 D    
C54   H38   1.080141 S    
C15   C31   1.613212 S    
C3    C30   1.559756 S    
O6    C2    1.342725 A    
C55   H39   1.080142 S    
C36   C60   1.531363 S    
O12   V4    2.041284 S    
C45   O29   1.223924 D    
C23   C27   1.548516 S    
C20   C36   1.607038 S    
C44   O28   1.394471 S    
C24   C28   1.548526 S    
C9    H5    1.105310 S    
C62   H46   1.082891 S    
O10   C6    1.348511 A    
C48   O36   1.394648 S    
C52   H36   1.078908 S    
O10   V2    2.041335 S    
O20   V2    1.801471 S    
C46   O31   1.223930 D    
C24   C40   1.553990 S    
C31   C39   1.589870 S    
C53   H37   1.080141 S    
C15   C51   1.523979 S    
H9    C17   1.111746 S    
C33   C45   1.546871 S    
C18   C34   1.607035 S    
C12   C16   1.574733 S    
C34   C46   1.546860 S    
H11   C19   1.111738 S    
C59   O47   1.220050 D    
C21   C37   1.553986 S    
O12   C8    1.348497 A    
C49   O37   1.221127 D    
C40   C64   1.527973 S    
C6    C28   1.548024 S    
C7    C25   1.548024 S    
C24   H16   1.106768 S    
C61   O49   1.221804 D    
C30   C34   1.617012 S    
C15   C55   1.514258 S    
O28   H28   1.013796 S    
C53   O41   1.222177 D    
C29   C33   1.617008 S    
C56   H40   1.080141 S    
C11   C27   1.563444 S    
C21   H17   1.104716 S    
C41   O21   1.223923 D    
C12   C28   1.563481 S    
C31   C35   1.617004 S    
C37   H21   1.076801 S    
H12   C20   1.111750 S    
C16   C52   1.524013 S    
C50   H34   1.078906 S    
C47   O34   1.394633 S    
