data_mof_unit_15158.cif
_audit_creation_date              2012-12-10T16:50:12-0500
_audit_creation_method            fapswitch 2.2
_symmetry_space_group_name_H-M    P1
_symmetry_Int_Tables_number       1
_space_group_crystal_system       triclinic
_cell_length_a                    7.781796
_cell_length_b                    8.563186
_cell_length_c                    10.623806
_cell_angle_alpha                 90.509102
_cell_angle_beta                  85.857932
_cell_angle_gamma                 93.672893
_cell_volume                      704.632354501

loop_
_atom_site_label
_atom_site_type_symbol
_atom_type_description
_atom_site_fract_x
_atom_site_fract_y
_atom_site_fract_z
_atom_type_partial_charge
C1    C     C_R   0.545951 0.794688 0.498987 1.018072
C2    C     C_R   0.454270 0.205326 0.504201 0.956382
C3    C     C_R   0.499247 0.507881 0.260636 0.962091
C4    C     C_R   0.417859 0.787203 0.869098 -0.287549
C5    C     C_R   0.369467 0.920842 0.934330 0.600142
C6    C     C_R   0.362026 0.923421 0.065288 -0.305215
C7    C     C_R   0.402753 0.792538 0.131830 0.525553
C8    C     C_R   0.451144 0.654265 0.067115 -0.033837
C9    C     C_R   0.458064 0.652497 0.934631 -0.062900
C10   C     C_R   0.509078 0.516183 0.870818 -0.021366
C11   C     C_R   0.559763 0.386885 0.932852 -0.119848
C12   C     C_R   0.553546 0.387641 0.061560 -0.219493
C13   C     C_R   0.497561 0.518010 0.128115 -0.071052
C14   C     C_2   0.570065 0.958331 0.498736 -0.342077
C15   C     C_2   0.430367 0.041770 0.508210 -0.274290
C16   C     C_R   0.502580 0.502602 0.739190 0.868955
F1    F     F_    0.330880 0.048689 0.870108 -0.677819
F2    F     F_    0.396157 0.805147 0.258722 -0.678939
H1    H     H_    0.599702 0.283742 0.881468 0.178849
H2    H     H_    0.986467 0.617481 0.594214 0.196092
H3    H     H_    0.425767 0.791395 0.767221 0.168196
H4    H     H_    0.325719 0.028035 0.115861 0.184639
H5    H     H_    0.590575 0.285189 0.109865 0.152264
H6    H     H_    0.701905 0.009537 0.489317 0.172673
H7    H     H_    0.298542 0.990536 0.517911 0.189852
H8    H     H_    0.013554 0.382547 0.405774 0.194703
N1    N     N_2   0.950330 0.457950 0.466250 -0.166017
N2    N     N_2   0.049670 0.542050 0.533750 -0.160625
O1    O     O_R   0.389250 0.738570 0.508280 -0.580611
O2    O     O_R   0.678390 0.711630 0.486650 -0.635583
O3    O     O_R   0.355400 0.513470 0.694050 -0.608368
O4    O     O_R   0.644540 0.486530 0.672420 -0.635426
O5    O     O_R   0.321610 0.288370 0.513350 -0.624907
O6    O     O_R   0.610750 0.261430 0.491720 -0.621537
O7    O     O_R   0.355460 0.513470 0.327580 -0.584403
O8    O     O_R   0.644600 0.486530 0.305950 -0.623579
Zn1   Zn    Zn3+2 0.306930 0.517990 0.514440 1.000567
Zn2   Zn    Zn3+2 0.693070 0.482010 0.485560 0.966412

loop_
_geom_bond_atom_site_label_1
_geom_bond_atom_site_label_2
_ccdc_geom_bond_type
C11   C12   A    
C6    C7    A    
C2    C15   S    
O4    Zn2   S    
C16   O4    A    
C9    C10   A    
C3    C13   S    
C3    O7    A    
C7    F2    S    
C2    O6    A    
O8    Zn2   S    
C7    C8    A    
C10   C16   S    
C16   O3    A    
C4    H3    S    
C12   H5    S    
C11   H1    S    
H8    N1    S    
C8    C13   A    
C3    O8    A    
N2    Zn1   S    
C2    O5    A    
C1    O1    A    
C1    O2    A    
O7    Zn1   S    
C5    C6    A    
C15   H7    S    
C5    F1    S    
C10   C11   A    
N1    Zn2   S    
C14   H6    S    
C6    H4    S    
C12   C13   A    
O2    Zn2   S    
O1    Zn1   S    
N1    N2    D    
C14   C15   D    
C8    C9    A    
C1    C14   S    
H2    N2    S    
C4    C9    A    
O6    Zn2   S    
O5    Zn1   S    
O3    Zn1   S    
C4    C5    A    
