data_mof_unit_53272.cif
_audit_creation_date              2013-03-05T16:00:47-0500
_audit_creation_method            fapswitch 2.2
_symmetry_space_group_name_H-M    P1
_symmetry_Int_Tables_number       1
_space_group_crystal_system       triclinic
_cell_length_a                    20.76776
_cell_length_b                    21.622605
_cell_length_c                    14.167119
_cell_angle_alpha                 89.589398
_cell_angle_beta                  88.481982
_cell_angle_gamma                 90.073488
_cell_volume                      6359.3853856

loop_
_atom_site_label
_atom_site_type_symbol
_atom_site_description
_atom_site_fract_x
_atom_site_fract_y
_atom_site_fract_z
_atom_type_partial_charge
O1    O     O_R   0.066090 0.433930 0.580280 -0.563238
O2    O     O_R   0.933910 0.566070 0.419720 -0.567165
O3    O     O_R   0.933910 0.566070 0.580280 -0.570048
O4    O     O_R   0.066090 0.433930 0.419720 -0.594708
O5    O     O_R   0.933910 0.433930 0.419720 -0.560159
O6    O     O_R   0.066090 0.566070 0.580280 -0.572379
O7    O     O_R   0.066090 0.566070 0.419720 -0.559107
O8    O     O_R   0.933910 0.433930 0.580280 -0.580635
O9    O     O_R   0.566090 0.933930 0.580280 -0.563229
O10   O     O_R   0.433910 0.066070 0.419720 -0.567092
O11   O     O_R   0.433910 0.066070 0.580280 -0.570236
O12   O     O_R   0.566090 0.933930 0.419720 -0.594702
O13   O     O_R   0.433910 0.933930 0.419720 -0.560146
O14   O     O_R   0.566090 0.066070 0.580280 -0.572472
O15   O     O_R   0.566090 0.066070 0.419720 -0.559047
O16   O     O_R   0.433910 0.933930 0.580280 -0.580620
C1    C     C_R   0.085517 0.412737 0.499867 0.947189
C2    C     C_R   0.914177 0.587132 0.500266 0.966566
C3    C     C_R   0.914856 0.412395 0.500553 0.948189
C4    C     C_R   0.086203 0.586635 0.499208 0.968102
C5    C     C_R   0.585515 0.912736 0.499867 0.947192
C6    C     C_R   0.414183 0.087137 0.500266 0.966282
C7    C     C_R   0.414859 0.912393 0.500553 0.948238
C8    C     C_R   0.586210 0.086628 0.499208 0.967751
Zn1   Zn    Zn3+2 0.000000 0.500000 0.607200 1.120351
Zn2   Zn    Zn3+2 0.000000 0.500000 0.392800 1.124223
Zn3   Zn    Zn3+2 0.500000 0.000000 0.607200 1.120300
Zn4   Zn    Zn3+2 0.500000 1.000000 0.392800 1.124232
C9    C     C_R   0.123770 0.686749 0.556200 0.282269
C10   C     C_R   0.881058 0.309014 0.449712 0.315590
C11   C     C_R   0.874273 0.686059 0.436494 0.291074
C12   C     C_R   0.126352 0.315396 0.566461 0.314763
C13   C     C_R   0.623809 0.186706 0.556228 0.282401
C14   C     C_R   0.381055 0.809013 0.449721 0.315576
C15   C     C_R   0.374276 0.186063 0.436484 0.291144
C16   C     C_R   0.626344 0.815389 0.566457 0.314765
C17   C     C_R   0.133026 0.635214 0.498285 -0.139614
C18   C     C_R   0.868686 0.363148 0.500831 -0.134051
C19   C     C_R   0.868016 0.636579 0.500683 -0.143922
C20   C     C_R   0.132226 0.364029 0.500795 -0.128126
C21   C     C_R   0.633054 0.135187 0.498291 -0.139641
C22   C     C_R   0.368686 0.863151 0.500829 -0.134058
C23   C     C_R   0.368024 0.136586 0.500683 -0.143995
C24   C     C_R   0.632221 0.864024 0.500795 -0.128140
C25   C     C_R   0.189142 0.627335 0.444027 -0.237520
C26   C     C_R   0.810864 0.372313 0.549764 -0.277925
C27   C     C_R   0.816201 0.632412 0.564445 -0.239939
C28   C     C_R   0.185787 0.369907 0.440815 -0.298443
C29   C     C_R   0.689166 0.127312 0.444025 -0.237434
C30   C     C_R   0.310857 0.872332 0.549735 -0.277906
C31   C     C_R   0.316213 0.132424 0.564454 -0.239892
C32   C     C_R   0.685781 0.869900 0.440812 -0.298441
C33   C     C_R   0.238840 0.670507 0.447479 0.088522
C34   C     C_R   0.763104 0.327185 0.550573 0.099357
C35   C     C_R   0.768747 0.677706 0.566838 0.098460
C36   C     C_R   0.235406 0.326814 0.442680 0.066969
C37   C     C_R   0.738864 0.170486 0.447483 0.088493
C38   C     C_R   0.263085 0.827216 0.550524 0.099365
C39   C     C_R   0.268762 0.177721 0.566852 0.098448
C40   C     C_R   0.735398 0.826804 0.442674 0.066971
C41   C     C_R   0.228068 0.725194 0.500401 0.010168
C42   C     C_R   0.775234 0.271487 0.500740 0.007893
C43   C     C_R   0.775584 0.729159 0.504549 0.008680
C44   C     C_R   0.228578 0.275444 0.504973 0.026980
C45   C     C_R   0.728096 0.225163 0.500433 0.010150
C46   C     C_R   0.275213 0.771511 0.500710 0.007883
C47   C     C_R   0.275596 0.229171 0.504560 0.008677
C48   C     C_R   0.728566 0.775432 0.504962 0.026979
C49   C     C_R   0.170008 0.733564 0.553367 -0.024319
C50   C     C_R   0.834117 0.262515 0.449993 -0.019541
C51   C     C_R   0.828888 0.733805 0.440545 -0.043643
C52   C     C_R   0.174270 0.270060 0.567203 -0.021571
C53   C     C_R   0.670046 0.233517 0.553430 -0.024314
C54   C     C_R   0.334105 0.762522 0.449993 -0.019540
C55   C     C_R   0.328895 0.233813 0.440546 -0.043592
C56   C     C_R   0.674258 0.770048 0.567191 -0.021567
C57   C     C_R   0.298605 0.660910 0.399280 0.151100
C58   C     C_R   0.703308 0.336503 0.598692 0.156587
C59   C     C_R   0.714364 0.672713 0.628888 0.155749
C60   C     C_R   0.291323 0.334107 0.383992 0.145584
C61   C     C_R   0.798623 0.160904 0.399261 0.151098
C62   C     C_R   0.203279 0.836556 0.598598 0.156567
C63   C     C_R   0.214381 0.172731 0.628908 0.155758
C64   C     C_R   0.791316 0.834098 0.383987 0.145596
C65   C     C_R   0.844910 0.207583 0.400106 -0.164726
C66   C     C_R   0.158143 0.789093 0.600605 -0.174299
C67   C     C_R   0.167743 0.218690 0.627222 -0.168824
C68   C     C_R   0.836902 0.786520 0.383144 -0.134170
C69   C     C_R   0.344898 0.707583 0.400125 -0.164733
C70   C     C_R   0.658191 0.289023 0.600733 -0.174377
C71   C     C_R   0.667727 0.718674 0.627203 -0.168824
C72   C     C_R   0.336909 0.286528 0.383145 -0.134094
H1    H     H_    0.193798 0.586227 0.401648 0.218531
H2    H     H_    0.803590 0.415831 0.585176 0.207550
H3    H     H_    0.812504 0.591962 0.609264 0.224196
H4    H     H_    0.188727 0.409672 0.394648 0.205847
H5    H     H_    0.693817 0.086211 0.401629 0.218547
H6    H     H_    0.303585 0.915855 0.585133 0.207538
H7    H     H_    0.312516 0.091974 0.609273 0.224216
H8    H     H_    0.688723 0.909667 0.394648 0.205846
H9    H     H_    0.889679 0.200428 0.360851 0.201526
H10   H     H_    0.112735 0.796495 0.638155 0.196508
H11   H     H_    0.125077 0.212819 0.671875 0.197637
H12   H     H_    0.879534 0.790598 0.338417 0.205103
H13   H     H_    0.389671 0.700417 0.360888 0.201529
H14   H     H_    0.612802 0.296392 0.638352 0.196518
H15   H     H_    0.625059 0.712803 0.671853 0.197634
H16   H     H_    0.379541 0.290606 0.338417 0.205102
C73   C     C_R   0.943144 0.504663 0.801239 0.367730
C74   C     C_R   0.056723 0.507684 0.199254 0.366843
C75   C     C_R   0.057217 0.496770 0.796922 0.343825
C76   C     C_R   0.943113 0.494515 0.203215 0.354957
C77   C     C_R   0.443144 0.004663 0.801238 0.367730
C78   C     C_R   0.556722 0.007684 0.199253 0.366848
C79   C     C_R   0.557217 0.996770 0.796922 0.343927
C80   C     C_R   0.443113 0.994513 0.203215 0.354943
N1    N     N_R   0.000000 0.500000 0.750030 -0.195670
N2    N     N_R   0.000000 0.500000 0.249970 -0.192573
N3    N     N_R   0.500000 1.000000 0.750030 -0.195666
N4    N     N_R   0.500000 0.000000 0.249970 -0.192569
C81   C     C_R   0.058557 0.505615 0.896891 -0.121572
C82   C     C_R   0.941631 0.502380 0.103059 -0.127905
C83   C     C_R   0.941824 0.499114 0.901786 -0.101915
C84   C     C_R   0.058939 0.502928 0.098606 -0.108127
C85   C     C_R   0.558556 0.005614 0.896891 -0.121557
C86   C     C_R   0.441631 0.002378 0.103059 -0.127897
C87   C     C_R   0.441823 0.999112 0.901785 -0.101915
C88   C     C_R   0.558938 0.002928 0.098605 -0.108131
C89   C     C_R   0.000243 0.502785 0.949730 -0.013886
C90   C     C_R   0.000316 0.502824 0.050509 -0.011649
C91   C     C_R   0.500243 0.002783 0.949729 -0.013891
C92   C     C_R   0.500315 0.002822 0.050509 -0.011645
C93   C     C_R   0.116678 0.513972 0.945971 0.159285
C94   C     C_R   0.883237 0.506376 0.053366 0.151710
C95   C     C_R   0.883796 0.491756 0.956247 0.213686
C96   C     C_R   0.117638 0.500457 0.044064 0.201200
C97   C     C_R   0.616677 0.013972 0.945971 0.159273
C98   C     C_R   0.383236 0.006373 0.053366 0.151704
C99   C     C_R   0.383794 0.991755 0.956246 0.213676
C100  C     C_R   0.617637 0.000457 0.044063 0.201198
N5    N     N_R   0.068141 0.691027 0.618493 0.201001
O17   O     O_R   0.010563 0.693146 0.584802 -0.369503
O18   O     O_R   0.075172 0.691491 0.709479 -0.383687
N6    N     N_R   0.941252 0.301342 0.398767 0.189473
O19   O     O_R   0.983146 0.261382 0.428075 -0.381901
O20   O     O_R   0.949311 0.326171 0.315406 -0.342490
N7    N     N_R   0.925590 0.687071 0.366318 0.201306
O21   O     O_R   0.985299 0.690799 0.391109 -0.353164
O22   O     O_R   0.912514 0.682437 0.277328 -0.387851
N8    N     N_R   0.072134 0.312297 0.631954 0.204145
O23   O     O_R   0.081153 0.313554 0.722449 -0.351957
O24   O     O_R   0.013627 0.311967 0.601530 -0.379610
N9    N     N_R   0.568164 0.190982 0.618475 0.200888
O25   O     O_R   0.510629 0.193679 0.584669 -0.369471
O26   O     O_R   0.575137 0.191109 0.709485 -0.383560
N10   N     N_R   0.441255 0.801328 0.398797 0.189466
O27   O     O_R   0.483134 0.761357 0.428116 -0.381903
O28   O     O_R   0.449336 0.826163 0.315443 -0.342501
N11   N     N_R   0.425576 0.187062 0.366280 0.201318
O29   O     O_R   0.485296 0.190725 0.391036 -0.352992
O30   O     O_R   0.412470 0.182455 0.277296 -0.387898
N12   N     N_R   0.572130 0.812295 0.631957 0.204153
O31   O     O_R   0.581156 0.813544 0.722450 -0.351957
O32   O     O_R   0.513621 0.811976 0.601542 -0.379610
C101  C     C_3   0.316204 0.601452 0.348399 -0.426764
C102  C     C_3   0.297837 0.604616 0.244997 -0.784318
H17   H     H_    0.246237 0.616304 0.238936 0.307479
H18   H     H_    0.327071 0.640485 0.207106 0.260707
H19   H     H_    0.306946 0.559200 0.211091 0.239959
H20   H     H_    0.368990 0.593323 0.351319 0.215381
H21   H     H_    0.294037 0.560401 0.383665 0.208520
C103  C     C_3   0.685075 0.396127 0.647956 -0.428837
C104  C     C_3   0.713971 0.398869 0.745502 -0.818319
H22   H     H_    0.696717 0.359136 0.789460 0.267060
H23   H     H_    0.767156 0.397452 0.739310 0.289747
H24   H     H_    0.699422 0.442330 0.781250 0.249682
H25   H     H_    0.700232 0.436477 0.604199 0.213404
H26   H     H_    0.631869 0.400146 0.656711 0.216268
C105  C     C_3   0.701676 0.618075 0.694420 -0.402946
C106  C     C_3   0.671858 0.564795 0.640937 -0.846020
H27   H     H_    0.627385 0.580370 0.605977 0.272622
H28   H     H_    0.706336 0.546864 0.586599 0.262551
H29   H     H_    0.658638 0.527179 0.691326 0.256508
H30   H     H_    0.745886 0.603088 0.729966 0.258091
H31   H     H_    0.667560 0.631168 0.752731 0.213508
C107  C     C_3   0.301642 0.392910 0.324659 -0.415999
C108  C     C_3   0.364758 0.397642 0.266878 -0.845271
H32   H     H_    0.406681 0.395484 0.313872 0.269608
H33   H     H_    0.367791 0.360261 0.213577 0.272845
H34   H     H_    0.366424 0.442707 0.228755 0.254103
H35   H     H_    0.261776 0.397262 0.274601 0.227223
H36   H     H_    0.299620 0.433391 0.372593 0.219228
C109  C     C_3   0.816220 0.101456 0.348350 -0.426775
C110  C     C_3   0.797842 0.104638 0.244954 -0.784315
H37   H     H_    0.746239 0.116323 0.238911 0.307474
H38   H     H_    0.827068 0.140516 0.207072 0.260711
H39   H     H_    0.806951 0.059229 0.211027 0.239953
H40   H     H_    0.869007 0.093330 0.351255 0.215377
H41   H     H_    0.794058 0.060397 0.383604 0.208518
C111  C     C_3   0.185060 0.896182 0.647871 -0.428862
C112  C     C_3   0.213944 0.898902 0.745429 -0.818168
H42   H     H_    0.196670 0.859169 0.789369 0.267090
H43   H     H_    0.267129 0.897469 0.739254 0.289719
H44   H     H_    0.199404 0.942362 0.781188 0.249656
H45   H     H_    0.200237 0.936531 0.604127 0.213394
H46   H     H_    0.131854 0.900219 0.656611 0.216233
C113  C     C_3   0.201688 0.118090 0.694434 -0.402954
C114  C     C_3   0.171848 0.064825 0.640946 -0.846065
H47   H     H_    0.127375 0.080416 0.606001 0.272621
H48   H     H_    0.206316 0.046894 0.586595 0.262555
H49   H     H_    0.158623 0.027207 0.691328 0.256516
H50   H     H_    0.245898 0.103088 0.729965 0.258093
H51   H     H_    0.167584 0.131188 0.752757 0.213511
C115  C     C_3   0.801635 0.892901 0.324656 -0.415996
C116  C     C_3   0.864751 0.897632 0.266874 -0.845296
H52   H     H_    0.906674 0.895474 0.313867 0.269593
H53   H     H_    0.867783 0.860251 0.213574 0.272847
H54   H     H_    0.866418 0.942697 0.228751 0.254110
H55   H     H_    0.761770 0.897254 0.274599 0.227227
H56   H     H_    0.799615 0.933381 0.372591 0.219220
N13   N     N_R   0.886972 0.525891 0.755198 0.206903
O33   O     O_R   0.856226 0.489876 0.698931 -0.463465
O34   O     O_R   0.861348 0.578305 0.780346 -0.440597
N14   N     N_R   0.111098 0.531523 0.246224 0.208987
O35   O     O_R   0.144718 0.496373 0.300830 -0.474184
O36   O     O_R   0.129242 0.588251 0.229819 -0.419697
N15   N     N_R   0.114047 0.474457 0.748395 0.214609
O37   O     O_R   0.143895 0.508231 0.684877 -0.406903
O38   O     O_R   0.142560 0.425256 0.780037 -0.362653
N16   N     N_R   0.886855 0.471909 0.253255 0.214399
O39   O     O_R   0.861167 0.419807 0.228307 -0.373646
O40   O     O_R   0.856050 0.506477 0.313964 -0.403976
N17   N     N_R   0.386973 0.025893 0.755197 0.206901
O41   O     O_R   0.356225 0.989879 0.698930 -0.463438
O42   O     O_R   0.361354 0.078309 0.780342 -0.440628
N18   N     N_R   0.611099 0.031520 0.246224 0.208992
O43   O     O_R   0.644718 0.996368 0.300828 -0.474186
O44   O     O_R   0.629245 0.088247 0.229819 -0.419693
N19   N     N_R   0.614047 0.974457 0.748395 0.214597
O45   O     O_R   0.643895 0.008231 0.684879 -0.406838
O46   O     O_R   0.642559 0.925254 0.780035 -0.362670
N20   N     N_R   0.386856 0.971906 0.253256 0.214393
O47   O     O_R   0.361171 0.919801 0.228312 -0.373657
O48   O     O_R   0.356050 0.006473 0.313965 -0.403958
C117  C     C_3   0.174709 0.545699 0.897931 -0.374960
C118  C     C_3   0.199297 0.600611 0.954528 -0.828318
H57   H     H_    0.159132 0.632901 0.971544 0.286952
H58   H     H_    0.221546 0.585242 0.020957 0.256485
H59   H     H_    0.236555 0.625992 0.911928 0.260932
H60   H     H_    0.214220 0.512205 0.884053 0.233827
H61   H     H_    0.161164 0.566128 0.829461 0.260742
C119  C     C_3   0.822548 0.534160 0.098948 -0.375642
C120  C     C_3   0.792392 0.584399 0.037489 -0.817179
H62   H     H_    0.829106 0.619674 0.016514 0.288591
H63   H     H_    0.771460 0.564560 0.973179 0.257290
H64   H     H_    0.752988 0.607596 0.078163 0.260026
H65   H     H_    0.786513 0.497583 0.116294 0.235280
H66   H     H_    0.834442 0.558145 0.164978 0.264154
C121  C     C_3   0.827265 0.454957 0.919579 -0.417417
C122  C     C_3   0.848381 0.389233 0.894112 -0.799026
H67   H     H_    0.878313 0.389335 0.828023 0.277960
H68   H     H_    0.876505 0.368608 0.952076 0.275386
H69   H     H_    0.805553 0.359527 0.884104 0.250866
H70   H     H_    0.788436 0.449991 0.974327 0.214892
H71   H     H_    0.804308 0.478152 0.859581 0.253566
C123  C     C_3   0.178928 0.472475 0.083275 -0.407154
C124  C     C_3   0.167681 0.405491 0.115060 -0.785824
H72   H     H_    0.136461 0.403133 0.179724 0.277790
H73   H     H_    0.144695 0.378886 0.058164 0.273776
H74   H     H_    0.214453 0.383265 0.130003 0.245263
H75   H     H_    0.217944 0.470668 0.028536 0.211262
H76   H     H_    0.199102 0.500439 0.140352 0.249869
C125  C     C_3   0.674707 0.045700 0.897931 -0.374930
C126  C     C_3   0.699295 0.100612 0.954529 -0.828334
H77   H     H_    0.659130 0.132901 0.971546 0.286950
H78   H     H_    0.721545 0.085242 0.020957 0.256484
H79   H     H_    0.736552 0.125994 0.911928 0.260923
H80   H     H_    0.714219 0.012207 0.884051 0.233814
H81   H     H_    0.661162 0.066129 0.829461 0.260786
C127  C     C_3   0.322548 0.034159 0.098949 -0.375643
C128  C     C_3   0.292396 0.084403 0.037496 -0.817162
H82   H     H_    0.329113 0.119676 0.016523 0.288594
H83   H     H_    0.271462 0.064569 0.973184 0.257279
H84   H     H_    0.252995 0.107602 0.078172 0.260026
H85   H     H_    0.286510 0.997583 0.116292 0.235268
H86   H     H_    0.334443 0.058141 0.164982 0.264162
C129  C     C_3   0.327255 0.954969 0.919570 -0.417395
C130  C     C_3   0.348359 0.889245 0.894079 -0.799006
H87   H     H_    0.378293 0.889352 0.827991 0.277969
H88   H     H_    0.376477 0.868605 0.952037 0.275375
H89   H     H_    0.305525 0.859550 0.884056 0.250864
H90   H     H_    0.288429 0.950000 0.974321 0.214884
H91   H     H_    0.304298 0.978175 0.859582 0.253566
C131  C     C_3   0.678928 0.972475 0.083272 -0.407151
C132  C     C_3   0.667681 0.905489 0.115055 -0.785824
H92   H     H_    0.636461 0.903131 0.179720 0.277790
H93   H     H_    0.644694 0.878886 0.058159 0.273777
H94   H     H_    0.714453 0.883264 0.129997 0.245262
H95   H     H_    0.717944 0.970668 0.028533 0.211259
H96   H     H_    0.699102 0.000437 0.140350 0.249871

loop_
_geom_bond_atom_site_label_1
_geom_bond_atom_site_label_2
_geom_bond_distance
_ccdc_geom_bond_type
C103  H25   1.107155 S    
C101  H21   1.109004 S    
C110  H38   1.110796 S    
C117  H60   1.109730 S    
C101  C102  1.524584 S    
C8    C21   1.430228 S    
C84   C90   1.410845 A    
O5    Zn2   2.007403 S    
C75   C81   1.431473 A    
C126  H79   1.110651 S    
C40   C64   1.418171 A    
C112  H42   1.110884 S    
C63   C67   1.389091 A    
N19   O45   1.298898 A    
C14   C22   1.401293 A    
C94   C119  1.526722 S    
C116  H52   1.110771 S    
C74   N14   1.423718 S    
N14   O35   1.298143 A    
C74   N2    1.372765 A    
C77   C87   1.428185 A    
C98   C99   1.413703 A    
C73   N1    1.373564 A    
C12   C52   1.397958 A    
C104  H22   1.110886 S    
O10   C6    1.288652 A    
C128  H84   1.110628 S    
C131  H96   1.104213 S    
C14   N10   1.437223 S    
C57   C69   1.393260 A    
C125  H81   1.106273 S    
O7    Zn2   2.025028 S    
O12   Zn4   2.023657 S    
C13   C53   1.393926 A    
C54   C69   1.401729 A    
C19   C27   1.388944 A    
N10   O27   1.300720 A    
N7    O22   1.301197 A    
C103  C104  1.522647 S    
C39   C63   1.416244 A    
C53   C70   1.397749 A    
N12   O31   1.301039 A    
C115  H55   1.107960 S    
N5    O18   1.301201 A    
N11   O29   1.300270 A    
C100  C131  1.526247 S    
C120  H62   1.111170 S    
C124  H74   1.109016 S    
C13   N9    1.438447 S    
C110  H39   1.110523 S    
O2    C2    1.288646 A    
C41   C49   1.415735 A    
C109  H40   1.112284 S    
C46   C54   1.416321 A    
C111  H45   1.107150 S    
C27   H3    1.078584 S    
C113  H51   1.112392 S    
C45   C53   1.415722 A    
N18   O43   1.298144 A    
C10   C18   1.401301 A    
O3    C2    1.295380 A    
C96   C123  1.526248 S    
C126  H77   1.111143 S    
O14   C8    1.287692 A    
C107  H35   1.107961 S    
N15   O37   1.298900 A    
C20   C28   1.386926 A    
C127  H85   1.109922 S    
C82   C94   1.420702 A    
C108  H34   1.110758 S    
C63   C113  1.515792 S    
C32   C40   1.390810 A    
C130  H87   1.110042 S    
C74   C84   1.429857 A    
C23   C31   1.388950 A    
C77   N3    1.373563 A    
C33   C41   1.419478 A    
C41   C46   1.399800 A    
C38   C46   1.419800 A    
N7    O21   1.300267 A    
C106  H28   1.109683 S    
C111  C112  1.522671 S    
C35   C43   1.419686 A    
C93   C96   1.418693 A    
N20   O48   1.299598 A    
C36   C44   1.418314 A    
O13   Zn4   2.007403 S    
O11   Zn3   2.023657 S    
O14   Zn3   2.007400 S    
N9    O26   1.301300 A    
C65   H9    1.082514 S    
C16   C56   1.397966 A    
N17   O41   1.297769 A    
C15   C55   1.399287 A    
C59   C71   1.389099 A    
C116  H53   1.110768 S    
C106  H29   1.107806 S    
C131  C132  1.529498 S    
C11   N7    1.438116 S    
C24   C32   1.386922 A    
O16   Zn3   2.025031 S    
C11   C51   1.399277 A    
C110  H37   1.106745 S    
C117  H61   1.106272 S    
C107  C108  1.529807 S    
C25   H1    1.079207 S    
C80   C86   1.429013 A    
C117  C118  1.532075 S    
C83   C89   1.408473 A    
C102  H18   1.110795 S    
O8    Zn1   2.025031 S    
C112  H43   1.106172 S    
C42   C50   1.416316 A    
C118  H59   1.110653 S    
C87   C99   1.421774 A    
C122  H69   1.109184 S    
C88   C92   1.410848 A    
C132  H93   1.111233 S    
C21   C29   1.390311 A    
C10   C50   1.399458 A    
O13   C7    1.285569 A    
C64   C115  1.530865 S    
C119  H65   1.109922 S    
N20   O47   1.301110 A    
C132  H94   1.109019 S    
N12   O32   1.299992 A    
C104  H23   1.106170 S    
C31   H7    1.078582 S    
C97   C100  1.418691 A    
C118  H58   1.108403 S    
C30   H6    1.078456 S    
O8    C3    1.296121 A    
C18   C26   1.385766 A    
C78   C88   1.429858 A    
C84   C96   1.427191 A    
C119  H66   1.106307 S    
C113  C114  1.523260 S    
C30   C38   1.390269 A    
C130  H89   1.109188 S    
C71   H15   1.081807 S    
O3    Zn1   2.023657 S    
C127  C128  1.532142 S    
C70   H14   1.083030 S    
N6    O20   1.300460 A    
C121  H70   1.108525 S    
Zn4   N4    2.023491 S    
C116  H54   1.110758 S    
C114  H47   1.111046 S    
C132  H92   1.109061 S    
C120  H63   1.108680 S    
C115  C116  1.529808 S    
C73   C83   1.428184 A    
C78   N18   1.423717 S    
C34   C42   1.419806 A    
C85   C97   1.420839 A    
C128  H82   1.111167 S    
C62   C66   1.388675 A    
C61   C109  1.518743 S    
O12   C5    1.295883 A    
C32   H8    1.077269 S    
C58   C70   1.388689 A    
C80   N4    1.375066 A    
N14   O36   1.300240 A    
C1    C20   1.432992 S    
C130  H88   1.111392 S    
C56   C71   1.398279 A    
C60   C72   1.398888 A    
C97   C125  1.527734 S    
C33   C57   1.416913 A    
C2    C19   1.436877 S    
C44   C47   1.398887 A    
C62   C111  1.514186 S    
N13   O33   1.297767 A    
C121  H71   1.103322 S    
C3    C18   1.431927 S    
Zn2   N2    2.023491 S    
C5    C24   1.432997 S    
C35   C59   1.416242 A    
C85   C91   1.407786 A    
C39   C47   1.419680 A    
C129  C130  1.530574 S    
C26   H2    1.078455 S    
C86   C92   1.411191 A    
C36   C60   1.418169 A    
C124  H72   1.109060 S    
C9    N5    1.438575 S    
C26   C34   1.390278 A    
C58   C103  1.514182 S    
C125  C126  1.532074 S    
C99   C129  1.522234 S    
N19   O46   1.300864 A    
C78   N4    1.372763 A    
C48   C56   1.417168 A    
C115  H56   1.111842 S    
N16   O40   1.299595 A    
C7    C22   1.431900 S    
C40   C48   1.418317 A    
C43   C51   1.415264 A    
C55   C72   1.402604 A    
C22   C30   1.385745 A    
C67   H11   1.081808 S    
O4    C1    1.295882 A    
C122  H68   1.111393 S    
O15   C8    1.293045 A    
N15   O38   1.300865 A    
C14   C54   1.399457 A    
O7    C4    1.293050 A    
O16   C7    1.296117 A    
C79   N3    1.378245 A    
C12   C20   1.402069 A    
C102  H17   1.106742 S    
C9    C17   1.398988 A    
C112  H44   1.109197 S    
N8    O24   1.299993 A    
C16   C24   1.402076 A    
C47   C55   1.415265 A    
C10   N6    1.437221 S    
C17   C25   1.390315 A    
C121  C122  1.530579 S    
C66   H10   1.083005 S    
C52   C67   1.398267 A    
C15   C23   1.402854 A    
C106  H27   1.111046 S    
O9    Zn3   2.013787 S    
C27   C35   1.390237 A    
C89   C90   1.427808 A    
C105  H30   1.106581 S    
C104  H24   1.109200 S    
O10   Zn4   2.013787 S    
C101  H20   1.112285 S    
C28   C36   1.390814 A    
C118  H57   1.111141 S    
C86   C98   1.420711 A    
C111  H46   1.112223 S    
C28   H4    1.077269 S    
C42   C45   1.399789 A    
C98   C127  1.526726 S    
N8    O23   1.301037 A    
C95   C121  1.522221 S    
C103  H26   1.112225 S    
C64   C68   1.398884 A    
C73   N13   1.426332 S    
C81   C89   1.407785 A    
N6    O19   1.300719 A    
C12   N8    1.441097 S    
Zn1   N1    2.023490 S    
O2    Zn2   2.013787 S    
C120  H64   1.110627 S    
O4    Zn2   2.023657 S    
C113  H50   1.106576 S    
O1    Zn1   2.013787 S    
C94   C95   1.413694 A    
O5    C3    1.285578 A    
Zn3   N3    2.023490 S    
C105  C106  1.523270 S    
C128  H83   1.108678 S    
O6    C4    1.287694 A    
C76   C82   1.429010 A    
C43   C48   1.398883 A    
O11   C6    1.295379 A    
O1    C1    1.286153 A    
C125  H80   1.109731 S    
C79   C85   1.431468 A    
C80   N20   1.433953 S    
C75   N1    1.378251 A    
C123  H75   1.107559 S    
C75   N15   1.435825 S    
C69   H13   1.082512 S    
C87   C91   1.408480 A    
C38   C62   1.416018 A    
N11   O30   1.301200 A    
C88   C100  1.427190 A    
C13   C21   1.398864 A    
C131  H95   1.107562 S    
N13   O34   1.300688 A    
C109  H41   1.109006 S    
N5    O17   1.299926 A    
C122  H67   1.110044 S    
C76   N2    1.375064 A    
C4    C17   1.430247 S    
C124  H73   1.111236 S    
O9    C5    1.286153 A    
O15   Zn4   2.025028 S    
C77   N17   1.426327 S    
C83   C95   1.421765 A    
C16   N12   1.441094 S    
C114  H49   1.107800 S    
C25   C33   1.392812 A    
N10   O28   1.300462 A    
C34   C58   1.416041 A    
N18   O44   1.300238 A    
C105  H31   1.112391 S    
C50   C65   1.401739 A    
C37   C61   1.416907 A    
C44   C52   1.417168 A    
C107  H36   1.111842 S    
N16   O39   1.301109 A    
C127  H86   1.106305 S    
C108  H33   1.110769 S    
C15   N11   1.438131 S    
C123  C124  1.529500 S    
C76   N16   1.433954 S    
C29   H5    1.079204 S    
C51   C68   1.402600 A    
O6    Zn1   2.007400 S    
C129  H91   1.103327 S    
C29   C37   1.392847 A    
C108  H32   1.110771 S    
C59   C105  1.515805 S    
C31   C39   1.390236 A    
C79   N19   1.435825 S    
C102  H19   1.110521 S    
C114  H48   1.109684 S    
C109  C110  1.524584 S    
N17   O42   1.300688 A    
C11   C19   1.402841 A    
C60   C107  1.530863 S    
C129  H90   1.108525 S    
C9    C49   1.394008 A    
C123  H76   1.104212 S    
C81   C93   1.420840 A    
N9    O25   1.300221 A    
C72   H16   1.078175 S    
C57   C101  1.518748 S    
C68   H12   1.078175 S    
C82   C90   1.411193 A    
C6    C23   1.436886 S    
C61   C65   1.393269 A    
C49   C66   1.397773 A    
C91   C92   1.427806 A    
C93   C117  1.527734 S    
C119  C120  1.532141 S    
C37   C45   1.419497 A    
C126  H78   1.108403 S    
