data_mof_unit_38606.cif
_audit_creation_date              2012-12-11T16:28:21-0500
_audit_creation_method            fapswitch 2.2
_symmetry_space_group_name_H-M    P1
_symmetry_Int_Tables_number       1
_space_group_crystal_system       triclinic
_cell_length_a                    17.051936
_cell_length_b                    7.311662
_cell_length_c                    14.580185
_cell_angle_alpha                 90.000084
_cell_angle_beta                  94.771069
_cell_angle_gamma                 89.999959
_cell_volume                      1811.52939306

loop_
_atom_site_label
_atom_site_type_symbol
_atom_type_description
_atom_site_fract_x
_atom_site_fract_y
_atom_site_fract_z
_atom_type_partial_charge
O1    O     O_R   0.663460 0.361760 0.165970 -0.527177
O2    O     O_R   0.336540 0.638240 0.834030 -0.532634
O3    O     O_R   0.836540 0.861760 0.334030 -0.527177
O4    O     O_R   0.163460 0.138240 0.665970 -0.532642
O5    O     O_R   0.827100 0.689870 0.163730 -0.515535
O6    O     O_R   0.172900 0.310130 0.836270 -0.525272
O7    O     O_R   0.672900 0.189870 0.336270 -0.515530
O8    O     O_R   0.327100 0.810130 0.663730 -0.525263
C1    C     C_R   0.853221 0.523269 0.143778 0.793768
C2    C     C_R   0.146782 0.476727 0.856227 0.794066
C3    C     C_R   0.646778 0.023269 0.356222 0.793764
C4    C     C_R   0.353218 0.976727 0.643773 0.794064
O9    O     O_R   0.663490 0.691370 0.155500 -0.536006
O10   O     O_R   0.336510 0.308630 0.844500 -0.530427
O11   O     O_R   0.836510 0.191370 0.344500 -0.536006
O12   O     O_R   0.163490 0.808630 0.655500 -0.530420
O13   O     O_R   0.671770 0.863320 0.325740 -0.523759
O14   O     O_R   0.328230 0.136680 0.674260 -0.514551
O15   O     O_R   0.828230 0.363320 0.174260 -0.523756
O16   O     O_R   0.171770 0.636680 0.825740 -0.514542
C5    C     C_R   0.638435 0.522781 0.130939 0.930604
C6    C     C_R   0.361640 0.477228 0.869017 0.931739
C7    C     C_R   0.861565 0.022781 0.369061 0.930608
C8    C     C_R   0.138361 0.977228 0.630982 0.931735
H1    H     H_    0.094522 0.981288 0.201349 0.183451
H2    H     H_    0.903704 0.965530 0.797576 0.182913
H3    H     H_    0.405477 0.481274 0.298650 0.183451
H4    H     H_    0.596295 0.465578 0.702421 0.182905
O17   O     O_3   0.752910 0.528800 0.305860 -0.386747
O18   O     O_3   0.247090 0.471200 0.694140 -0.387486
O19   O     O_3   0.747090 0.028800 0.194140 -0.386749
O20   O     O_3   0.252910 0.971200 0.805860 -0.387487
V1    V     V_3+5 0.749460 0.803010 0.239640 1.569610
V2    V     V_3+5 0.250540 0.196990 0.760360 1.567017
V3    V     V_3+5 0.750540 0.303010 0.260360 1.569618
V4    V     V_3+5 0.249460 0.696990 0.739640 1.567039
C9    C     C_1   0.468805 0.994390 0.530099 0.028238
C10   C     C_1   0.531172 0.005608 0.469871 0.027264
C11   C     C_1   0.031195 0.494390 0.969901 0.028236
C12   C     C_1   0.968828 0.505608 0.030129 0.027259
C13   C     C_R   0.017640 0.000374 0.307283 0.529955
C14   C     C_R   0.981675 0.977767 0.692267 0.530974
C15   C     C_R   0.482360 0.500360 0.192717 0.529956
C16   C     C_R   0.518325 0.477802 0.807731 0.530969
C17   C     C_R   0.091535 0.989618 0.274962 -0.395293
C18   C     C_R   0.907568 0.982326 0.724488 -0.394422
C19   C     C_R   0.408465 0.489606 0.225037 -0.395293
C20   C     C_R   0.592432 0.482364 0.775510 -0.394407
C21   C     C_R   0.159663 0.990630 0.335436 0.308300
C22   C     C_R   0.840037 0.004910 0.664345 0.306410
C23   C     C_R   0.340338 0.490623 0.164563 0.308297
C24   C     C_R   0.659963 0.504936 0.835654 0.306422
C25   C     C_R   0.151810 0.989650 0.430511 0.490383
C26   C     C_R   0.848100 0.014605 0.569469 0.491830
C27   C     C_R   0.348190 0.489644 0.069488 0.490385
C28   C     C_R   0.651900 0.514622 0.930530 0.491797
C29   C     C_R   0.076450 0.993151 0.466612 -0.179846
C30   C     C_R   0.923427 0.007517 0.533377 -0.181130
C31   C     C_R   0.423550 0.493147 0.033387 -0.179846
C32   C     C_R   0.576573 0.507529 0.966621 -0.181122
C33   C     C_R   0.007923 0.002747 0.403406 -0.115404
C34   C     C_R   0.991793 0.991157 0.596468 -0.115357
C35   C     C_R   0.492077 0.502740 0.096593 -0.115406
C36   C     C_R   0.508207 0.491173 0.903531 -0.115354
C37   C     C_R   0.068083 0.986489 0.563314 -0.088054
C38   C     C_R   0.931802 0.013129 0.436680 -0.087919
C39   C     C_R   0.431918 0.486492 0.936685 -0.088055
C40   C     C_R   0.568198 0.513129 0.063319 -0.087919
C41   C     C_1   0.415959 0.985427 0.581514 -0.092823
C42   C     C_1   0.584025 0.014568 0.418466 -0.092072
C43   C     C_1   0.084040 0.485428 0.918486 -0.092823
C44   C     C_1   0.915974 0.514568 0.081534 -0.092071
F1    F     F_    0.219444 0.986041 0.486482 -0.723173
F2    F     F_    0.780686 0.029994 0.513690 -0.722254
F3    F     F_    0.280556 0.486039 0.013517 -0.723172
F4    F     F_    0.719314 0.530002 0.986309 -0.722252
O21   O     O_3   0.764178 0.998761 0.693617 -0.558214
C45   C     C_3   0.756831 0.087470 0.779134 0.059235
H5    H     H_    0.701686 0.167762 0.771024 0.180432
H6    H     H_    0.805243 0.185662 0.798992 0.163806
C46   C     C_3   0.746777 0.950087 0.856588 -0.360419
H7    H     H_    0.691703 0.871964 0.840002 0.201780
H8    H     H_    0.796956 0.853305 0.863690 0.225207
C47   C     C_3   0.740780 0.045816 0.948719 -0.669747
H9    H     H_    0.794074 0.129880 0.966983 0.242244
H10   H     H_    0.735523 0.941692 0.003306 0.245006
H11   H     H_    0.687786 0.134426 0.945595 0.214267
O22   O     O_3   0.235381 0.978536 0.305957 -0.558488
C48   C     C_3   0.244560 0.068067 0.221040 0.063418
H12   H     H_    0.301868 0.140395 0.228729 0.173301
H13   H     H_    0.199025 0.173934 0.202952 0.171388
C49   C     C_3   0.249179 0.930956 0.142277 -0.373304
H14   H     H_    0.303627 0.849078 0.155245 0.202053
H15   H     H_    0.197734 0.837615 0.138191 0.222725
C50   C     C_3   0.252266 0.026908 0.049774 -0.658202
H16   H     H_    0.199534 0.114592 0.034865 0.243732
H17   H     H_    0.253735 0.922746 0.994542 0.238607
H18   H     H_    0.306226 0.111800 0.049916 0.221235
O23   O     O_3   0.735823 0.498776 0.806382 -0.558212
C51   C     C_3   0.743173 0.587480 0.720864 0.059230
H19   H     H_    0.798321 0.667760 0.728973 0.180438
H20   H     H_    0.694764 0.685678 0.701002 0.163818
C52   C     C_3   0.753226 0.450091 0.643413 -0.360396
H21   H     H_    0.808282 0.371911 0.660019 0.201803
H22   H     H_    0.703029 0.353362 0.636285 0.225181
C53   C     C_3   0.759277 0.545815 0.551290 -0.669794
H23   H     H_    0.706018 0.629986 0.533014 0.242292
H24   H     H_    0.764510 0.441682 0.496701 0.245011
H25   H     H_    0.812305 0.634316 0.554435 0.214212
O24   O     O_3   0.264619 0.478534 0.194042 -0.558488
C54   C     C_3   0.255441 0.568068 0.278958 0.063420
H26   H     H_    0.198134 0.640399 0.271269 0.173303
H27   H     H_    0.300977 0.673932 0.297046 0.171385
C55   C     C_3   0.250820 0.430958 0.357722 -0.373305
H28   H     H_    0.196370 0.349085 0.344755 0.202049
H29   H     H_    0.302263 0.337612 0.361808 0.222728
C56   C     C_3   0.247735 0.526911 0.450224 -0.658201
H30   H     H_    0.300469 0.614590 0.465134 0.243731
H31   H     H_    0.246264 0.422751 0.505457 0.238606
H32   H     H_    0.193777 0.611811 0.450083 0.221239
F5    F     F_    0.956384 0.006709 0.241671 -0.694333
F6    F     F_    0.042604 0.955570 0.757354 -0.694922
F7    F     F_    0.543617 0.506691 0.258329 -0.694330
F8    F     F_    0.457395 0.455622 0.742642 -0.694921

loop_
_geom_bond_atom_site_label_1
_geom_bond_atom_site_label_2
_ccdc_geom_bond_type
C30   C34   A    
C16   C20   A    
C4    C41   S    
C10   C42   T    
O1    C5    A    
C28   F4    S    
C27   C31   A    
O3    C7    A    
C54   H26   S    
C1    C44   S    
C13   C33   A    
C46   H7    S    
C50   H18   S    
C15   C35   A    
O21   C45   S    
C16   C36   A    
O7    C3    A    
C14   F6    S    
C22   C26   A    
C7    C38   S    
C47   H10   S    
C9    C41   T    
C56   H31   S    
C14   C18   A    
O4    C8    A    
C45   H6    S    
C53   H23   S    
O3    V1    S    
H1    C17   S    
H3    C19   S    
O8    V4    S    
C13   F5    S    
O24   C54   S    
C51   H19   S    
C31   C39   A    
C26   F2    S    
C33   C38   A    
C30   C38   A    
H4    C20   S    
C50   H16   S    
C2    O16   A    
O5    V1    S    
O2    C6    A    
O19   V1    S    
C48   H13   S    
C14   C34   A    
C27   F3    S    
C2    C43   S    
O11   C7    A    
O12   C8    A    
C21   O22   S    
O13   V1    S    
O11   V3    S    
C46   H8    S    
C1    O15   A    
C55   H28   S    
O4    V2    S    
C3    C42   S    
C36   C39   A    
C47   H9    S    
C54   H27   S    
C56   H32   S    
C11   C12   S    
C25   C29   A    
C45   H5    S    
C19   C23   A    
C16   F8    S    
C49   C50   S    
O6    V2    S    
O20   V2    S    
C52   C53   S    
O5    C1    A    
C9    C10   S    
O23   C51   S    
C17   C21   A    
O8    C4    A    
C51   H20   S    
O9    C5    A    
C52   H22   S    
C48   C49   S    
O14   V2    S    
C8    C37   S    
C23   O24   S    
C5    C40   S    
C22   O21   S    
C15   F7    S    
C46   C47   S    
O1    V3    S    
C26   C30   A    
O2    V4    S    
O17   V3    S    
C35   C40   A    
C3    O13   A    
C11   C43   T    
C12   C44   T    
C34   C37   A    
O7    V3    S    
C25   F1    S    
C29   C37   A    
O10   V2    S    
C55   H29   S    
C50   H17   S    
C29   C33   A    
C47   H11   S    
C18   C22   A    
C24   O23   S    
C31   C35   A    
O18   V4    S    
C32   C36   A    
O10   C6    A    
O15   V3    S    
C56   H30   S    
O12   V4    S    
C45   C46   S    
C49   H15   S    
C53   H24   S    
C21   C25   A    
C49   H14   S    
C54   C55   S    
C23   C27   A    
C51   C52   S    
C6    C39   S    
C55   C56   S    
O6    C2    A    
H2    C18   S    
O16   V4    S    
C28   C32   A    
C20   C24   A    
O22   C48   S    
C32   C40   A    
O9    V1    S    
C4    O14   A    
C52   H21   S    
C13   C17   A    
C48   H12   S    
C15   C19   A    
C24   C28   A    
C53   H25   S    
