data_mof_unit_44161.cif
_audit_creation_date              2012-12-10T17:13:40-0500
_audit_creation_method            fapswitch 2.2
_symmetry_space_group_name_H-M    P1
_symmetry_Int_Tables_number       1
_space_group_crystal_system       triclinic
_cell_length_a                    27.498669
_cell_length_b                    10.623807
_cell_length_c                    10.018623
_cell_angle_alpha                 90.752483
_cell_angle_beta                  90.177089
_cell_angle_gamma                 90.278843
_cell_volume                      2926.54441882

loop_
_atom_site_label
_atom_site_type_symbol
_atom_type_description
_atom_site_fract_x
_atom_site_fract_y
_atom_site_fract_z
_atom_type_partial_charge
C1    C     C_R   0.502006 0.262405 0.498682 0.935979
C2    C     C_R   0.977788 0.453314 0.356342 0.041684
C3    C     C_R   0.974001 0.678384 0.416168 0.044376
C4    C     C_R   0.406144 0.503349 0.499653 0.866613
C5    C     C_R   0.950581 0.561154 0.392620 0.082835
C6    C     C_R   0.954910 0.334384 0.360886 -0.251281
C7    C     C_R   0.905366 0.323547 0.385148 -0.137217
C8    C     C_R   0.877345 0.431237 0.407759 -0.017814
C9    C     C_R   0.899880 0.550533 0.411158 -0.058444
C10   C     C_R   0.871982 0.658794 0.436823 -0.020326
C11   C     C_R   0.821738 0.646147 0.453615 0.479245
C12   C     C_R   0.272030 0.452087 0.545425 -0.138872
C13   C     C_R   0.827334 0.422509 0.430794 0.520342
C14   C     C_R   0.719742 0.475204 0.357557 0.053087
C15   C     C_R   0.669833 0.465089 0.376520 -0.292248
C16   C     C_R   0.503329 0.737452 0.501160 0.932252
C17   C     C_R   0.677154 0.550650 0.603987 0.120646
C18   C     C_R   0.727814 0.554045 0.585910 -0.105585
C19   C     C_R   0.748885 0.519162 0.464082 0.220300
C20   C     C_R   0.028106 0.466223 0.330979 -0.014598
C21   C     C_R   0.052112 0.574122 0.384111 0.047686
C22   C     C_R   0.025315 0.681280 0.426141 0.058553
C23   C     C_R   0.253325 0.553531 0.474694 0.233681
C24   C     C_R   0.056177 0.374080 0.261555 0.142917
C25   C     C_R   0.100603 0.779983 0.504138 -0.140551
C26   C     C_R   0.945135 0.786386 0.436764 -0.228759
C27   C     C_R   0.894791 0.776713 0.445067 -0.139324
C28   C     C_R   0.594326 0.501181 0.500174 0.856920
C29   C     C_R   0.050614 0.784481 0.483964 -0.222778
C30   C     C_2   0.525063 0.930779 0.394981 -0.144938
C31   C     C_2   0.515941 0.867390 0.506101 -0.406064
C32   C     C_2   0.531811 0.066657 0.402187 0.187729
C33   C     C_2   0.504930 0.129266 0.493899 -0.399718
C34   C     C_R   0.103079 0.572762 0.399709 -0.057978
C35   C     C_2   0.479769 0.585114 0.928082 -0.152641
C36   C     C_2   0.473385 0.572755 0.076178 -0.147037
C37   C     C_R   0.179966 0.465042 0.378906 0.524076
C38   C     C_R   0.176946 0.664900 0.490470 0.505360
C39   C     C_R   0.284531 0.643757 0.421632 -0.093358
C40   C     C_R   0.335027 0.632604 0.435121 0.104752
C41   C     C_R   0.322112 0.434528 0.555171 -0.065550
C42   C     C_R   0.339995 0.318202 0.618168 0.137748
C43   C     C_R   0.330241 0.295343 0.753218 -0.146093
C44   C     C_R   0.345044 0.182748 0.811169 -0.142892
C45   C     C_R   0.129876 0.468321 0.354683 -0.069542
C46   C     C_R   0.369247 0.091936 0.734512 -0.087910
C47   C     C_R   0.378670 0.113594 0.599803 -0.149490
C48   C     C_R   0.364361 0.226519 0.541704 -0.124548
C49   C     C_3   0.654182 0.599576 0.733041 -0.368221
C50   C     C_3   0.688575 0.663087 0.833874 -0.901456
C51   C     C_3   0.565350 0.132935 0.303950 -0.343035
C52   C     C_3   0.603053 0.047071 0.238069 -0.901850
C53   C     C_R   0.503118 0.373810 0.894620 0.283310
C54   C     C_R   0.460942 0.306986 0.930933 -0.118199
C55   C     C_R   0.463891 0.179920 0.964651 -0.161609
C56   C     C_R   0.106516 0.371852 0.282471 -0.149484
C57   C     C_R   0.508523 0.117830 0.959039 -0.134275
C58   C     C_R   0.550354 0.182845 0.920318 -0.168033
C59   C     C_R   0.547638 0.310146 0.887515 -0.165774
C60   C     C_R   0.740353 0.441634 0.224938 0.142503
C61   C     C_R   0.729614 0.324155 0.165259 -0.111874
C62   C     C_R   0.748850 0.292314 0.040340 -0.129699
C63   C     C_R   0.778936 0.377218 0.973962 -0.108979
C64   C     C_R   0.789633 0.494390 0.032099 -0.162396
C65   C     C_R   0.770107 0.527117 0.156395 -0.160779
C66   C     C_3   0.035051 0.286813 0.154235 -0.440169
C67   C     C_R   0.127048 0.673856 0.464418 -0.009487
C68   C     C_3   0.059232 0.306315 0.018626 -0.830615
C69   C     C_3   0.369457 0.734474 0.384224 -0.378405
C70   C     C_3   0.345800 0.858274 0.343271 -0.899841
C71   C     C_R   0.353734 0.523468 0.497328 -0.143207
C72   C     C_R   0.647901 0.503946 0.496714 -0.118703
H1    H     H_    0.268612 0.720691 0.367507 0.167305
H2    H     H_    0.481862 0.082136 0.565269 0.139733
H3    H     H_    0.465964 0.669735 0.882265 0.153655
H4    H     H_    0.445795 0.629220 0.124948 0.153463
H5    H     H_    0.531829 0.467396 0.105037 0.176770
H6    H     H_    0.127567 0.295959 0.238788 0.194092
H7    H     H_    0.647700 0.430060 0.294181 0.166775
H8    H     H_    0.889208 0.230377 0.386760 0.186250
H9    H     H_    0.975441 0.248229 0.351258 0.148005
H10   H     H_    0.311176 0.364601 0.813343 0.135443
H11   H     H_    0.337622 0.165735 0.915432 0.133234
H12   H     H_    0.118323 0.859407 0.553110 0.188845
H13   H     H_    0.380526 0.004610 0.779345 0.122616
H14   H     H_    0.396753 0.042411 0.540176 0.132384
H15   H     H_    0.371484 0.241573 0.436830 0.127659
H16   H     H_    0.715165 0.594193 0.872257 0.268147
H17   H     H_    0.707808 0.743700 0.787773 0.275703
H18   H     H_    0.667245 0.699382 0.919984 0.256476
H19   H     H_    0.626104 0.670267 0.707361 0.223523
H20   H     H_    0.636351 0.519796 0.784244 0.217637
H21   H     H_    0.623996 0.995812 0.315028 0.281570
H22   H     H_    0.585240 0.978773 0.168599 0.249298
H23   H     H_    0.960629 0.879707 0.445030 0.140380
H24   H     H_    0.628779 0.104941 0.179250 0.243728
H25   H     H_    0.543223 0.176929 0.224505 0.230681
H26   H     H_    0.585829 0.208556 0.357914 0.202618
H27   H     H_    0.425978 0.353376 0.932746 0.134654
H28   H     H_    0.431529 0.129272 0.994271 0.131569
H29   H     H_    0.510699 0.019361 0.984699 0.130381
H30   H     H_    0.584876 0.134527 0.915501 0.144394
H31   H     H_    0.580143 0.359266 0.856544 0.126019
H32   H     H_    0.706708 0.256856 0.215970 0.133746
H33   H     H_    0.740499 0.201651 0.995120 0.136421
H34   H     H_    0.873965 0.861743 0.461781 0.191601
H35   H     H_    0.793770 0.352493 0.877215 0.142399
H36   H     H_    0.812597 0.560525 0.980067 0.143465
H37   H     H_    0.777865 0.619420 0.198403 0.152622
H38   H     H_    0.057272 0.406927 0.990251 0.267438
H39   H     H_    0.097828 0.276364 0.020455 0.257675
H40   H     H_    0.040008 0.248901 0.941302 0.249345
H41   H     H_    0.039617 0.187330 0.184606 0.205787
H42   H     H_    0.995863 0.304580 0.137394 0.228463
H43   H     H_    0.322849 0.843971 0.252903 0.260069
H44   H     H_    0.323678 0.897533 0.426409 0.284024
H45   H     H_    0.751950 0.585891 0.664825 0.157720
H46   H     H_    0.374622 0.927726 0.318636 0.246448
H47   H     H_    0.396125 0.757883 0.464481 0.196478
H48   H     H_    0.389737 0.697009 0.296989 0.220727
H49   H     H_    0.032287 0.866999 0.521886 0.142269
H50   H     H_    0.525023 0.884316 0.297766 0.177619
H51   H     H_    0.519768 0.910637 0.604539 0.162039
H52   H     H_    0.247311 0.383089 0.586722 0.160268
N1    N     N_R   0.202198 0.560918 0.448854 -0.343859
N2    N     N_R   0.800518 0.529339 0.449755 -0.351409
N3    N     N_2   0.500520 0.501330 0.852150 -0.142896
N4    N     N_2   0.500540 0.501360 0.147810 -0.191819
O1    O     O_R   0.499990 0.319060 0.613040 -0.594688
O2    O     O_R   0.571240 0.499960 0.613080 -0.637467
O3    O     O_R   0.571250 0.500000 0.386950 -0.618625
O4    O     O_2   0.206376 0.367165 0.332330 -0.570123
O5    O     O_2   0.805547 0.308461 0.434115 -0.565770
O6    O     O_2   0.199926 0.758285 0.558537 -0.569062
O7    O     O_2   0.794160 0.749591 0.472543 -0.567801
O8    O     O_R   0.500010 0.319100 0.386900 -0.617650
O9    O     O_R   0.428750 0.500000 0.613050 -0.601607
O10   O     O_R   0.428760 0.500040 0.386920 -0.617433
O11   O     O_R   0.499990 0.680900 0.613100 -0.625238
O12   O     O_R   0.500010 0.680940 0.386960 -0.612946
Zn1   Zn    Zn3+2 0.499990 0.499970 0.650990 0.941044
Zn2   Zn    Zn3+2 0.500010 0.500030 0.349010 0.926769

loop_
_geom_bond_atom_site_label_1
_geom_bond_atom_site_label_2
_ccdc_geom_bond_type
C10   C27   A    
C51   H25   S    
C66   C68   S    
C8    C13   A    
C66   H41   S    
C41   C42   S    
C35   C36   S    
C25   C67   A    
C44   H11   S    
C53   C59   A    
C1    C33   S    
C7    C8    A    
C62   H33   S    
C28   C72   S    
C53   C54   A    
C16   C31   S    
C15   C72   A    
C12   C23   A    
C35   H3    S    
C26   C27   A    
C62   C63   A    
C22   C29   A    
O12   Zn2   S    
C16   O12   A    
C1    O1    A    
N3    Zn1   S    
C30   C31   D    
O1    Zn1   S    
C56   H6    S    
C18   C19   A    
C68   H40   S    
O2    Zn1   S    
O8    Zn2   S    
C36   H4    S    
C4    O9    A    
C54   C55   A    
C50   H18   S    
C15   H7    S    
C20   C24   A    
C45   C56   A    
C8    C9    A    
C29   H49   S    
C55   H28   S    
C25   H12   S    
C52   H22   S    
C58   H30   S    
C1    O8    A    
C53   N3    S    
C9    C10   A    
C61   C62   A    
C50   H16   S    
C41   C71   A    
C46   H13   S    
C51   H26   S    
C39   H1    S    
C6    H9    S    
C21   C22   A    
C2    C6    A    
C49   H19   S    
C44   C46   A    
C64   H36   S    
C37   N1    A    
C25   C29   A    
C40   C69   S    
C2    C20   A    
C51   C52   S    
C47   H14   S    
C30   H50   S    
C11   N2    A    
O10   Zn2   S    
C17   C49   S    
C39   C40   A    
C42   C48   A    
C21   C34   A    
C27   H34   S    
C70   H44   S    
C58   C59   A    
C69   H47   S    
C60   C61   A    
C68   H39   S    
C43   C44   A    
C32   C51   S    
C5    C9    A    
C12   C41   A    
C11   O7    S    
C50   H17   S    
C47   C48   A    
C12   H52   S    
C61   H32   S    
C17   C18   A    
C48   H15   S    
C52   H21   S    
C34   C45   A    
C68   H38   S    
C38   C67   A    
C35   N3    D    
H5    N4    S    
C18   H45   S    
C65   H37   S    
C40   C71   A    
C13   N2    A    
O3    Zn2   S    
C60   C65   A    
C55   C57   A    
C54   H27   S    
C2    C5    A    
C42   C43   A    
C49   H20   S    
C37   C45   A    
C36   N4    D    
C38   N1    A    
C57   H29   S    
C26   H23   S    
O9    Zn1   S    
C46   C47   A    
C66   H42   S    
C13   O5    S    
C14   C19   A    
C3    C26   A    
C3    C5    A    
C34   C67   A    
C6    C7    A    
C24   C66   S    
C70   H43   S    
C24   C56   A    
C14   C60   S    
C19   N2    S    
C37   O4    S    
C23   N1    S    
C28   O3    A    
C59   H31   S    
C64   C65   A    
C31   H51   S    
C32   C33   D    
C30   C32   S    
O11   Zn1   S    
C57   C58   A    
N4    Zn2   S    
C69   H48   S    
C70   H46   S    
C23   C39   A    
C52   H24   S    
C28   O2    A    
C38   O6    S    
C69   C70   S    
C10   C11   A    
C4    O10   A    
C63   C64   A    
C16   O11   A    
C33   H2    S    
C20   C21   A    
C17   C72   A    
C49   C50   S    
C43   H10   S    
C14   C15   A    
C3    C22   A    
C63   H35   S    
C4    C71   S    
C7    H8    S    
