data_mof_unit_31206.cif
_audit_creation_date              2012-10-26T19:20:39-0400
_audit_creation_method            fapswitch 2.2
_symmetry_space_group_name_H-M    P1
_symmetry_Int_Tables_number       1
_space_group_crystal_system       triclinic
_cell_length_a                    10.771769
_cell_length_b                    11.056274
_cell_length_c                    9.861626
_cell_angle_alpha                 111.397335
_cell_angle_beta                  98.090747
_cell_angle_gamma                 91.647623
_cell_volume                      1078.54362522

loop_
_atom_site_label
_atom_site_type_symbol
_atom_type_description
_atom_site_fract_x
_atom_site_fract_y
_atom_site_fract_z
_atom_type_partial_charge
Br1   Br    Br    0.817230 0.375845 0.775395 -0.393632
Br2   Br    Br    0.182770 0.624155 0.224605 -0.393632
C1    C     C_R   0.490732 0.254002 0.440225 0.571497
C2    C     C_R   0.736594 0.483726 0.496187 0.551966
C3    C     C_R   0.147032 0.651492 0.772089 -0.148503
C4    C     C_R   0.852968 0.348508 0.227911 -0.148503
C5    C     C_R   0.096501 0.678852 0.901680 -0.068030
C6    C     C_R   0.903499 0.321148 0.098320 -0.068030
C7    C     C_R   0.986686 0.608100 0.900167 0.474511
C8    C     C_R   0.013314 0.391900 0.099833 0.474511
C9    C     C_R   0.923962 0.516036 0.767420 0.253300
C10   C     C_R   0.076038 0.483964 0.232580 0.253300
C11   C     C_R   0.957059 0.513806 0.632554 -0.034461
C12   C     C_R   0.509268 0.745998 0.559775 0.571496
C13   C     C_R   0.042941 0.486194 0.367446 -0.034460
C14   C     C_R   0.078980 0.565540 0.636200 -0.031431
C15   C     C_R   0.921019 0.434460 0.363800 -0.031431
C16   C     C_R   0.872577 0.465823 0.496302 0.005676
C17   C     C_R   0.127422 0.534177 0.503698 0.005677
C18   C     C_2   0.485526 0.114244 0.405874 0.353183
C19   C     C_2   0.514474 0.885756 0.594126 0.353183
C20   C     C_2   0.502508 0.069600 0.515429 -0.078719
C21   C     C_2   0.497492 0.930400 0.484571 -0.078719
C22   C     C_2   0.511341 0.510277 0.081205 0.023200
C23   C     C_2   0.488659 0.489723 0.918795 0.023200
C24   C     C_R   0.263406 0.516274 0.503813 0.551966
Cu1   Cu    Cu3+1 0.521920 0.521810 0.644910 1.036899
Cu2   Cu    Cu3+1 0.478080 0.478190 0.355090 1.036899
F1    F     F_    0.058781 0.371966 0.972736 -0.591771
F2    F     F_    0.941219 0.628034 0.027264 -0.591771
F3    F     F_    0.536798 0.968884 0.738011 -0.609302
F4    F     F_    0.463202 0.031116 0.261988 -0.609301
H1    H     H_    0.235272 0.703676 0.777288 0.173731
H2    H     H_    0.374638 0.378091 0.065782 0.251932
H3    H     H_    0.764728 0.296324 0.222712 0.173731
H4    H     H_    0.145591 0.750788 0.003991 0.193106
H5    H     H_    0.854409 0.249212 0.996009 0.193106
H6    H     H_    0.479608 0.863184 0.370082 0.183113
H7    H     H_    0.520393 0.136816 0.629919 0.183113
H8    H     H_    0.414102 0.417739 0.846094 0.165164
H9    H     H_    0.585898 0.582261 0.153906 0.165165
H10   H     H_    0.625362 0.621909 0.934218 0.251932
N1    N     N_2   0.445130 0.445420 0.137360 -0.325187
N2    N     N_2   0.554870 0.554580 0.862640 -0.325187
O1    O     O_R   0.511700 0.332340 0.577400 -0.528908
O2    O     O_R   0.488300 0.667660 0.422600 -0.528908
O3    O     O_R   0.474680 0.295500 0.332650 -0.446646
O4    O     O_R   0.525320 0.704500 0.667350 -0.446647
O5    O     O_R   0.338170 0.518410 0.622370 -0.509927
O6    O     O_R   0.661830 0.481590 0.377630 -0.509927
O7    O     O_R   0.301150 0.481570 0.377630 -0.470763
O8    O     O_R   0.698850 0.518430 0.622370 -0.470762

loop_
_geom_bond_atom_site_label_1
_geom_bond_atom_site_label_2
_ccdc_geom_bond_type
Cu1   O4    S    
C4    C6    A    
C17   C24   S    
Cu2   O3    S    
C13   C15   A    
C21   H6    S    
C7    C9    A    
C5    H4    S    
Cu2   N1    S    
Br1   C9    S    
C10   C13   A    
Br2   C10   S    
Cu1   O1    S    
C15   C16   A    
C2    C16   S    
C1    C18   S    
C12   O2    A    
C24   O7    A    
C22   C23   S    
C13   C17   A    
C22   H9    S    
C19   F3    S    
C8    F1    S    
Cu2   O2    S    
H10   N2    S    
C7    F2    S    
C2    O8    A    
C14   C17   A    
C20   H7    S    
C8    C10   A    
C12   C19   S    
C1    O3    A    
C18   C20   D    
C3    C5    A    
C19   C21   D    
C23   H8    S    
Cu1   O8    S    
C22   N1    D    
Cu2   O7    S    
C11   C14   A    
C6    H5    S    
C9    C11   A    
C4    H3    S    
C23   N2    D    
C11   C16   A    
C18   F4    S    
C24   O5    A    
Cu1   Cu2   S    
C5    C7    A    
C4    C15   A    
C20   C21   S    
C3    C14   A    
C12   O4    A    
Cu2   O6    S    
Cu1   N2    S    
C1    O1    A    
C6    C8    A    
H2    N1    S    
Cu1   O5    S    
C2    O6    A    
C3    H1    S    
