data_mof_unit_7235.cif
_audit_creation_date              2012-12-11T14:54:29-0500
_audit_creation_method            fapswitch 2.2
_symmetry_space_group_name_H-M    P1
_symmetry_Int_Tables_number       1
_space_group_crystal_system       triclinic
_cell_length_a                    19.222687
_cell_length_b                    10.936901
_cell_length_c                    18.778465
_cell_angle_alpha                 90.187894
_cell_angle_beta                  90.292914
_cell_angle_gamma                 89.949234
_cell_volume                      3947.84678751

loop_
_atom_site_label
_atom_site_type_symbol
_atom_type_description
_atom_site_fract_x
_atom_site_fract_y
_atom_site_fract_z
_atom_type_partial_charge
C1    C     C_R   0.714887 0.336720 0.637982 0.589843
C2    C     C_R   0.270942 0.375597 0.354586 0.549841
C3    C     C_R   0.214887 0.836720 0.637982 0.589845
C4    C     C_R   0.770941 0.875598 0.354585 0.549836
C5    C     C_3   0.539575 0.339317 0.445674 -0.269699
C6    C     C_3   0.561103 0.341429 0.523424 -0.256097
C7    C     C_3   0.039572 0.839321 0.445676 -0.269695
C8    C     C_3   0.061099 0.841430 0.523426 -0.256097
C9    C     C_R   0.685256 0.943758 0.527972 0.291992
C10   C     C_R   0.261646 0.807951 0.444263 0.273567
C11   C     C_R   0.185257 0.443756 0.527972 0.291994
C12   C     C_R   0.761646 0.307950 0.444263 0.273570
C13   C     C_R   0.696042 0.944198 0.454614 0.295324
C14   C     C_R   0.260953 0.781532 0.517600 0.296879
C15   C     C_R   0.196043 0.444195 0.454614 0.295332
C16   C     C_R   0.760953 0.281531 0.517600 0.296882
C17   C     C_R   0.758806 0.897230 0.429386 0.025906
C18   C     C_R   0.233654 0.868909 0.565800 -0.029914
C19   C     C_R   0.258808 0.397229 0.429387 0.025906
C20   C     C_R   0.733654 0.368909 0.565800 -0.029918
C21   C     C_R   0.809004 0.851558 0.476740 -0.114146
C22   C     C_R   0.216507 0.985565 0.543146 -0.175992
C23   C     C_R   0.309006 0.351561 0.476741 -0.114152
C24   C     C_R   0.716509 0.485566 0.543146 -0.175999
C25   C     C_R   0.801449 0.863250 0.549814 0.187795
C26   C     C_R   0.220047 0.014860 0.472682 0.208753
C27   C     C_R   0.301450 0.363252 0.549815 0.187797
C28   C     C_R   0.720051 0.514861 0.472683 0.208750
C29   C     C_R   0.741732 0.919994 0.575051 0.026019
C30   C     C_R   0.245776 0.928379 0.423355 0.010590
C31   C     C_R   0.241732 0.419994 0.575052 0.026016
C32   C     C_R   0.745777 0.428379 0.423355 0.010590
C33   C     C_R   0.560452 0.061574 0.982791 0.278468
C34   C     C_R   0.548047 0.071960 0.056075 0.275726
C35   C     C_R   0.060452 0.561573 0.982791 0.278469
C36   C     C_R   0.048047 0.571959 0.056075 0.275726
C37   C     C_R   0.507148 0.169944 0.080760 -0.025449
C38   C     C_R   0.545173 0.160770 0.937309 -0.011975
C39   C     C_R   0.007148 0.669944 0.080761 -0.025449
C40   C     C_R   0.045173 0.660770 0.937309 -0.011975
C41   C     C_R   0.493517 0.269699 0.036102 -0.208921
C42   C     C_R   0.514091 0.266448 0.965319 -0.210066
C43   C     C_R   0.993517 0.769699 0.036102 -0.208921
C44   C     C_R   0.014091 0.766448 0.965319 -0.210066
C45   C     C_R   0.530529 0.155382 0.647740 0.598707
C46   C     C_R   0.438075 0.150124 0.361291 0.569169
C47   C     C_R   0.030529 0.655382 0.647740 0.598710
C48   C     C_R   0.938075 0.650124 0.361291 0.569173
C49   C     C_R   0.777426 0.032339 0.973806 -0.122363
C50   C     C_R   0.184576 0.933602 0.043078 -0.147489
C51   C     C_R   0.277426 0.532339 0.973806 -0.122363
C52   C     C_R   0.684576 0.433602 0.043078 -0.147489
C53   C     C_R   0.780357 0.013935 0.046099 -0.150948
C54   C     C_R   0.179333 0.925759 0.970323 -0.139221
C55   C     C_R   0.280357 0.513935 0.046099 -0.150948
C56   C     C_R   0.679333 0.425759 0.970323 -0.139220
C57   C     C_R   0.754850 0.905346 0.074051 0.039438
C58   C     C_R   0.238269 0.898992 0.929048 0.029537
C59   C     C_R   0.254850 0.405346 0.074051 0.039437
C60   C     C_R   0.738269 0.398992 0.929048 0.029538
C61   C     C_R   0.725059 0.815720 0.029368 -0.078506
C62   C     C_R   0.302347 0.876402 0.961821 -0.154627
C63   C     C_R   0.225060 0.315720 0.029368 -0.078506
C64   C     C_R   0.802347 0.376402 0.961822 -0.154627
C65   C     C_R   0.722761 0.833854 0.956317 -0.085086
C66   C     C_R   0.308006 0.887024 0.035227 -0.144804
C67   C     C_R   0.222761 0.333854 0.956317 -0.085086
C68   C     C_R   0.808006 0.387024 0.035227 -0.144804
C69   C     C_R   0.749255 0.942182 0.928643 0.065371
C70   C     C_R   0.249396 0.920048 0.075643 0.022412
C71   C     C_R   0.249255 0.442182 0.928643 0.065370
C72   C     C_R   0.749396 0.420048 0.075643 0.022412
C73   C     C_R   0.739468 0.970170 0.646855 0.595126
C74   C     C_R   0.258669 0.971919 0.352606 0.573728
C75   C     C_R   0.239468 0.470171 0.646855 0.595123
C76   C     C_R   0.758669 0.471919 0.352606 0.573729
C77   C     C_R   0.727481 0.374047 0.854242 0.545564
C78   C     C_R   0.271539 0.374673 0.146577 0.517806
C79   C     C_R   0.227481 0.874047 0.854242 0.545565
C80   C     C_R   0.771539 0.874673 0.146577 0.517806
C81   C     C_R   0.562600 0.153080 0.861272 0.586677
C82   C     C_R   0.468322 0.157655 0.147058 0.552622
C83   C     C_R   0.062601 0.653080 0.861272 0.586678
C84   C     C_R   0.968322 0.657655 0.147058 0.552622
C85   C     C_R   0.741094 0.973266 0.854684 0.533742
C86   C     C_R   0.258752 0.969735 0.146348 0.524702
C87   C     C_R   0.241094 0.473266 0.854684 0.533742
C88   C     C_R   0.758752 0.469735 0.146348 0.524702
C89   C     C_R   0.455807 0.153304 0.436982 -0.004920
C90   C     C_R   0.489955 0.165245 0.582546 0.053255
C91   C     C_R   0.955807 0.653303 0.436982 -0.004920
C92   C     C_R   0.989955 0.665243 0.582546 0.053255
C93   C     C_R   0.480196 0.261222 0.467497 -0.010384
C94   C     C_R   0.498607 0.265944 0.538262 0.042993
C95   C     C_R   0.980194 0.761222 0.467498 -0.010385
C96   C     C_R   0.998605 0.765943 0.538263 0.042989
C97   C     C_R   0.451878 0.064785 0.556425 0.154242
C98   C     C_R   0.440608 0.053666 0.482665 0.142029
C99   C     C_R   0.951881 0.564779 0.556424 0.154254
C100  C     C_R   0.940609 0.553663 0.482664 0.142020
Cr1   Cr    Cr6+3 0.771950 0.169480 0.750100 1.059474
Cr2   Cr    Cr6+3 0.228050 0.169480 0.249900 1.006664
Cr3   Cr    Cr6+3 0.271950 0.669480 0.750100 1.059472
Cr4   Cr    Cr6+3 0.728050 0.669480 0.249900 1.006662
Cr5   Cr    Cr6+3 0.614930 0.323340 0.749170 1.009708
Cr6   Cr    Cr6+3 0.385070 0.323340 0.250830 1.011747
Cr7   Cr    Cr6+3 0.114930 0.823340 0.749170 1.009706
Cr8   Cr    Cr6+3 0.885070 0.823340 0.250830 1.011747
Cr9   Cr    Cr6+3 0.616590 0.010620 0.750610 1.045351
Cr10  Cr    Cr6+3 0.383410 0.010620 0.249390 1.053629
Cr11  Cr    Cr6+3 0.116590 0.510620 0.750610 1.045340
Cr12  Cr    Cr6+3 0.883410 0.510620 0.249390 1.053628
H1    H     H_    0.796519 0.118258 0.953238 0.138877
H2    H     H_    0.138671 0.957828 0.073314 0.134844
H3    H     H_    0.296519 0.618258 0.953238 0.138878
H4    H     H_    0.638671 0.457828 0.073314 0.134844
H5    H     H_    0.803843 0.083063 0.079999 0.120997
H6    H     H_    0.128422 0.939227 0.946686 0.137715
H7    H     H_    0.303843 0.583063 0.079999 0.120997
H8    H     H_    0.628422 0.439226 0.946686 0.137715
H9    H     H_    0.706497 0.729710 0.050463 0.141837
H10   H     H_    0.347654 0.851689 0.930843 0.117434
H11   H     H_    0.206496 0.229711 0.050463 0.141837
H12   H     H_    0.847654 0.351689 0.930843 0.117434
H13   H     H_    0.700071 0.764880 0.921807 0.113362
H14   H     H_    0.358846 0.876373 0.059591 0.140630
H15   H     H_    0.200071 0.264880 0.921807 0.113362
H16   H     H_    0.858846 0.376373 0.059591 0.140630
H17   H     H_    0.020801 0.928953 0.425739 0.132394
H18   H     H_    0.109401 0.788923 0.533451 0.149675
H19   H     H_    0.520804 0.428949 0.425736 0.132394
H20   H     H_    0.609404 0.288920 0.533450 0.149679
H21   H     H_    0.577065 0.290744 0.410689 0.152973
H22   H     H_    0.557795 0.433004 0.548809 0.139706
H23   H     H_    0.077063 0.790750 0.410690 0.152970
H24   H     H_    0.057790 0.933003 0.548813 0.139707
H25   H     H_    0.854297 0.808037 0.456039 0.141079
H26   H     H_    0.197574 0.054662 0.579783 0.151602
H27   H     H_    0.354300 0.308043 0.456040 0.141079
H28   H     H_    0.697577 0.554663 0.579784 0.151600
H29   H     H_    0.463436 0.347212 0.054665 0.157077
H30   H     H_    0.501879 0.343844 0.931668 0.150694
H31   H     H_    0.963437 0.847212 0.054665 0.157077
H32   H     H_    0.001880 0.843844 0.931668 0.150694
O1    O     O_R   0.787510 0.042610 0.670410 -0.470575
O2    O     O_R   0.212490 0.042610 0.329590 -0.507741
O3    O     O_R   0.287510 0.542610 0.670410 -0.470575
O4    O     O_R   0.712490 0.542610 0.329590 -0.507742
O5    O     O_R   0.556450 0.252890 0.823790 -0.518077
O6    O     O_R   0.443550 0.252890 0.176210 -0.510855
O7    O     O_R   0.056450 0.752890 0.823790 -0.518076
O8    O     O_R   0.943550 0.752890 0.176210 -0.510855
O9    O     O_R   0.545750 0.051070 0.830560 -0.481260
O10   O     O_R   0.454250 0.051070 0.169440 -0.478942
O11   O     O_R   0.045750 0.551070 0.830560 -0.481260
O12   O     O_R   0.954250 0.551070 0.169440 -0.478942
O13   O     O_R   0.681210 0.959150 0.825320 -0.494113
O14   O     O_R   0.318790 0.959150 0.174680 -0.513607
O15   O     O_R   0.181210 0.459150 0.825320 -0.494114
O16   O     O_R   0.818790 0.459150 0.174680 -0.513607
O17   O     O_3   0.667820 0.167810 0.749960 -0.301566
O18   O     O_3   0.332180 0.167810 0.250040 -0.274514
O19   O     O_3   0.167820 0.667810 0.749960 -0.301565
O20   O     O_3   0.832180 0.667810 0.250040 -0.274512
O21   O     O_R   0.765670 0.292090 0.675090 -0.430534
O22   O     O_R   0.234330 0.292090 0.324910 -0.493025
O23   O     O_R   0.265670 0.792090 0.675090 -0.430532
O24   O     O_R   0.734330 0.792090 0.324910 -0.493029
O25   O     O_R   0.670220 0.409020 0.668560 -0.544887
O26   O     O_R   0.329780 0.409020 0.331440 -0.519761
O27   O     O_R   0.170220 0.909020 0.668560 -0.544888
O28   O     O_R   0.829780 0.909020 0.331440 -0.519760
O29   O     O_R   0.556580 0.251590 0.674980 -0.515423
O30   O     O_R   0.443420 0.251590 0.325020 -0.514126
O31   O     O_R   0.056580 0.751590 0.674980 -0.515424
O32   O     O_R   0.943420 0.751590 0.325020 -0.514125
O33   O     O_R   0.545890 0.049670 0.670030 -0.459081
O34   O     O_R   0.454110 0.049670 0.329970 -0.496216
O35   O     O_R   0.045890 0.549670 0.670030 -0.459079
O36   O     O_R   0.954110 0.549670 0.329970 -0.496216
O37   O     O_R   0.681340 0.957860 0.676500 -0.504955
O38   O     O_R   0.318660 0.957860 0.323500 -0.462635
O39   O     O_R   0.181340 0.457860 0.676500 -0.504971
O40   O     O_R   0.818660 0.457860 0.323500 -0.462635
O41   O     O_R   0.787380 0.044010 0.830940 -0.535693
O42   O     O_R   0.212620 0.044010 0.169060 -0.529623
O43   O     O_R   0.287380 0.544010 0.830940 -0.535693
O44   O     O_R   0.712620 0.544010 0.169060 -0.529622
O45   O     O_R   0.765540 0.293390 0.823910 -0.500942
O46   O     O_R   0.234460 0.293390 0.176090 -0.512987
O47   O     O_R   0.265540 0.793390 0.823910 -0.500941
O48   O     O_R   0.734460 0.793390 0.176090 -0.512988
O49   O     O_R   0.670090 0.410410 0.829090 -0.533939
O50   O     O_R   0.329910 0.410410 0.170910 -0.522790
O51   O     O_R   0.170090 0.910410 0.829090 -0.533939
O52   O     O_R   0.829910 0.910410 0.170910 -0.522790
Br1   Br    Br    0.415233 0.944401 0.621201 -0.576190
Br2   Br    Br    0.420047 0.893978 0.446081 -0.562145
Br3   Br    Br    0.915244 0.444384 0.621198 -0.576174
Br4   Br    Br    0.920046 0.393977 0.446078 -0.562150
O53   O     O_3   0.619172 0.964497 0.553510 -0.535436
C101  C     C_3   0.588037 0.849073 0.566703 -0.077545
H33   H     H_    0.625516 0.773158 0.577327 0.069892
H34   H     H_    0.553178 0.824062 0.521972 0.139114
H35   H     H_    0.555661 0.853892 0.614907 0.205735
O54   O     O_3   0.283816 0.718255 0.396514 -0.528563
C102  C     C_3   0.238717 0.706864 0.336966 -0.062542
H36   H     H_    0.184086 0.734626 0.348167 0.101894
H37   H     H_    0.237829 0.610217 0.319602 0.165489
H38   H     H_    0.259344 0.758105 0.290886 0.118244
O55   O     O_3   0.119171 0.464489 0.553509 -0.535441
C103  C     C_3   0.088040 0.349064 0.566713 -0.077563
H39   H     H_    0.053143 0.324080 0.522009 0.139192
H40   H     H_    0.055709 0.353867 0.614947 0.205711
H41   H     H_    0.125521 0.273134 0.577290 0.069866
O56   O     O_3   0.783815 0.218253 0.396514 -0.528562
C104  C     C_3   0.738718 0.206866 0.336964 -0.062538
H42   H     H_    0.684087 0.234633 0.348163 0.101887
H43   H     H_    0.737828 0.110219 0.319600 0.165484
H44   H     H_    0.759347 0.258105 0.290884 0.118247
O57   O     O_3   0.656452 0.021155 0.412517 -0.585513
C105  C     C_3   0.603517 0.956427 0.377309 -0.120023
H45   H     H_    0.622544 0.875546 0.347902 0.121391
H46   H     H_    0.580736 0.017955 0.336782 0.162495
H47   H     H_    0.562402 0.930449 0.415144 0.190172
O58   O     O_3   0.280111 0.667190 0.541841 -0.562320
C106  C     C_3   0.352750 0.651158 0.534504 -0.041818
H48   H     H_    0.382431 0.729895 0.555299 0.192649
H49   H     H_    0.369990 0.572624 0.566945 0.165628
H50   H     H_    0.367261 0.630067 0.478740 0.188604
O59   O     O_3   0.156450 0.521144 0.412515 -0.585522
C107  C     C_3   0.103513 0.456408 0.377315 -0.120013
H51   H     H_    0.122539 0.375525 0.347910 0.121400
H52   H     H_    0.080728 0.517929 0.336787 0.162507
H53   H     H_    0.062402 0.430434 0.415155 0.190172
O60   O     O_3   0.780110 0.167188 0.541841 -0.562318
C108  C     C_3   0.852749 0.151152 0.534501 -0.041818
H54   H     H_    0.882431 0.229890 0.555291 0.192651
H55   H     H_    0.869989 0.072622 0.566945 0.165626
H56   H     H_    0.867256 0.130054 0.478737 0.188601
O61   O     O_3   0.854741 0.828042 0.595073 -0.582902
C109  C     C_3   0.831652 0.729750 0.637465 -0.096622
H57   H     H_    0.874967 0.700593 0.672680 0.172546
H58   H     H_    0.816048 0.650684 0.603721 0.163033
H59   H     H_    0.788173 0.755469 0.673127 0.104036
O62   O     O_3   0.199591 0.130955 0.452592 -0.555461
C110  C     C_3   0.126413 0.131109 0.445633 -0.101915
H60   H     H_    0.100418 0.111539 0.496964 0.080639
H61   H     H_    0.108475 0.065555 0.404255 0.139598
H62   H     H_    0.109420 0.222323 0.428260 0.125810
O63   O     O_3   0.354743 0.328047 0.595074 -0.582901
C111  C     C_3   0.331655 0.229763 0.637471 -0.096617
H63   H     H_    0.374973 0.200601 0.672682 0.172550
H64   H     H_    0.316042 0.150696 0.603731 0.163032
H65   H     H_    0.288182 0.255491 0.673138 0.104040
O64   O     O_3   0.699597 0.630957 0.452593 -0.555464
C112  C     C_3   0.626420 0.631115 0.445632 -0.101905
H66   H     H_    0.608481 0.565538 0.404266 0.139585
H67   H     H_    0.609430 0.722320 0.428237 0.125816
H68   H     H_    0.600425 0.611575 0.496967 0.080638
O65   O     O_3   0.590460 0.956649 0.955680 -0.540048
C113  C     C_3   0.540081 0.862728 0.953412 -0.078816
H69   H     H_    0.561176 0.785438 0.921786 0.122360
H70   H     H_    0.490966 0.892844 0.926981 0.114380
H71   H     H_    0.528872 0.827615 0.007576 0.153973
O66   O     O_3   0.570067 0.979244 0.101110 -0.546098
C114  C     C_3   0.616110 0.027936 0.152864 -0.098071
H72   H     H_    0.589693 0.089843 0.190996 0.103763
H73   H     H_    0.660286 0.077013 0.127834 0.102436
H74   H     H_    0.637015 0.951662 0.185057 0.151319
O67   O     O_3   0.090460 0.456649 0.955680 -0.540048
C115  C     C_3   0.040081 0.362728 0.953412 -0.078816
H75   H     H_    0.061176 0.285438 0.921786 0.122360
H76   H     H_    0.990966 0.392844 0.926981 0.114380
H77   H     H_    0.028872 0.327615 0.007576 0.153973
O68   O     O_3   0.070066 0.479243 0.101110 -0.546099
C116  C     C_3   0.116109 0.527935 0.152864 -0.098070
H78   H     H_    0.089693 0.589842 0.190996 0.103766
H79   H     H_    0.160286 0.577013 0.127834 0.102436
H80   H     H_    0.137015 0.451661 0.185057 0.151321

loop_
_geom_bond_atom_site_label_1
_geom_bond_atom_site_label_2
_ccdc_geom_bond_type
C58   C62   A    
C49   H1    S    
C49   C53   A    
Cr3   O23   S    
C93   C94   A    
Cr6   O6    S    
C55   C59   A    
C8    H24   S    
C34   C37   A    
Cr6   O26   S    
C41   C42   A    
C14   C18   A    
C43   H31   S    
C95   C96   A    
C8    C96   S    
C21   H25   S    
C48   O36   A    
Cr9   O13   S    
C113  H71   S    
Cr7   O51   S    
C97   C98   A    
Cr10  O18   S    
C81   O9    A    
C7    C8    S    
Cr12  O40   S    
C46   C89   S    
C55   H7    S    
C24   H28   S    
C104  H44   S    
C15   C19   A    
Cr8   O20   S    
Cr1   O1    S    
C74   O38   A    
Cr2   O42   S    
C101  H34   S    
C37   C41   A    
C52   C72   A    
C64   C68   A    
Cr9   O17   S    
C23   H27   S    
C39   C84   S    
C112  H66   S    
Cr12  O16   S    
Cr1   O45   S    
C5    C6    S    
C30   C74   S    
C114  H74   S    
C53   H5    S    
C83   O11   A    
Cr10  O34   S    
O67   C115  S    
Cr4   O48   S    
C108  H55   S    
C33   O65   S    
C92   C96   A    
C79   O51   A    
O60   C108  S    
C79   O47   A    
C3    C18   S    
C61   H9    S    
O61   C109  S    
C78   O50   A    
C15   O59   S    
C57   C61   A    
C46   O34   A    
C9    C13   A    
C11   O55   S    
Cr8   O8    S    
C11   C15   A    
C12   C16   A    
C115  H75   S    
C6    C94   S    
C48   C91   S    
C78   O46   A    
C42   H30   S    
C102  H38   S    
C109  H58   S    
C81   O5    A    
C46   O30   A    
C23   C27   A    
C91   C100  A    
Cr8   O52   S    
Cr9   O9    S    
C68   H16   S    
C90   C97   A    
C51   C55   A    
Cr10  O14   S    
C9    C29   A    
C85   O41   A    
Cr12  O36   S    
Cr7   O7    S    
C5    C93   S    
C52   H4    S    
C11   C31   A    
Cr1   O17   S    
Cr2   O22   S    
C49   C69   A    
C108  H54   S    
C12   C32   A    
Cr4   O44   S    
Cr11  O35   S    
C80   O48   A    
C57   C80   S    
C40   C83   S    
C88   O44   A    
C85   O13   A    
C47   C92   S    
Cr1   O41   S    
C59   C78   S    
Cr11  O39   S    
C72   C88   S    
C34   O66   S    
C90   C94   A    
C83   O7    A    
Cr5   O5    S    
C110  H61   S    
C25   C29   A    
Cr12  O20   S    
C63   C67   A    
C60   C77   S    
C109  H59   S    
C101  H33   S    
C98   Br2   S    
C27   C31   A    
C102  H36   S    
C84   O12   A    
C97   Br1   S    
C36   O68   S    
C28   C32   A    
C75   O39   A    
Cr3   O43   S    
O56   C104  S    
C6    H20   S    
C21   C25   A    
C10   C14   A    
C35   O67   S    
C62   C66   A    
O54   C102  S    
C9    O53   S    
C87   O43   A    
C105  H47   S    
C75   O3    A    
C104  H42   S    
Cr3   O3    S    
Cr6   O50   S    
C101  H35   S    
C107  H53   S    
C51   H3    S    
C4    O24   A    
C76   O4    A    
C73   O1    A    
C68   C72   A    
C50   H2    S    
C35   C36   A    
C65   H13   S    
C5    H21   S    
C43   C44   A    
O55   C103  S    
C7    H23   S    
O57   C105  S    
Cr10  O10   S    
C45   O29   A    
Cr4   O24   S    
C86   O42   A    
C73   O37   A    
C10   C30   A    
C31   C75   S    
C106  H48   S    
C103  H41   S    
C1    O21   A    
C16   C20   A    
C77   O49   A    
O64   C112  S    
C106  H50   S    
C107  H52   S    
C33   C34   A    
O63   C111  S    
Cr11  O19   S    
C50   C54   A    
C103  H39   S    
C88   O16   A    
Cr1   O21   S    
C45   C90   S    
C86   O14   A    
C28   O64   S    
C82   O6    A    
Cr5   O25   S    
C58   C79   S    
C2    O26   A    
C111  H65   S    
C71   C87   S    
C4    C17   S    
C84   O8    A    
Cr12  O12   S    
C106  H49   S    
C103  H40   S    
C26   C30   A    
C66   C70   A    
C47   O35   A    
C116  H79   S    
C38   C81   S    
C8    H18   S    
C67   H15   S    
Cr5   O17   S    
C37   C82   S    
C108  H56   S    
Cr3   O47   S    
C12   O56   S    
Cr7   O19   S    
C40   C44   A    
C70   C86   S    
C54   H6    S    
C100  Br4   S    
C62   H10   S    
C69   C85   S    
Cr2   O18   S    
C19   C23   A    
C111  H64   S    
C54   C58   A    
C110  H62   S    
Cr9   O37   S    
C2    O22   A    
O62   C110  S    
C105  H46   S    
C1    C20   S    
C53   C57   A    
C4    O28   A    
C26   O62   S    
C109  H57   S    
C2    C19   S    
C18   C22   A    
Cr3   O19   S    
C74   O2    A    
C36   C39   A    
C27   O63   S    
C24   C28   A    
C13   O57   S    
C32   C76   S    
C63   H11   S    
C114  H72   S    
C51   C71   A    
C92   C99   A    
C14   O58   S    
C113  H69   S    
C56   H8    S    
Cr7   O27   S    
C25   O61   S    
C104  H43   S    
C7    C95   S    
C41   H29   S    
C22   H26   S    
C59   C63   A    
C33   C38   A    
O53   C101  S    
C13   C17   A    
C89   C98   A    
C60   C64   A    
C80   O52   A    
C77   O45   A    
C112  H68   S    
Cr8   O28   S    
C35   C40   A    
C50   C70   A    
C66   H14   S    
Cr4   O4    S    
C6    H22   S    
C64   H12   S    
C99   C100  A    
Cr2   O2    S    
C45   O33   A    
Cr5   O49   S    
C3    O27   A    
Cr4   O20   S    
O65   C113  S    
Cr7   O31   S    
C115  H77   S    
C65   C69   A    
Cr8   O32   S    
C1    O25   A    
C107  H51   S    
Cr2   O46   S    
C87   O15   A    
C67   C71   A    
Cr6   O18   S    
C61   C65   A    
C89   C93   A    
C105  H45   S    
C17   C21   A    
C7    H17   S    
O66   C114  S    
C91   C95   A    
C82   O10   A    
C38   C42   A    
C56   C60   A    
C3    O23   A    
C5    H19   S    
C113  H70   S    
C29   C73   S    
O68   C116  S    
Cr10  O38   S    
C115  H76   S    
O58   C106  S    
C22   C26   A    
C116  H80   S    
C99   Br3   S    
O59   C107  S    
C102  H37   S    
Cr9   O33   S    
C16   O60   S    
C10   O54   S    
C114  H73   S    
Cr5   O29   S    
C44   H32   S    
C112  H67   S    
C116  H78   S    
C76   O40   A    
Cr11  O11   S    
C39   C43   A    
C20   C24   A    
C47   O31   A    
C52   C56   A    
C110  H60   S    
C111  H63   S    
C48   O32   A    
Cr11  O15   S    
Cr6   O30   S    
