data_mof_unit_50133.cif
_audit_creation_date              2012-12-10T19:22:00-0500
_audit_creation_method            fapswitch 2.2
_symmetry_space_group_name_H-M    P1
_symmetry_Int_Tables_number       1
_space_group_crystal_system       triclinic
_cell_length_a                    8.716632
_cell_length_b                    17.765401
_cell_length_c                    16.537581
_cell_angle_alpha                 88.402274
_cell_angle_beta                  96.802087
_cell_angle_gamma                 93.136015
_cell_volume                      2538.4927357

loop_
_atom_site_label
_atom_site_type_symbol
_atom_type_description
_atom_site_fract_x
_atom_site_fract_y
_atom_site_fract_z
_atom_type_partial_charge
C1    C     C_R   0.507863 0.355615 0.501561 0.913104
C2    C     C_R   0.495875 0.644692 0.498574 0.908177
C3    C     C_1   0.496834 0.967100 0.491187 0.168088
C4    C     C_1   0.511683 0.034639 0.493436 0.171525
C5    C     C_R   0.593285 0.550183 0.834770 0.322744
C6    C     C_R   0.401380 0.447506 0.166979 0.337929
C7    C     C_R   0.599811 0.547626 0.748889 0.474232
C8    C     C_R   0.395028 0.453433 0.252566 0.484335
C9    C     C_R   0.400479 0.450386 0.737345 0.539915
C10   C     C_R   0.604380 0.546015 0.261642 0.543049
C11   C     C_R   0.406055 0.444504 0.824313 -0.255688
C12   C     C_R   0.601044 0.548338 0.174641 -0.251328
C13   C     C_R   0.498070 0.497437 0.873227 -0.165018
C14   C     C_R   0.503360 0.496289 0.127207 -0.166751
C15   C     C_1   0.499113 0.497027 0.962971 0.050034
C16   C     C_1   0.499625 0.496520 0.037241 0.042636
C17   C     C_R   0.203769 0.497067 0.479956 0.889037
C18   C     C_R   0.796264 0.502039 0.520070 0.893952
C19   C     C_2   0.038781 0.488420 0.470435 -0.359851
C20   C     C_2   0.961330 0.509433 0.529706 -0.389080
C21   C     C_R   0.393116 0.843969 0.543609 -0.139908
C22   C     C_R   0.615731 0.160124 0.447571 -0.132338
C23   C     C_R   0.407369 0.764969 0.550592 0.334791
C24   C     C_R   0.611762 0.239807 0.449472 0.344836
C25   C     C_R   0.487220 0.727857 0.494908 -0.298198
C26   C     C_R   0.524834 0.273084 0.504657 -0.310909
C27   C     C_R   0.553222 0.770586 0.433411 0.295986
C28   C     C_R   0.459817 0.227768 0.564430 0.326098
C29   C     C_R   0.565239 0.849429 0.437005 0.368588
C30   C     C_R   0.458367 0.149013 0.560891 0.407861
C31   C     C_R   0.482580 0.886158 0.490397 -0.147577
C32   C     C_R   0.527686 0.115327 0.499338 -0.171709
Cu1   Cu    Cu3+1 0.499990 0.499980 0.580420 1.025446
Cu2   Cu    Cu3+1 0.500010 0.500020 0.419580 1.027397
H1    H     H_    0.980858 0.463210 0.415293 0.180393
H2    H     H_    0.019657 0.534350 0.584827 0.160636
N1    N     N_R   0.499960 0.499970 0.701210 -0.281095
N2    N     N_R   0.500040 0.500030 0.298790 -0.284864
O1    O     O_R   0.499990 0.391240 0.567930 -0.533297
O2    O     O_R   0.500010 0.608760 0.432070 -0.533681
O3    O     O_R   0.500000 0.391270 0.432120 -0.562095
O4    O     O_R   0.500000 0.608730 0.567880 -0.528217
O5    O     O_R   0.274830 0.499990 0.552240 -0.554735
O6    O     O_R   0.725170 0.500010 0.447760 -0.551113
O7    O     O_R   0.274840 0.500020 0.416420 -0.550396
O8    O     O_R   0.725160 0.499980 0.583580 -0.581175
C33   C     C_2   0.279363 0.879454 0.589527 0.366439
H3    H     H_    0.219018 0.846475 0.633205 0.112280
O9    O     O_2   0.245294 0.944783 0.576785 -0.530239
C34   C     C_2   0.718898 0.125685 0.394851 0.399257
H4    H     H_    0.822091 0.156971 0.379341 0.101664
O10   O     O_2   0.689210 0.063043 0.366869 -0.529021
O11   O     O_3   0.328359 0.722596 0.605427 -0.576210
C35   C     C_3   0.416138 0.725551 0.682787 -0.290261
H5    H     H_    0.408133 0.780655 0.711629 0.125128
H6    H     H_    0.540010 0.714965 0.679907 0.204766
H7    H     H_    0.368763 0.681046 0.722696 0.174383
O12   O     O_3   0.711385 0.286207 0.408058 -0.570716
C36   C     C_3   0.671029 0.283759 0.322740 -0.312833
H8    H     H_    0.575618 0.241821 0.302038 0.135244
H9    H     H_    0.774470 0.270279 0.293845 0.167773
H10   H     H_    0.638280 0.340617 0.299843 0.175189
O13   O     O_3   0.608121 0.735720 0.369790 -0.519369
C37   C     C_3   0.494064 0.739482 0.301708 -0.096014
H11   H     H_    0.480440 0.798523 0.278950 0.165804
H12   H     H_    0.380568 0.713530 0.315580 0.108519
H13   H     H_    0.530084 0.707321 0.251647 0.225164
O14   O     O_3   0.398274 0.260732 0.627306 -0.505631
C38   C     C_3   0.504243 0.256617 0.699100 -0.065324
H14   H     H_    0.624455 0.243446 0.689294 0.059050
H15   H     H_    0.458920 0.214380 0.742138 0.185423
H16   H     H_    0.514937 0.311738 0.729061 0.195600
O15   O     O_3   0.646572 0.890974 0.382543 -0.536373
C39   C     C_3   0.805319 0.891915 0.411907 -0.145574
H17   H     H_    0.850075 0.834323 0.414341 0.164903
H18   H     H_    0.828351 0.918027 0.472890 0.140167
H19   H     H_    0.870475 0.926713 0.369421 0.203378
O16   O     O_3   0.380367 0.106029 0.615923 -0.509554
C40   C     C_3   0.487617 0.071411 0.674451 -0.244276
H20   H     H_    0.599160 0.104911 0.688071 0.107598
H21   H     H_    0.511288 0.014427 0.654951 0.171691
H22   H     H_    0.435138 0.064113 0.732261 0.184981
O17   O     O_3   0.690204 0.599846 0.882394 -0.574691
C41   C     C_3   0.618288 0.668793 0.883953 -0.315262
H23   H     H_    0.684286 0.704023 0.931848 0.201250
H24   H     H_    0.497253 0.661085 0.899347 0.153026
H25   H     H_    0.621583 0.699938 0.825082 0.167701
O18   O     O_3   0.293242 0.401221 0.121379 -0.558226
C42   C     C_3   0.365338 0.336238 0.100588 -0.345994
H26   H     H_    0.429939 0.308631 0.154456 0.131540
H27   H     H_    0.444451 0.349269 0.053657 0.174533
H28   H     H_    0.274398 0.294818 0.074384 0.199190
O19   O     O_3   0.699594 0.596788 0.711535 -0.559438
C43   C     C_3   0.854450 0.579302 0.736529 -0.253968
H29   H     H_    0.927599 0.604341 0.691249 0.166702
H30   H     H_    0.870521 0.517416 0.739667 0.129301
H31   H     H_    0.897826 0.605198 0.795643 0.201851
O20   O     O_3   0.267636 0.423482 0.287736 -0.540882
C44   C     C_3   0.254774 0.344137 0.285811 -0.225172
H32   H     H_    0.200039 0.323089 0.339913 0.167268
H33   H     H_    0.367586 0.318024 0.288986 0.121086
H34   H     H_    0.177117 0.325279 0.231339 0.194341
O21   O     O_3   0.300671 0.403233 0.687874 -0.489509
C45   C     C_3   0.145495 0.419475 0.693942 -0.169804
H35   H     H_    0.130377 0.480528 0.702176 0.083974
H36   H     H_    0.098273 0.386321 0.743863 0.170848
H37   H     H_    0.074196 0.401458 0.637188 0.184276
O22   O     O_3   0.704164 0.594314 0.309764 -0.497075
C46   C     C_3   0.859631 0.577306 0.305619 -0.163537
H38   H     H_    0.910391 0.611093 0.257263 0.181018
H39   H     H_    0.874541 0.516327 0.296576 0.111897
H40   H     H_    0.928439 0.594502 0.363357 0.176996
C47   C     C_2   0.321806 0.381772 0.864624 0.358733
H41   H     H_    0.281933 0.389708 0.923318 0.102784
O23   O     O_2   0.300624 0.319736 0.834108 -0.539908
C48   C     C_2   0.692918 0.606775 0.132035 0.377999
H42   H     H_    0.734022 0.594455 0.074661 0.114857
O24   O     O_2   0.718381 0.670218 0.158540 -0.542477

loop_
_geom_bond_atom_site_label_1
_geom_bond_atom_site_label_2
_ccdc_geom_bond_type
C41   H24   S    
O19   C43   S    
C27   C29   A    
O15   C39   S    
C10   O22   S    
C19   C20   D    
C41   H25   S    
C45   H36   S    
C33   O9    D    
O11   C35   S    
C48   H42   S    
C21   C31   A    
Cu1   O1    S    
C22   C32   A    
O17   C41   S    
Cu2   O2    S    
Cu1   O4    S    
C30   O16   S    
C28   O14   S    
C24   C26   A    
C46   H39   S    
C5    O17   S    
C12   C48   S    
C29   O15   S    
C15   C16   T    
C6    O18   S    
O22   C46   S    
C18   C20   S    
C38   H15   S    
C8    O20   S    
C33   H3    S    
O14   C38   S    
C39   H19   S    
C34   O10   D    
C23   O11   S    
C42   H27   S    
C5    C13   A    
C22   C34   S    
C36   H8    S    
Cu1   O8    S    
C38   H14   S    
Cu2   O3    S    
C8    N2    A    
C18   O8    A    
C45   H35   S    
C34   H4    S    
C7    O19   S    
C35   H6    S    
C36   H9    S    
C39   H17   S    
Cu1   O5    S    
C37   H13   S    
Cu2   O6    S    
C41   H23   S    
C46   H40   S    
C5    C7    A    
O16   C40   S    
C6    C8    A    
C43   H31   S    
O12   C36   S    
Cu1   N1    S    
C40   H20   S    
C37   H12   S    
C38   H16   S    
C3    C31   S    
C17   O5    A    
C18   O6    A    
C6    C14   A    
C44   H32   S    
C9    O21   S    
C9    N1    A    
Cu1   Cu2   S    
C7    N1    A    
Cu2   O7    S    
C42   H28   S    
C43   H30   S    
C9    C11   A    
C4    C32   S    
C10   C12   A    
C1    O3    A    
C44   H33   S    
C12   C14   A    
C13   C15   S    
C1    C26   S    
C14   C16   S    
C39   H18   S    
C3    C4    T    
C40   H21   S    
C47   H41   S    
C35   H5    S    
C36   H10   S    
Cu2   N2    S    
C17   O7    A    
C40   H22   S    
C25   C27   A    
C26   C28   A    
C10   N2    A    
C37   H11   S    
C21   C23   A    
C29   C31   A    
C19   H1    S    
C46   H38   S    
C30   C32   A    
C11   C13   A    
C2    O4    A    
C28   C30   A    
C17   C19   S    
C48   O24   D    
C2    C25   S    
C22   C24   A    
C23   C25   A    
C43   H29   S    
C11   C47   S    
C1    O1    A    
O13   C37   S    
C20   H2    S    
C2    O2    A    
C44   H34   S    
O18   C42   S    
C24   O12   S    
O20   C44   S    
O21   C45   S    
C27   O13   S    
C21   C33   S    
C42   H26   S    
C45   H37   S    
C47   O23   D    
C35   H7    S    
