data_mof_unit_6444.cif
_audit_creation_date              2012-12-10T17:02:10-0500
_audit_creation_method            fapswitch 2.2
_symmetry_space_group_name_H-M    P1
_symmetry_Int_Tables_number       1
_space_group_crystal_system       triclinic
_cell_length_a                    10.664046
_cell_length_b                    10.672567
_cell_length_c                    10.05029
_cell_angle_alpha                 86.285768
_cell_angle_beta                  92.301532
_cell_angle_gamma                 90.568878
_cell_volume                      1140.49692759

loop_
_atom_site_label
_atom_site_type_symbol
_atom_type_description
_atom_site_fract_x
_atom_site_fract_y
_atom_site_fract_z
_atom_type_partial_charge
C1    C     C_R   0.489583 0.261847 0.504494 0.951280
C2    C     C_2   0.455503 0.129720 0.520147 0.013871
C3    C     C_2   0.491144 0.600174 0.917536 -0.148093
C4    C     C_R   0.258876 0.495805 0.496925 0.938910
C5    C     C_2   0.517465 0.599585 0.065150 0.188472
C6    C     C_R   0.502582 0.737431 0.495418 0.952794
C7    C     C_R   0.739138 0.516764 0.502327 0.914460
C8    C     C_R   0.107250 0.359227 0.702204 0.085367
C9    C     C_R   0.052410 0.343158 0.828744 0.171584
C10   C     C_R   0.954270 0.424038 0.858805 0.196746
C11   C     C_R   0.905012 0.510484 0.757653 0.200393
C12   C     C_R   0.059727 0.451409 0.605419 -0.038341
C13   C     C_R   0.944518 0.504227 0.625159 -0.050404
C14   C     C_3   0.121128 0.602903 0.251315 -0.883059
C15   C     C_3   0.464338 0.068275 0.662238 -0.948585
C16   C     C_3   0.415324 0.402085 0.108185 -0.635998
C17   C     C_3   0.100352 0.244776 0.933939 -0.948244
C18   C     C_3   0.901912 0.415003 0.997259 -0.910097
C19   C     C_3   0.830634 0.622688 0.794254 -0.837043
C20   C     C_R   0.123031 0.494499 0.489467 -0.125545
C21   C     C_R   0.057879 0.561021 0.380149 0.134803
C22   C     C_R   0.930265 0.584304 0.391819 0.096455
C23   C     C_R   0.872510 0.544787 0.509870 -0.159978
C24   C     C_2   0.404459 0.931651 0.422764 0.093057
C25   C     C_2   0.503184 0.870134 0.480453 -0.336680
C26   C     C_2   0.408068 0.068780 0.415135 0.071072
H1    H     H_    0.469268 0.688927 0.863431 0.180944
H2    H     H_    0.484949 0.757579 0.157109 0.209450
H3    H     H_    0.632647 0.698490 0.185297 0.228500
H4    H     H_    0.354626 0.374471 0.191728 0.255540
H5    H     H_    0.348265 0.431800 0.024944 0.185259
H6    H     H_    0.468838 0.318018 0.085300 0.188604
H7    H     H_    0.279534 0.283917 0.734311 0.215788
H8    H     H_    0.168963 0.184256 0.672299 0.185169
H9    H     H_    0.177831 0.187133 0.901822 0.228944
H10   H     H_    0.135727 0.290919 0.024082 0.245725
H11   H     H_    0.023092 0.178916 0.961531 0.247968
H12   H     H_    0.543469 0.424726 0.901960 0.182333
H13   H     H_    0.976282 0.438477 0.071947 0.246168
H14   H     H_    0.821662 0.477862 0.008016 0.238462
H15   H     H_    0.867069 0.318259 0.021588 0.245878
H16   H     H_    0.883382 0.671964 0.873122 0.220035
H17   H     H_    0.738167 0.592946 0.831659 0.259693
H18   H     H_    0.815154 0.691960 0.707990 0.226690
H19   H     H_    0.857306 0.602970 0.201198 0.200589
H20   H     H_    0.897073 0.741465 0.269963 0.179757
H21   H     H_    0.288421 0.889968 0.267423 0.169481
H22   H     H_    0.217836 0.897239 0.414420 0.182321
H23   H     H_    0.586724 0.918273 0.516562 0.124313
H24   H     H_    0.415833 0.100713 0.214975 0.181853
H25   H     H_    0.271534 0.116738 0.275795 0.172942
H26   H     H_    0.059229 0.651834 0.174304 0.216708
H27   H     H_    0.198684 0.669320 0.271605 0.268379
H28   H     H_    0.157429 0.519761 0.204715 0.247934
H29   H     H_    0.425109 0.129675 0.734573 0.245147
H30   H     H_    0.409361 0.979768 0.674059 0.256198
H31   H     H_    0.564115 0.050833 0.692963 0.242581
N1    N     N_2   0.501340 0.501330 0.852150 -0.221944
N2    N     N_2   0.501380 0.501360 0.147810 -0.063560
N3    N     N_3   0.560232 0.716051 0.113896 -0.481181
N4    N     N_3   0.203561 0.276356 0.666427 -0.460433
N5    N     N_3   0.857791 0.652107 0.287751 -0.468111
N6    N     N_3   0.297598 0.865862 0.369777 -0.461731
N7    N     N_3   0.367013 0.135491 0.292708 -0.464009
O1    O     O_R   0.499980 0.319060 0.613040 -0.621233
O2    O     O_R   0.500020 0.319100 0.386900 -0.598536
O3    O     O_R   0.316750 0.499980 0.613090 -0.600739
O4    O     O_R   0.316790 0.500020 0.386950 -0.627725
O5    O     O_R   0.499980 0.680900 0.613100 -0.623814
O6    O     O_R   0.500020 0.680940 0.386960 -0.623615
O7    O     O_R   0.683210 0.499980 0.613050 -0.612427
O8    O     O_R   0.683250 0.500020 0.386910 -0.595262
Zn1   Zn    Zn3+2 0.499970 0.499970 0.650990 0.923402
Zn2   Zn    Zn3+2 0.500030 0.500030 0.349010 0.934369

loop_
_geom_bond_atom_site_label_1
_geom_bond_atom_site_label_2
_ccdc_geom_bond_type
O6    Zn2   S    
C6    O5    A    
C1    O1    A    
C18   H13   S    
H3    N3    S    
O5    Zn1   S    
O3    Zn1   S    
C17   H10   S    
C22   N5    S    
H24   N7    S    
C9    C10   A    
O4    Zn2   S    
C19   H16   S    
C8    N4    S    
C8    C12   A    
C15   H30   S    
C12   C20   A    
C3    H1    S    
C1    O2    A    
C2    C26   D    
C15   H29   S    
C17   H11   S    
C21   C22   A    
C19   H18   S    
C16   H5    S    
H21   N6    S    
C2    C15   S    
C15   H31   S    
N2    Zn2   S    
C11   C19   S    
H20   N5    S    
C7    C23   S    
C14   C21   S    
O8    Zn2   S    
C14   H28   S    
C24   C26   S    
C24   N6    S    
C9    C17   S    
H2    N3    S    
C7    O7    A    
C10   C18   S    
C25   H23   S    
C6    C25   S    
C16   H6    S    
C10   C11   A    
C5    N2    D    
C16   H4    S    
O2    Zn2   S    
C3    N1    D    
H19   N5    S    
C11   C13   A    
C14   H27   S    
O1    Zn1   S    
C24   C25   D    
C13   C23   A    
H7    N4    S    
C1    C2    S    
C18   H15   S    
O7    Zn1   S    
C7    O8    A    
C6    O6    A    
C26   N7    S    
C22   C23   A    
H22   N6    S    
C18   H14   S    
C17   H9    S    
C5    N3    S    
C12   C13   A    
C20   C21   A    
H12   N1    S    
C4    O4    A    
C16   N2    S    
H8    N4    S    
C14   H26   S    
H25   N7    S    
N1    Zn1   S    
C19   H17   S    
C8    C9    A    
C3    C5    S    
C4    O3    A    
C4    C20   S    
