data_mof_unit_35283.cif
_audit_creation_date              2012-12-11T14:44:02-0500
_audit_creation_method            fapswitch 2.2
_symmetry_space_group_name_H-M    P1
_symmetry_Int_Tables_number       1
_space_group_crystal_system       triclinic
_cell_length_a                    24.723264
_cell_length_b                    16.836183
_cell_length_c                    15.661233
_cell_angle_alpha                 89.99996
_cell_angle_beta                  50.55753
_cell_angle_gamma                 89.999492
_cell_volume                      5034.31691189

loop_
_atom_site_label
_atom_site_type_symbol
_atom_type_description
_atom_site_fract_x
_atom_site_fract_y
_atom_site_fract_z
_atom_type_partial_charge
Br1   Br    Br    0.243189 0.060564 0.853580 -0.568658
Br2   Br    Br    0.746682 0.845060 0.165152 -0.576536
Br3   Br    Br    0.756811 0.060566 0.146419 -0.568656
Br4   Br    Br    0.253319 0.845060 0.834842 -0.576521
Br5   Br    Br    0.743189 0.560566 0.853580 -0.568659
Br6   Br    Br    0.246682 0.345060 0.165149 -0.576542
Br7   Br    Br    0.256811 0.560565 0.146419 -0.568654
Br8   Br    Br    0.753318 0.345062 0.834844 -0.576522
C1    C     C_R   0.331820 0.101859 0.803850 0.272688
C2    C     C_3   0.785352 0.826719 0.574490 -0.160562
C3    C     C_3   0.727071 0.267681 0.571727 -0.151159
C4    C     C_3   0.214546 0.826803 0.425658 -0.160526
C5    C     C_3   0.773030 0.767746 0.428131 -0.151243
C6    C     C_3   0.285307 0.326681 0.574556 -0.160579
C7    C     C_3   0.227073 0.767680 0.571724 -0.151158
C8    C     C_3   0.714549 0.326801 0.425656 -0.160526
C9    C     C_2   0.700997 0.136155 0.012014 -0.149737
C10   C     C_2   0.366273 0.737977 0.847022 -0.180113
C11   C     C_2   0.299001 0.136148 0.987991 -0.149736
C12   C     C_R   0.648254 0.853904 0.240723 0.350877
C13   C     C_2   0.633726 0.737975 0.152981 -0.180111
C14   C     C_2   0.200998 0.636152 0.012012 -0.149734
C15   C     C_2   0.866271 0.237981 0.847029 -0.180113
C16   C     C_2   0.799003 0.636151 0.987989 -0.149737
C17   C     C_2   0.133724 0.237972 0.152986 -0.180111
C18   C     C_2   0.761974 0.167550 0.974884 -0.006016
C19   C     C_2   0.316460 0.692930 0.862254 -0.082979
C20   C     C_2   0.238021 0.167539 0.025127 -0.006016
C21   C     C_2   0.683541 0.692929 0.137748 -0.082984
C22   C     C_2   0.261977 0.667545 0.974878 -0.006017
C23   C     C_R   0.668179 0.101861 0.196152 0.272703
C24   C     C_2   0.816458 0.192934 0.862260 -0.082975
C25   C     C_2   0.738023 0.667544 0.025123 -0.006015
C26   C     C_2   0.183539 0.192926 0.137752 -0.082988
C27   C     C_R   0.586373 0.149081 0.592968 -0.125525
C28   C     C_R   0.385545 0.892081 0.406625 -0.136566
C29   C     C_R   0.413634 0.149090 0.407038 -0.125571
C30   C     C_R   0.614454 0.892070 0.593373 -0.136595
C31   C     C_R   0.086373 0.649081 0.592968 -0.125526
C32   C     C_R   0.885545 0.392081 0.406625 -0.136566
C33   C     C_R   0.913632 0.649087 0.407036 -0.125556
C34   C     C_R   0.351746 0.853904 0.759276 0.350880
C35   C     C_R   0.114453 0.392065 0.593372 -0.136610
C36   C     C_R   0.660079 0.149315 0.408416 -0.109592
C37   C     C_R   0.309845 0.897361 0.589609 -0.069136
C38   C     C_R   0.339929 0.149320 0.591586 -0.109531
C39   C     C_R   0.690154 0.897352 0.410388 -0.069141
C40   C     C_R   0.160079 0.649315 0.408416 -0.109590
C41   C     C_R   0.809845 0.397360 0.589610 -0.069137
C42   C     C_R   0.839927 0.649319 0.591586 -0.109550
C43   C     C_R   0.190153 0.397348 0.410388 -0.069143
C44   C     C_R   0.579422 0.103165 0.193974 -0.183410
C45   C     C_R   0.831821 0.601860 0.803849 0.272693
C46   C     C_R   0.444773 0.855734 0.752255 -0.188819
C47   C     C_R   0.420577 0.103163 0.806027 -0.183398
C48   C     C_R   0.555226 0.855733 0.247746 -0.188822
C49   C     C_R   0.079422 0.603164 0.193973 -0.183407
C50   C     C_R   0.944772 0.355735 0.752258 -0.188817
C51   C     C_R   0.920578 0.603164 0.806026 -0.183398
C52   C     C_R   0.055226 0.355732 0.247748 -0.188823
C53   C     C_R   0.349595 0.119062 0.869417 0.057130
C54   C     C_R   0.611427 0.810316 0.217173 0.032649
C55   C     C_R   0.650403 0.119066 0.130586 0.057124
C56   C     C_R   0.148254 0.353903 0.240724 0.350878
C57   C     C_R   0.388573 0.810316 0.782828 0.032646
C58   C     C_R   0.849596 0.619064 0.869415 0.057128
C59   C     C_R   0.111426 0.310314 0.217176 0.032652
C60   C     C_R   0.150404 0.619064 0.130585 0.057124
C61   C     C_R   0.888572 0.310319 0.782833 0.032646
C62   C     C_R   0.634872 0.194079 0.500941 0.008162
C63   C     C_R   0.317957 0.877380 0.497376 -0.004418
C64   C     C_R   0.365144 0.194095 0.499066 0.008128
C65   C     C_R   0.682040 0.877362 0.502620 -0.004387
C66   C     C_R   0.134872 0.694079 0.500941 0.008162
C67   C     C_R   0.168179 0.601860 0.196151 0.272703
C68   C     C_R   0.817957 0.377380 0.497376 -0.004415
C69   C     C_R   0.865140 0.694090 0.499064 0.008138
C70   C     C_R   0.182039 0.377353 0.502618 -0.004377
C71   C     C_3   0.341578 0.299292 0.398794 -0.141644
C72   C     C_3   0.716688 0.795382 0.603330 -0.147326
C73   C     C_3   0.658475 0.299137 0.601283 -0.141611
C74   C     C_3   0.283279 0.795510 0.396618 -0.147357
C75   C     C_3   0.841562 0.799244 0.398770 -0.141635
C76   C     C_3   0.216673 0.295324 0.603307 -0.147310
C77   C     C_3   0.158476 0.799135 0.601284 -0.141608
C78   C     C_R   0.851745 0.353906 0.759279 0.350878
C79   C     C_3   0.783280 0.295507 0.396619 -0.147358
C80   C     C_3   0.802313 0.872784 0.473769 -0.138135
C81   C     C_3   0.255359 0.222946 0.528139 -0.135730
C82   C     C_3   0.197618 0.872760 0.526427 -0.138156
C83   C     C_3   0.744742 0.223006 0.471589 -0.135819
C84   C     C_3   0.302282 0.372794 0.473855 -0.138129
C85   C     C_3   0.755328 0.722965 0.528224 -0.135757
C86   C     C_3   0.697620 0.372760 0.526423 -0.138154
C87   C     C_3   0.244743 0.723007 0.471585 -0.135821
C88   C     C_3   0.734535 0.839965 0.503033 0.174373
C89   C     C_3   0.273075 0.267775 0.428066 -0.151283
C90   C     C_3   0.323491 0.254556 0.499227 0.172005
C91   C     C_3   0.265464 0.839984 0.496962 0.174374
C92   C     C_3   0.676514 0.254554 0.500786 0.171987
C93   C     C_3   0.234535 0.339956 0.503031 0.174373
C94   C     C_3   0.823490 0.754556 0.499223 0.171999
C95   C     C_3   0.765464 0.339983 0.496962 0.174373
C96   C     C_3   0.176514 0.754555 0.500786 0.171986
H1    H     H_    0.559015 0.164096 0.678633 0.106991
H2    H     H_    0.260262 0.905648 0.670867 0.179756
H3    H     H_    0.299201 0.166338 0.676506 0.143236
H4    H     H_    0.739737 0.905640 0.329132 0.179744
H5    H     H_    0.200806 0.666334 0.323497 0.143252
H6    H     H_    0.760262 0.405647 0.670867 0.179755
H7    H     H_    0.799199 0.666337 0.676506 0.143242
H8    H     H_    0.239736 0.405636 0.329132 0.179740
H9    H     H_    0.551008 0.097956 0.162981 0.117016
H10   H     H_    0.482041 0.840992 0.764202 0.124402
H11   H     H_    0.448992 0.097953 0.837020 0.117011
H12   H     H_    0.406685 0.892707 0.321381 0.093947
H13   H     H_    0.517957 0.840991 0.235802 0.124408
H14   H     H_    0.051008 0.597955 0.162980 0.117015
H15   H     H_    0.982040 0.340994 0.764206 0.124399
H16   H     H_    0.948992 0.597954 0.837020 0.117011
H17   H     H_    0.017956 0.340990 0.235804 0.124408
H18   H     H_    0.819778 0.935524 0.451756 0.123001
H19   H     H_    0.236574 0.160555 0.550226 0.127698
H20   H     H_    0.180095 0.935474 0.548596 0.123029
H21   H     H_    0.763613 0.160654 0.449276 0.127742
H22   H     H_    0.319722 0.435546 0.451913 0.122989
H23   H     H_    0.440990 0.164109 0.321375 0.107033
H24   H     H_    0.736516 0.660587 0.550381 0.127713
H25   H     H_    0.680097 0.435475 0.548589 0.123029
H26   H     H_    0.263615 0.660656 0.449269 0.127743
H27   H     H_    0.393738 0.300255 0.315200 0.129064
H28   H     H_    0.664836 0.793796 0.687336 0.117028
H29   H     H_    0.606357 0.299969 0.684943 0.129030
H30   H     H_    0.335102 0.794022 0.312567 0.117008
H31   H     H_    0.893708 0.800166 0.315156 0.129053
H32   H     H_    0.164808 0.293694 0.687293 0.117037
H33   H     H_    0.106359 0.799965 0.684945 0.129029
H34   H     H_    0.593315 0.892694 0.678617 0.093959
H35   H     H_    0.835104 0.294018 0.312570 0.117009
H36   H     H_    0.267050 0.244015 0.368357 0.139146
H37   H     H_    0.791968 0.849574 0.633838 0.123845
H38   H     H_    0.733217 0.243832 0.631262 0.139071
H39   H     H_    0.207844 0.849719 0.366434 0.123851
H40   H     H_    0.766968 0.743958 0.368475 0.139123
H41   H     H_    0.291885 0.349508 0.633958 0.123842
H42   H     H_    0.233220 0.743830 0.631256 0.139070
H43   H     H_    0.707848 0.349715 0.366429 0.123850
H44   H     H_    0.306486 0.692979 0.803977 0.157153
H45   H     H_    0.059015 0.664096 0.678633 0.106990
H46   H     H_    0.768799 0.185492 0.034102 0.152167
H47   H     H_    0.693516 0.692980 0.196023 0.157154
H48   H     H_    0.231193 0.185481 0.965912 0.152171
H49   H     H_    0.806485 0.192982 0.803981 0.157151
H50   H     H_    0.268802 0.685487 0.034096 0.152170
H51   H     H_    0.193515 0.192978 0.196026 0.157156
H52   H     H_    0.731197 0.685487 0.965907 0.152170
H53   H     H_    0.378825 0.732968 0.902029 0.147574
H54   H     H_    0.688394 0.125952 0.957923 0.136843
H55   H     H_    0.621173 0.732966 0.097976 0.147576
H56   H     H_    0.906685 0.392707 0.321381 0.093948
H57   H     H_    0.311607 0.125946 0.042079 0.136838
H58   H     H_    0.878821 0.232974 0.902037 0.147574
H59   H     H_    0.188394 0.625949 0.957921 0.136842
H60   H     H_    0.121170 0.232961 0.097982 0.147575
H61   H     H_    0.811607 0.625948 0.042078 0.136840
H62   H     H_    0.940989 0.664105 0.321373 0.107020
H63   H     H_    0.093315 0.392688 0.678616 0.093965
H64   H     H_    0.700806 0.166334 0.323497 0.143252
N1    N     N_R   0.389620 0.081040 0.705440 -0.068946
N2    N     N_R   0.417680 0.920160 0.443370 -0.045708
N3    N     N_R   0.417680 0.079840 0.443370 -0.044732
N4    N     N_R   0.582320 0.920160 0.556630 -0.045704
N5    N     N_R   0.082320 0.579840 0.556630 -0.044729
N6    N     N_R   0.917680 0.420160 0.443370 -0.045708
N7    N     N_R   0.917680 0.579840 0.443370 -0.044731
N8    N     N_R   0.082320 0.420160 0.556630 -0.045702
N9    N     N_R   0.627920 0.078930 0.443400 -0.031166
N10   N     N_R   0.372080 0.921070 0.556600 -0.042890
N11   N     N_R   0.372080 0.078930 0.556600 -0.031170
N12   N     N_R   0.610380 0.918960 0.294560 -0.062158
N13   N     N_R   0.627920 0.921070 0.443400 -0.042887
N14   N     N_R   0.127920 0.578930 0.443400 -0.031166
N15   N     N_R   0.872080 0.421070 0.556600 -0.042889
N16   N     N_R   0.872080 0.578930 0.556600 -0.031169
N17   N     N_R   0.127920 0.421070 0.443400 -0.042886
N18   N     N_R   0.555090 0.077730 0.294590 -0.058743
N19   N     N_R   0.444910 0.922270 0.705410 -0.059738
N20   N     N_R   0.444910 0.077730 0.705410 -0.058745
N21   N     N_R   0.555090 0.922270 0.294590 -0.059738
N22   N     N_R   0.055090 0.577730 0.294590 -0.058744
N23   N     N_R   0.610380 0.081040 0.294560 -0.068944
N24   N     N_R   0.944910 0.422270 0.705410 -0.059738
N25   N     N_R   0.944910 0.577730 0.705410 -0.058745
N26   N     N_R   0.055090 0.422270 0.294590 -0.059738
N27   N     N_R   0.389620 0.918960 0.705440 -0.062159
N28   N     N_R   0.889620 0.581040 0.705440 -0.068946
N29   N     N_R   0.110380 0.418960 0.294560 -0.062158
N30   N     N_R   0.110380 0.581040 0.294560 -0.068945
N31   N     N_R   0.889620 0.418960 0.705440 -0.062160
N32   N     N_R   0.582320 0.079840 0.556630 -0.044729
Ni1   Ni    Ni4+2 0.382970 0.000000 0.629840 0.283352
Ni2   Ni    Ni4+2 0.617030 1.000000 0.370160 0.283354
Ni3   Ni    Ni4+2 0.882970 0.500000 0.629840 0.283351
Ni4   Ni    Ni4+2 0.117030 0.500000 0.370160 0.283355
Ni5   Ni    Ni4+2 0.514540 0.000000 0.629840 0.200134
Ni6   Ni    Ni4+2 0.485460 1.000000 0.370160 0.200129
Ni7   Ni    Ni4+2 0.014540 0.500000 0.629840 0.200135
Ni8   Ni    Ni4+2 0.985460 0.500000 0.370160 0.200130

loop_
_geom_bond_atom_site_label_1
_geom_bond_atom_site_label_2
_ccdc_geom_bond_type
N6    Ni8   S    
C80   C88   S    
C18   C24   S    
N32   Ni5   S    
C72   H28   S    
C75   C94   S    
C21   C25   S    
C8    C86   S    
C37   C63   A    
C74   C91   S    
C15   C61   S    
C71   C90   S    
C1    N1    A    
N13   Ni2   S    
C17   C59   S    
C6    C76   S    
C31   N5    A    
C25   H52   S    
C52   N26   A    
N8    N17   A    
C12   N12   A    
C46   C57   A    
C64   C90   S    
C26   H51   S    
C51   N25   A    
C10   C57   S    
C14   H59   S    
C6    H41   S    
C2    C80   S    
C43   H8    S    
C47   H11   S    
N2    N10   A    
C8    H43   S    
C1    C53   A    
C9    C18   D    
N8    Ni7   S    
C4    C82   S    
N4    Ni5   S    
C4    C96   S    
N12   Ni2   S    
N12   N21   A    
C51   C58   A    
C7    C87   S    
C33   C69   A    
C5    H40   S    
N26   N29   A    
N5    N14   A    
C17   H60   S    
C23   N23   A    
N29   Ni4   S    
C11   H57   S    
C31   C66   A    
Br6   C56   S    
N18   N23   A    
C81   C89   S    
C42   H7    S    
C41   N15   A    
N4    N13   A    
C76   H32   S    
N11   Ni1   S    
C52   C59   A    
C19   H44   S    
N9    N32   A    
C8    C79   S    
C36   C62   A    
N23   Ni2   S    
C83   C92   S    
C72   C88   S    
C83   H21   S    
C89   H36   S    
C75   H31   S    
C28   C63   A    
C39   N13   A    
C17   C26   D    
C7    C77   S    
C15   H58   S    
C68   C95   S    
C75   C80   S    
C33   N7    A    
C20   C26   S    
C49   H14   S    
N16   Ni3   S    
C56   N29   A    
C33   H62   S    
C19   C22   S    
N31   Ni3   S    
C76   C93   S    
C13   H55   S    
N3    N11   A    
C69   C94   S    
C52   H17   S    
C44   N18   A    
N7    Ni8   S    
C38   N11   A    
C62   C92   S    
C27   N32   A    
C6    C90   S    
C51   H16   S    
C13   C21   D    
N20   Ni5   S    
C86   H25   S    
C79   C83   S    
N18   Ni6   S    
C5    C88   S    
Br2   C12   S    
C11   C20   D    
C56   C59   A    
C23   C55   A    
C2    C94   S    
Br1   C1    S    
C39   C65   A    
C36   N9    A    
C80   H18   S    
C79   H35   S    
C36   H64   S    
C8    C92   S    
Br7   C67   S    
C81   H19   S    
C44   H9    S    
C63   C91   S    
N25   Ni7   S    
C3    C73   S    
C32   C68   A    
C5    C85   S    
C60   C67   A    
C2    H37   S    
C74   H30   S    
C70   C93   S    
C87   C96   S    
C43   N17   A    
C40   C66   A    
C21   H47   S    
C35   C70   A    
C35   N8    A    
C71   C89   S    
C18   H46   S    
N21   Ni6   S    
N25   N28   A    
C71   H27   S    
C38   H3    S    
N19   Ni5   S    
C30   H34   S    
C41   C68   A    
C4    C74   S    
N5    Ni7   S    
C47   N20   A    
N3    Ni6   S    
Br3   C23   S    
C9    H54   S    
C14   C60   S    
C13   C54   S    
C77   C96   S    
C84   C93   S    
C79   C95   S    
C37   N10   A    
C78   N31   A    
N22   Ni8   S    
C6    C84   S    
C86   C95   S    
C20   H48   S    
C35   H63   S    
C46   N19   A    
C27   C62   A    
N2    Ni6   S    
C50   N24   A    
N24   Ni7   S    
C48   C54   A    
C29   C64   A    
C76   C81   S    
C47   C53   A    
C49   C60   A    
C28   H12   S    
C42   C69   A    
C77   H33   S    
C82   C91   S    
N14   Ni4   S    
C37   H2    S    
N22   N30   A    
C66   C96   S    
C67   N30   A    
Br5   C45   S    
C34   C57   A    
C31   H45   S    
C48   N21   A    
C71   C84   S    
C2    C72   S    
C74   C87   S    
C14   C22   D    
N19   N27   A    
C82   H20   S    
C73   H29   S    
N24   N31   A    
C42   N16   A    
C10   C19   D    
N1    N20   A    
C7    C91   S    
C44   C55   A    
C84   H22   S    
C85   C94   S    
C29   N3    A    
C7    H42   S    
C77   C82   S    
C50   C61   A    
C30   N4    A    
N27   Ni1   S    
C73   C92   S    
C16   C58   S    
N26   Ni8   S    
C5    C75   S    
C28   N2    A    
C16   C25   D    
C4    H39   S    
C81   C90   S    
N30   Ni4   S    
N28   Ni3   S    
C15   C24   D    
C16   H61   S    
C43   C70   A    
N15   Ni3   S    
C49   N22   A    
C10   H53   S    
C45   C58   A    
C9    C55   S    
C40   N14   A    
C73   C86   S    
Br4   C34   S    
C11   C53   S    
C46   H10   S    
C50   H15   S    
C40   H5    S    
Br8   C78   S    
C32   H56   S    
C12   C54   A    
C34   N27   A    
C3    H38   S    
C85   H24   S    
N1    Ni1   S    
C24   H49   S    
C3    C83   S    
C22   H50   S    
C32   N6    A    
C87   H26   S    
C39   H4    S    
N10   Ni1   S    
N17   Ni4   S    
C45   N28   A    
N9    Ni2   S    
C41   H6    S    
C3    C95   S    
C27   H1    S    
C38   C64   A    
C65   C88   S    
C72   C85   S    
N6    N15   A    
C89   C93   S    
C61   C78   A    
C48   H13   S    
N7    N16   A    
C29   H23   S    
C30   C65   A    
