data_mof_unit_55926.cif
_audit_creation_date              2013-03-05T15:40:17-0500
_audit_creation_method            fapswitch 2.2
_symmetry_space_group_name_H-M    P1
_symmetry_Int_Tables_number       1
_space_group_crystal_system       triclinic
_cell_length_a                    28.307864
_cell_length_b                    18.512132
_cell_length_c                    17.093652
_cell_angle_alpha                 89.6504
_cell_angle_beta                  60.415729
_cell_angle_gamma                 89.867738
_cell_volume                      7789.77530562

loop_
_atom_site_label
_atom_site_type_symbol
_atom_site_description
_atom_site_fract_x
_atom_site_fract_y
_atom_site_fract_z
_atom_type_partial_charge
O1    O     O_R   0.746490 0.236330 0.638080 -0.608094
O2    O     O_R   0.253510 0.763670 0.361920 -0.622399
O3    O     O_R   0.253510 0.236330 0.361920 -0.609656
O4    O     O_R   0.746490 0.763670 0.638080 -0.617543
O5    O     O_R   0.246490 0.736330 0.638080 -0.608155
O6    O     O_R   0.753510 0.263670 0.361920 -0.622411
O7    O     O_R   0.753510 0.736330 0.361920 -0.609603
O8    O     O_R   0.246490 0.263670 0.638080 -0.617544
O9    O     O_R   0.674170 0.186160 0.516270 -0.567375
O10   O     O_R   0.325830 0.813840 0.483730 -0.541312
O11   O     O_R   0.325830 0.186160 0.483730 -0.563431
O12   O     O_R   0.674170 0.813840 0.516270 -0.543422
O13   O     O_R   0.174170 0.686160 0.516270 -0.567367
O14   O     O_R   0.825830 0.313840 0.483730 -0.541362
O15   O     O_R   0.825830 0.686160 0.483730 -0.563440
O16   O     O_R   0.174170 0.313840 0.516270 -0.543387
O17   O     O_R   0.739960 0.127620 0.525000 -0.627165
O18   O     O_R   0.260040 0.872380 0.475000 -0.640921
O19   O     O_R   0.260040 0.127620 0.475000 -0.625240
O20   O     O_R   0.739960 0.872380 0.525000 -0.644476
O21   O     O_R   0.239960 0.627620 0.525000 -0.627177
O22   O     O_R   0.760040 0.372380 0.475000 -0.640933
O23   O     O_R   0.760040 0.627620 0.475000 -0.625234
O24   O     O_R   0.239960 0.372380 0.525000 -0.644474
O25   O     O_R   0.680700 0.294870 0.629350 -0.612924
O26   O     O_R   0.319300 0.705130 0.370650 -0.610828
O27   O     O_R   0.319300 0.294870 0.370650 -0.613160
O28   O     O_R   0.680700 0.705130 0.629350 -0.611555
O29   O     O_R   0.180700 0.794870 0.629350 -0.612915
O30   O     O_R   0.819300 0.205130 0.370650 -0.610859
O31   O     O_R   0.819300 0.794870 0.370650 -0.613170
O32   O     O_R   0.180700 0.205130 0.629350 -0.611517
C1    C     C_R   0.701944 0.269012 0.675819 0.864296
C2    C     C_R   0.298225 0.731341 0.324106 0.867853
C3    C     C_R   0.296714 0.272401 0.325294 0.862868
C4    C     C_R   0.700306 0.734348 0.676193 0.866506
C5    C     C_R   0.201948 0.769021 0.675817 0.864276
C6    C     C_R   0.798229 0.231349 0.324105 0.867845
C7    C     C_R   0.796714 0.772401 0.325294 0.862897
C8    C     C_R   0.200306 0.234347 0.676193 0.866511
C9    C     C_R   0.691422 0.129446 0.534236 0.856271
C10   C     C_R   0.304651 0.872233 0.479062 0.905006
C11   C     C_R   0.308641 0.129661 0.465419 0.864203
C12   C     C_R   0.695535 0.872192 0.520415 0.896718
C13   C     C_R   0.191422 0.629447 0.534238 0.856267
C14   C     C_R   0.804647 0.372234 0.479074 0.905055
C15   C     C_R   0.808640 0.629661 0.465419 0.864207
C16   C     C_R   0.195531 0.372192 0.520425 0.896670
Zn1   Zn    Zn3+2 0.792340 0.208750 0.507670 1.113730
Zn2   Zn    Zn3+2 0.207660 0.791250 0.492330 1.107910
Zn3   Zn    Zn3+2 0.207660 0.208750 0.492330 1.113695
Zn4   Zn    Zn3+2 0.792340 0.791250 0.507670 1.111214
Zn5   Zn    Zn3+2 0.292340 0.708750 0.507670 1.113697
Zn6   Zn    Zn3+2 0.707660 0.291250 0.492330 1.107869
Zn7   Zn    Zn3+2 0.707660 0.708750 0.492330 1.113713
Zn8   Zn    Zn3+2 0.292340 0.291250 0.507670 1.111211
C17   C     C_R   0.540058 0.134431 0.525839 -0.105295
C18   C     C_R   0.448677 0.873681 0.507890 -0.203148
C19   C     C_R   0.461056 0.134538 0.468923 -0.103249
C20   C     C_R   0.554197 0.874080 0.485421 -0.202048
C21   C     C_R   0.040045 0.634433 0.525884 -0.105296
C22   C     C_R   0.948605 0.373689 0.508077 -0.203160
C23   C     C_R   0.961043 0.634535 0.468967 -0.103268
C24   C     C_R   0.054125 0.374069 0.485605 -0.202047
C25   C     C_R   0.519354 0.200766 0.513223 0.211792
C26   C     C_R   0.474715 0.807164 0.503964 0.210637
C27   C     C_R   0.481644 0.200832 0.481181 0.211520
C28   C     C_R   0.528756 0.807398 0.488345 0.211615
C29   C     C_R   0.019350 0.700768 0.513244 0.211800
C30   C     C_R   0.974625 0.307169 0.504211 0.210775
C31   C     C_R   0.981640 0.700831 0.481203 0.211566
C32   C     C_R   0.028665 0.307389 0.488591 0.211512
C33   C     C_R   0.479321 0.069615 0.487531 -0.048218
C34   C     C_R   0.525748 0.938677 0.497197 -0.005536
C35   C     C_R   0.522214 0.069623 0.506923 -0.049780
C36   C     C_R   0.476674 0.938549 0.496444 -0.006012
C37   C     C_R   0.979293 0.569615 0.487610 -0.048247
C38   C     C_R   0.025690 0.438673 0.497349 -0.005538
C39   C     C_R   0.022186 0.569623 0.507001 -0.049792
C40   C     C_R   0.976616 0.438550 0.496598 -0.006024
C41   C     C_R   0.954968 0.503866 0.486451 0.021486
C42   C     C_R   0.046793 0.503990 0.508185 0.021447
C43   C     C_R   0.455008 0.003865 0.486343 0.021492
C44   C     C_R   0.546832 0.003992 0.508080 0.021465
C45   C     C_R   0.878458 0.438680 0.493028 0.022161
C46   C     C_R   0.108698 0.566802 0.545207 -0.071311
C47   C     C_R   0.123062 0.439109 0.503166 0.022894
C48   C     C_R   0.892103 0.566884 0.451306 -0.070148
C49   C     C_R   0.378494 0.938673 0.492945 0.022167
C50   C     C_R   0.608710 0.066801 0.545167 -0.071295
C51   C     C_R   0.623095 0.939118 0.503087 0.022887
C52   C     C_R   0.392115 0.066886 0.451265 -0.070151
C53   C     C_R   0.833651 0.437829 0.476447 -0.095636
C54   C     C_R   0.158394 0.565178 0.548375 -0.123677
C55   C     C_R   0.167011 0.437909 0.521746 -0.091529
C56   C     C_R   0.841909 0.565430 0.449982 -0.125205
C57   C     C_R   0.333666 0.937826 0.476413 -0.095656
C58   C     C_R   0.658397 0.065177 0.548363 -0.123686
C59   C     C_R   0.667024 0.937913 0.521715 -0.091505
C60   C     C_R   0.341912 0.065431 0.449971 -0.125191
C61   C     C_R   0.816856 0.500695 0.454128 -0.282292
C62   C     C_R   0.183316 0.500416 0.544927 -0.283045
C63   C     C_R   0.316857 0.000695 0.454125 -0.282276
C64   C     C_R   0.683317 0.000415 0.544924 -0.283038
H1    H     H_    0.781127 0.500104 0.446218 0.199469
H2    H     H_    0.218523 0.499583 0.554291 0.199374
H3    H     H_    0.281118 0.000104 0.446247 0.199478
H4    H     H_    0.718513 0.999581 0.554317 0.199368
C65   C     C_R   0.908851 0.502997 0.475617 -0.046858
C66   C     C_R   0.092548 0.503187 0.520019 -0.048369
C67   C     C_R   0.408880 0.002995 0.475537 -0.046852
C68   C     C_R   0.592577 0.003190 0.519942 -0.048361
C69   C     C_R   0.108309 0.379500 0.467541 0.484554
C70   C     C_R   0.924727 0.630354 0.434567 0.485096
C71   C     C_R   0.894129 0.378644 0.527445 0.486580
C72   C     C_R   0.075935 0.630088 0.561194 0.487678
C73   C     C_R   0.608370 0.879517 0.467410 0.484464
C74   C     C_R   0.424734 0.130361 0.434535 0.485113
C75   C     C_R   0.394191 0.878628 0.527309 0.486714
C76   C     C_R   0.575942 0.130082 0.561161 0.487687
C77   C     C_R   0.720837 0.264976 0.953678 -0.037665
C78   C     C_R   0.281053 0.739288 0.044739 -0.063001
C79   C     C_R   0.271284 0.286559 0.053318 -0.104059
C80   C     C_R   0.710268 0.753932 0.963653 -0.107534
C81   C     C_R   0.220843 0.765002 0.953675 -0.037694
C82   C     C_R   0.781057 0.239309 0.044739 -0.063018
C83   C     C_R   0.771282 0.786563 0.053320 -0.104076
C84   C     C_R   0.210270 0.253927 0.963653 -0.107517
C85   C     C_R   0.777214 0.276987 0.910387 -0.249828
C86   C     C_R   0.224696 0.726751 0.087690 -0.325802
C87   C     C_R   0.225580 0.240635 0.092215 -0.207625
C88   C     C_R   0.755105 0.801679 0.925675 -0.203196
C89   C     C_R   0.277202 0.777142 0.910451 -0.249918
C90   C     C_R   0.724679 0.226917 0.087767 -0.325781
C91   C     C_R   0.725573 0.740647 0.092221 -0.207636
C92   C     C_R   0.255102 0.301682 0.925679 -0.203214
H5    H     H_    0.797948 0.297856 0.842125 0.189209
H6    H     H_    0.204289 0.705383 0.155701 0.165086
H7    H     H_    0.212839 0.213703 0.155639 0.185710
H8    H     H_    0.768519 0.827152 0.861311 0.183935
H9    H     H_    0.297922 0.798122 0.842243 0.189241
H10   H     H_    0.704260 0.205652 0.155829 0.165096
H11   H     H_    0.712828 0.713720 0.155649 0.185739
H12   H     H_    0.268512 0.327161 0.861321 0.183929
C93   C     C_R   0.807325 0.265969 0.954722 0.474486
C94   C     C_R   0.194403 0.739446 0.043359 0.475174
C95   C     C_R   0.192168 0.231505 0.054113 0.444942
C96   C     C_R   0.781937 0.822901 0.972417 0.455685
C97   C     C_R   0.307308 0.766095 0.954790 0.474559
C98   C     C_R   0.694381 0.239597 0.043444 0.475143
C99   C     C_R   0.692162 0.731517 0.054117 0.444954
C100  C     C_R   0.281935 0.322902 0.972421 0.455672
C101  C     C_R   0.643605 0.326575 0.946159 -0.102880
C102  C     C_R   0.356747 0.674208 0.053604 -0.189381
C103  C     C_R   0.358479 0.325093 0.052642 -0.185568
C104  C     C_R   0.645461 0.671330 0.941204 -0.201308
C105  C     C_R   0.143598 0.826567 0.946171 -0.102803
C106  C     C_R   0.856741 0.174202 0.053614 -0.189365
C107  C     C_R   0.858478 0.825094 0.052643 -0.185576
C108  C     C_R   0.145462 0.171327 0.941202 -0.201303
H13   H     H_    0.630420 0.347670 0.012782 0.185178
H14   H     H_    0.369896 0.653437 0.986835 0.186712
H15   H     H_    0.377954 0.335990 0.981329 0.205354
H16   H     H_    0.638001 0.640050 0.999456 0.209003
H17   H     H_    0.130400 0.847638 0.012809 0.185155
H18   H     H_    0.869880 0.153413 0.986857 0.186806
H19   H     H_    0.877954 0.835990 0.981330 0.205354
H20   H     H_    0.138004 0.140045 0.999452 0.209011
C109  C     C_R   0.616543 0.347142 0.898637 -0.101448
C110  C     C_R   0.383428 0.652813 0.101466 -0.080797
C111  C     C_R   0.385840 0.344371 0.099775 -0.087191
C112  C     C_R   0.617506 0.651479 0.895586 -0.088571
C113  C     C_R   0.116539 0.847137 0.898644 -0.101468
C114  C     C_R   0.883425 0.152809 0.101472 -0.080824
C115  C     C_R   0.885839 0.844372 0.099775 -0.087183
C116  C     C_R   0.117506 0.151478 0.895586 -0.088590
C117  C     C_R   0.633238 0.322051 0.813625 -0.248707
C118  C     C_R   0.366720 0.677712 0.186572 -0.245594
C119  C     C_R   0.367513 0.321458 0.186176 -0.243192
C120  C     C_R   0.631331 0.680250 0.813176 -0.236272
C121  C     C_R   0.133241 0.822055 0.813626 -0.248723
C122  C     C_R   0.866722 0.177714 0.186573 -0.245595
C123  C     C_R   0.867512 0.821459 0.186176 -0.243202
C124  C     C_R   0.131330 0.180251 0.813177 -0.236257
H21   H     H_    0.612087 0.338371 0.778013 0.195866
H22   H     H_    0.387413 0.660489 0.222600 0.190892
H23   H     H_    0.390454 0.333216 0.220043 0.194381
H24   H     H_    0.611233 0.661922 0.776839 0.191503
H25   H     H_    0.112088 0.838368 0.778016 0.195868
H26   H     H_    0.887413 0.160486 0.222603 0.190879
H27   H     H_    0.890453 0.833216 0.220044 0.194385
H28   H     H_    0.111232 0.161925 0.776840 0.191524
C125  C     C_R   0.679784 0.281839 0.770972 -0.057284
C126  C     C_R   0.320729 0.719027 0.228753 -0.061177
C127  C     C_R   0.317546 0.289562 0.231745 -0.056070
C128  C     C_R   0.675200 0.725380 0.772740 -0.065009
C129  C     C_R   0.179794 0.781858 0.770967 -0.057282
C130  C     C_R   0.820738 0.219042 0.228749 -0.061150
C131  C     C_R   0.817546 0.789563 0.231746 -0.056067
C132  C     C_R   0.175201 0.225380 0.772740 -0.065015
C133  C     C_R   0.708082 0.260674 0.816761 -0.188907
C134  C     C_R   0.293232 0.741765 0.182255 -0.175945
C135  C     C_R   0.285238 0.280018 0.190435 -0.163070
C136  C     C_R   0.699109 0.753760 0.822076 -0.167137
C137  C     C_R   0.208101 0.760712 0.816749 -0.188922
C138  C     C_R   0.793249 0.241797 0.182245 -0.175982
C139  C     C_R   0.785237 0.780019 0.190436 -0.163045
C140  C     C_R   0.199111 0.253757 0.822076 -0.167148
H29   H     H_    0.744916 0.228916 0.782815 0.174596
H30   H     H_    0.256988 0.774703 0.215679 0.171258
H31   H     H_    0.243997 0.261665 0.231613 0.169827
H32   H     H_    0.731303 0.792642 0.788913 0.153217
H33   H     H_    0.244946 0.728977 0.782796 0.174605
H34   H     H_    0.757015 0.274755 0.215664 0.171175
H35   H     H_    0.743997 0.761665 0.231614 0.169840
H36   H     H_    0.231307 0.292636 0.788912 0.153219
C141  C     C_R   0.689739 0.282436 0.905777 0.134294
C142  C     C_R   0.311522 0.720000 0.093246 0.077717
C143  C     C_R   0.305428 0.296848 0.098768 0.093943
C144  C     C_R   0.683649 0.728042 0.909739 0.109499
C145  C     C_R   0.189748 0.782458 0.905773 0.134302
C146  C     C_R   0.811529 0.220018 0.093244 0.077811
C147  C     C_R   0.805426 0.796851 0.098770 0.093940
C148  C     C_R   0.183650 0.228039 0.909739 0.109503
O33   O     O_R   0.062020 0.072840 0.007170 -0.617225
O34   O     O_R   0.937980 0.927160 0.992830 -0.613954
O35   O     O_R   0.937980 0.072840 0.992830 -0.615619
O36   O     O_R   0.062020 0.927160 0.007170 -0.622240
O37   O     O_R   0.562020 0.572840 0.007170 -0.617222
O38   O     O_R   0.437980 0.427160 0.992830 -0.613952
O39   O     O_R   0.437980 0.572840 0.992830 -0.615644
O40   O     O_R   0.562020 0.427160 0.007170 -0.622251
O41   O     O_R   0.947860 0.073950 0.109290 -0.613819
O42   O     O_R   0.052140 0.926050 0.890710 -0.617076
O43   O     O_R   0.052140 0.073950 0.890710 -0.617691
O44   O     O_R   0.947860 0.926050 0.109290 -0.611205
O45   O     O_R   0.447860 0.573950 0.109290 -0.613802
O46   O     O_R   0.552140 0.426050 0.890710 -0.617081
O47   O     O_R   0.552140 0.573950 0.890710 -0.617715
O48   O     O_R   0.447860 0.426050 0.109290 -0.611201
C149  C     C_R   0.075734 0.097296 0.931806 0.899869
C150  C     C_R   0.928241 0.897799 0.064041 0.897576
C151  C     C_R   0.925754 0.099314 0.066176 0.906556
C152  C     C_R   0.074097 0.900486 0.933974 0.890990
C153  C     C_R   0.575733 0.597296 0.931806 0.899854
C154  C     C_R   0.428242 0.397798 0.064040 0.897604
C155  C     C_R   0.425758 0.599319 0.066172 0.906554
C156  C     C_R   0.574102 0.400491 0.933969 0.891006
Zn9   Zn    Zn3+2 0.505960 0.500000 0.080520 1.036384
Zn10  Zn    Zn3+2 0.494040 0.500000 0.919480 1.036357
Zn11  Zn    Zn3+2 0.005960 0.000000 0.080520 1.036390
Zn12  Zn    Zn3+2 0.994040 0.000000 0.919480 1.036435
N1    N     N_R   0.055810 0.240087 0.481816 0.229721
O49   O     O_R   0.058471 0.190836 0.425787 -0.317290
O50   O     O_R   0.077994 0.227828 0.531556 -0.348168
N2    N     N_R   0.962217 0.768466 0.466580 0.273067
O51   O     O_R   0.996341 0.816967 0.413386 -0.311658
O52   O     O_R   0.910584 0.783382 0.510554 -0.333557
N3    N     N_R   0.947950 0.239684 0.510377 0.230493
O53   O     O_R   0.925209 0.228431 0.461410 -0.350820
O54   O     O_R   0.946014 0.189406 0.565424 -0.318461
N4    N     N_R   0.038680 0.768340 0.527477 0.271908
O55   O     O_R   0.004483 0.816810 0.579788 -0.301982
O56   O     O_R   0.090364 0.783138 0.484240 -0.342468
N5    N     N_R   0.555921 0.740103 0.481505 0.229779
O57   O     O_R   0.578061 0.727783 0.531297 -0.348125
O58   O     O_R   0.558658 0.690929 0.425345 -0.317379
N6    N     N_R   0.462210 0.268468 0.466585 0.273058
O59   O     O_R   0.496327 0.316983 0.413406 -0.311782
O60   O     O_R   0.410575 0.283371 0.510567 -0.333547
N7    N     N_R   0.448059 0.739673 0.510072 0.230434
O61   O     O_R   0.446215 0.689320 0.564959 -0.318393
O62   O     O_R   0.425236 0.728490 0.461218 -0.350878
N8    N     N_R   0.538673 0.268337 0.527481 0.271908
O63   O     O_R   0.504469 0.316793 0.579808 -0.301983
O64   O     O_R   0.590355 0.283147 0.484253 -0.342523
O65   O     O_3   0.148731 0.337344 0.401882 -0.734440
H37   H     H_    0.134681 0.313937 0.365454 0.344333
O66   O     O_3   0.926994 0.684222 0.376428 -0.694571
H38   H     H_    0.912906 0.664626 0.338029 0.319040
O67   O     O_3   0.854339 0.335869 0.593946 -0.727017
H39   H     H_    0.869191 0.311919 0.629195 0.346848
O68   O     O_3   0.072785 0.683343 0.619932 -0.693944
H40   H     H_    0.086243 0.663285 0.659240 0.318852
O69   O     O_3   0.648810 0.837367 0.401779 -0.734452
H41   H     H_    0.634795 0.813998 0.365281 0.344337
O70   O     O_3   0.426990 0.184237 0.376414 -0.694578
H42   H     H_    0.412899 0.164646 0.338017 0.319047
O71   O     O_3   0.354420 0.835849 0.593836 -0.727014
H43   H     H_    0.369304 0.811864 0.629016 0.346851
O72   O     O_3   0.572781 0.183328 0.619917 -0.693939
H44   H     H_    0.586236 0.163265 0.659227 0.318853
O73   O     O_3   0.639285 0.225608 0.085787 -0.758078
H45   H     H_    0.626946 0.208884 0.148194 0.346108
O74   O     O_3   0.361744 0.783992 0.908137 -0.751076
H46   H     H_    0.375259 0.790267 0.951117 0.338867
O75   O     O_3   0.315753 0.381935 0.938759 -0.753243
H47   H     H_    0.311209 0.410702 0.990766 0.335460
O76   O     O_3   0.640712 0.705609 0.110717 -0.752147
H48   H     H_    0.615463 0.732414 0.096528 0.336390
O77   O     O_3   0.139330 0.725322 0.085617 -0.758159
H49   H     H_    0.127079 0.707996 0.147732 0.346121
O78   O     O_3   0.861781 0.283754 0.907995 -0.751032
H50   H     H_    0.875302 0.290131 0.950953 0.338832
O79   O     O_3   0.815758 0.881930 0.938750 -0.753217
H51   H     H_    0.811214 0.910702 0.990753 0.335477
O80   O     O_3   0.140720 0.205591 0.110714 -0.752218
H52   H     H_    0.115468 0.232399 0.096533 0.336375

loop_
_geom_bond_atom_site_label_1
_geom_bond_atom_site_label_2
_geom_bond_distance
_ccdc_geom_bond_type
O4    C4    1.259466 A    
O5    C5    1.253119 A    
C130  C138  1.421268 A    
O72   H44   0.991757 S    
O7    Zn7   2.011674 S    
O31   Zn4   2.075100 S    
C111  C119  1.366429 A    
C84   C148  1.529569 S    
C80   C144  1.529566 S    
C119  C127  1.366173 A    
O77   H49   0.991609 S    
C106  H18   1.083620 S    
C44   C68   1.406187 A    
C117  C125  1.369443 A    
C110  C118  1.371226 A    
C78   C86   1.407527 A    
C46   C66   1.408647 A    
C81   C94   1.412098 A    
C12   C59   1.452630 S    
C127  C135  1.416431 A    
N7    O61   1.301188 A    
C125  C133  1.421873 A    
C22   C30   1.418472 A    
N8    O63   1.301093 A    
C109  C117  1.371083 A    
C106  C114  1.414745 A    
C128  C136  1.419827 A    
C19   C33   1.402776 A    
C85   C93   1.406287 A    
C120  C128  1.366794 A    
C55   C62   1.377559 A    
C77   C85   1.406229 A    
C2    C126  1.446750 S    
O48   Zn9   2.006109 S    
C132  C140  1.419831 A    
C33   C35   1.407703 A    
O8    Zn8   2.011674 S    
O6    Zn6   2.017051 S    
C36   C43   1.402352 A    
C92   C100  1.405024 A    
C37   C39   1.407700 A    
C78   C97   1.423648 A    
C99   O76   1.376047 S    
C10   C57   1.455425 S    
C53   C61   1.377353 A    
O27   C3    1.295178 A    
C101  H13   1.083411 S    
C38   C42   1.403033 A    
O78   H50   0.989170 S    
O36   C152  1.229055 A    
C136  H32   1.076085 S    
C20   C73   1.410955 A    
C104  C144  1.408658 A    
C100  O75   1.376608 S    
C74   O70   1.382545 S    
C57   C63   1.377352 A    
C48   C65   1.407887 A    
C30   N3    1.437409 S    
C108  C148  1.408656 A    
O30   Zn1   2.075909 S    
C23   C31   1.420123 A    
C105  H17   1.083419 S    
C86   H6    1.083535 S    
C115  C123  1.366428 A    
C116  C124  1.367000 A    
C79   C100  1.426073 A    
O39   C155  1.228871 A    
N3    O54   1.301293 A    
C52   C67   1.407887 A    
O23   Zn7   2.025698 S    
C96   O79   1.376606 S    
O24   Zn8   2.025698 S    
O9    C9    1.255740 A    
C21   C29   1.419956 A    
C75   O71   1.384490 S    
O12   C12   1.258550 A    
O13   C13   1.255740 A    
C112  C153  1.436207 S    
C18   C75   1.411258 A    
C107  H19   1.079119 S    
C108  H20   1.075780 S    
C47   C69   1.422814 A    
C118  H22   1.084909 S    
C32   N1    1.437219 S    
C85   H5    1.083768 S    
C82   C90   1.407556 A    
O7    C7    1.255485 A    
C72   O68   1.382484 S    
C63   H3    1.084616 S    
O9    Zn6   2.113456 S    
O8    C8    1.259465 A    
C76   O72   1.382485 S    
C33   C43   1.404839 A    
O37   Zn9   1.983243 S    
O11   Zn8   2.114024 S    
O42   C152  1.267073 A    
C1    C125  1.446375 S    
C139  C147  1.410512 A    
O16   Zn3   2.114024 S    
C121  C129  1.369442 A    
C114  C122  1.371223 A    
C18   C36   1.398862 A    
O22   Zn6   2.028092 S    
C47   C66   1.410637 A    
C137  C145  1.404831 A    
O30   C6    1.298812 A    
C34   C36   1.395585 A    
C22   C40   1.398879 A    
O18   C10   1.298538 A    
N1    O49   1.301265 A    
C38   C40   1.395582 A    
C35   C44   1.404134 A    
O34   C150  1.230612 A    
C80   C88   1.413602 A    
C52   C74   1.433640 A    
O43   C149  1.262791 A    
O2    Zn2   2.017051 S    
C19   C27   1.420115 A    
C45   C53   1.429888 A    
C124  C132  1.366795 A    
N2    O52   1.301314 A    
C6    C130  1.446748 S    
C87   C95   1.399177 A    
C101  C141  1.400547 A    
O36   Zn11  1.988659 S    
O37   C153  1.230907 A    
C91   H11   1.078038 S    
O65   H37   0.991120 S    
O46   Zn10  2.005023 S    
C105  C145  1.400526 A    
C135  H31   1.077642 S    
O43   Zn12  2.006108 S    
C133  H29   1.083266 S    
O20   C12   1.298076 A    
C82   C93   1.423668 A    
O41   C151  1.266870 A    
O21   C13   1.303691 A    
O23   C15   1.303340 A    
O24   C16   1.298101 A    
O17   Zn1   2.028092 S    
C103  H15   1.079121 S    
C104  C112  1.408352 A    
C47   C55   1.427964 A    
O40   C156  1.229060 A    
C50   C76   1.433870 A    
C51   C68   1.410633 A    
C4    C128  1.447531 S    
O73   H45   0.992160 S    
O3    C3    1.255487 A    
C15   C56   1.457271 S    
C51   C73   1.422788 A    
O71   H43   0.991122 S    
N5    O58   1.301202 A    
C20   C28   1.418721 A    
C70   O66   1.382550 S    
C17   C76   1.416854 A    
C80   C99   1.427117 A    
C19   C74   1.416480 A    
O29   C5    1.299019 A    
C79   C143  1.522562 S    
C77   C141  1.502339 S    
C102  H14   1.083621 S    
C34   C44   1.403033 A    
O38   C154  1.230613 A    
C39   C42   1.404127 A    
N4    O55   1.301094 A    
C81   C145  1.502291 S    
C140  C148  1.417170 A    
C122  H26   1.084908 S    
C17   C35   1.402815 A    
C22   C71   1.411264 A    
C27   N6    1.435672 S    
C138  H34   1.083263 S    
C138  C146  1.405003 A    
N8    O64   1.301338 A    
C109  C156  1.438358 S    
O12   Zn7   2.114024 S    
C87   H7    1.078040 S    
C113  C121  1.371086 A    
O13   Zn2   2.113456 S    
O33   Zn11  1.983243 S    
O46   C156  1.267061 A    
O68   H40   0.991758 S    
O40   Zn9   1.988659 S    
C51   C59   1.427939 A    
O6    C6    1.253636 A    
C73   O69   1.384346 S    
C93   O78   1.380598 S    
O25   C1    1.299014 A    
C115  C150  1.437439 S    
C48   C56   1.432499 A    
O10   C10   1.255991 A    
C129  C137  1.421882 A    
O14   C14   1.256011 A    
C71   O67   1.384490 S    
O34   Zn12  1.983244 S    
C118  C126  1.369331 A    
C136  C144  1.417168 A    
C102  C110  1.414753 A    
C83   C91   1.409790 A    
C45   C65   1.412076 A    
C84   C92   1.413604 A    
C119  H23   1.085200 S    
O33   C149  1.230907 A    
C126  C134  1.421282 A    
C117  H21   1.084955 S    
O10   Zn5   2.113456 S    
C7    C131  1.438511 S    
C26   N7    1.437446 S    
C120  H24   1.084897 S    
C121  H25   1.084955 S    
C49   C75   1.423221 A    
C25   C27   1.420142 A    
O66   H38   0.991727 S    
C124  H28   1.084896 S    
C103  C143  1.407041 A    
O15   C15   1.259141 A    
C3    C127  1.438512 S    
C83   C96   1.426073 A    
C112  C120  1.367000 A    
C59   C64   1.377556 A    
C137  H33   1.083268 S    
C56   C61   1.377471 A    
O47   Zn10  2.006108 S    
O48   C154  1.269105 A    
C24   C38   1.399094 A    
O19   C11   1.303341 A    
O80   H52   0.991967 S    
C45   C71   1.423210 A    
O25   Zn6   2.075909 S    
O74   H46   0.989155 S    
O3    Zn3   2.011674 S    
O27   Zn8   2.075100 S    
C8    C132  1.447532 S    
C60   C63   1.377474 A    
O76   H48   0.991964 S    
O32   Zn3   2.075100 S    
O69   H41   0.991094 S    
C90   H10   1.083549 S    
O70   H42   0.991728 S    
C37   C41   1.404849 A    
C21   C72   1.416853 A    
C139  H35   1.077637 S    
O15   Zn4   2.114024 S    
C11   C60   1.457283 S    
O22   C14   1.298509 A    
C41   C65   1.406307 A    
C84   C95   1.427118 A    
C43   C67   1.406317 A    
C110  C155  1.438234 S    
C69   O65   1.384366 S    
C64   H4    1.084680 S    
O18   Zn2   2.028092 S    
C79   C87   1.409784 A    
O2    C2    1.253625 A    
C98   O73   1.381434 S    
C17   C25   1.419957 A    
C29   N4    1.435867 S    
C88   H8    1.076564 S    
C89   H9    1.083751 S    
C97   O74   1.380593 S    
O47   C153  1.262793 A    
C92   H12   1.076564 S    
C113  C152  1.438358 S    
C134  C142  1.404988 A    
C91   C99   1.399178 A    
C48   C70   1.433641 A    
N6    O59   1.301087 A    
O28   C4    1.298932 A    
O79   H51   0.991457 S    
C101  C109  1.414594 A    
C105  C113  1.414612 A    
O35   Zn12  1.988657 S    
C26   C28   1.417139 A    
C16   C55   1.452645 S    
O75   H47   0.991458 S    
C122  C130  1.369329 A    
C50   C68   1.408646 A    
O16   C16   1.258534 A    
O1    C1    1.253130 A    
O45   C155  1.266879 A    
O4    Zn4   2.011674 S    
C42   C66   1.406196 A    
O5    Zn5   2.017051 S    
C21   C39   1.402816 A    
O35   C151  1.228877 A    
C107  C147  1.407044 A    
O14   Zn1   2.113456 S    
C90   C98   1.415372 A    
C95   O80   1.376046 S    
C77   C98   1.412161 A    
C46   C72   1.433873 A    
O44   C150  1.269106 A    
C29   C31   1.420140 A    
C46   C54   1.434529 A    
C23   C70   1.416480 A    
O26   C2    1.298820 A    
O11   C11   1.259141 A    
C5    C129  1.446374 S    
C102  C142  1.400760 A    
N5    O57   1.301132 A    
C83   C147  1.522572 S    
O32   C8    1.298933 A    
C140  H36   1.076084 S    
C107  C115  1.413272 A    
C108  C116  1.408349 A    
O45   Zn9   2.005021 S    
C134  H30   1.083268 S    
C13   C54   1.458285 S    
O28   Zn7   2.075100 S    
C18   C26   1.418478 A    
C86   C94   1.415380 A    
O29   Zn2   2.075909 S    
C61   H1    1.084620 S    
C111  C154  1.437441 S    
C88   C96   1.405023 A    
C89   C97   1.406299 A    
O42   Zn12  2.005023 S    
N1    O50   1.301159 A    
N4    O56   1.301339 A    
O67   H39   0.991147 S    
C123  C131  1.366172 A    
C49   C57   1.429910 A    
O19   Zn3   2.025698 S    
N2    O51   1.301087 A    
C131  C139  1.416431 A    
C28   N5    1.437184 S    
C114  C151  1.438234 S    
O44   Zn11  2.006109 S    
N3    O53   1.301231 A    
O26   Zn5   2.075909 S    
C52   C60   1.432504 A    
C23   C37   1.402779 A    
C81   C89   1.406195 A    
N7    O62   1.301179 A    
C94   O77   1.381398 S    
C24   C69   1.410945 A    
C78   C142  1.503352 S    
C25   N8    1.435866 S    
N6    O60   1.301317 A    
C40   C41   1.402356 A    
C123  H27   1.085199 S    
C82   C146  1.503393 S    
C49   C67   1.412082 A    
C135  C143  1.410512 A    
C133  C141  1.404847 A    
O20   Zn4   2.025698 S    
O21   Zn5   2.028092 S    
C14   C53   1.455404 S    
C58   C64   1.376381 A    
C20   C34   1.399111 A    
O31   C7    1.295180 A    
C62   H2    1.084682 S    
C24   C32   1.418726 A    
O17   C9    1.303690 A    
C31   N2    1.435676 S    
O41   Zn11  2.005021 S    
C103  C111  1.413270 A    
C104  H16   1.075784 S    
C106  C146  1.400780 A    
C9    C58   1.458282 S    
C30   C32   1.417126 A    
O38   Zn10  1.983244 S    
O39   Zn10  1.988657 S    
O1    Zn1   2.017051 S    
C50   C58   1.434522 A    
C54   C62   1.376386 A    
C116  C149  1.436205 S    
