data_mof_unit_66337.cif
_audit_creation_date              2012-10-26T19:34:45-0400
_audit_creation_method            fapswitch 2.2
_symmetry_space_group_name_H-M    P1
_symmetry_Int_Tables_number       1
_space_group_crystal_system       triclinic
_cell_length_a                    13.881374
_cell_length_b                    18.223293
_cell_length_c                    19.423202
_cell_angle_alpha                 89.589458
_cell_angle_beta                  91.529386
_cell_angle_gamma                 84.025176
_cell_volume                      4884.70167717

loop_
_atom_site_label
_atom_site_type_symbol
_atom_type_description
_atom_site_fract_x
_atom_site_fract_y
_atom_site_fract_z
_atom_type_partial_charge
Br1   Br    Br    0.511529 0.337138 0.140623 -0.504050
Br2   Br    Br    0.488546 0.662859 0.859376 -0.504068
C1    C     C_R   0.500211 0.499824 0.632488 0.544408
C2    C     C_R   0.576592 0.526220 0.037515 -0.089033
C3    C     C_R   0.499858 0.501036 0.928046 0.053115
C4    C     C_R   0.500149 0.498965 0.071955 0.053115
C5    C     C_R   0.567400 0.270819 0.538345 0.159533
C6    C     C_R   0.432597 0.729181 0.461657 0.159537
C7    C     C_R   0.565558 0.193727 0.537081 -0.098796
C8    C     C_R   0.434438 0.806273 0.462921 -0.098799
C9    C     C_R   0.495818 0.161377 0.497906 -0.009257
C10   C     C_R   0.504180 0.838623 0.502094 -0.009256
C11   C     C_R   0.429067 0.208616 0.458240 -0.137481
C12   C     C_R   0.499790 0.500176 0.367512 0.544408
C13   C     C_R   0.570934 0.791384 0.541757 -0.137480
C14   C     C_R   0.432412 0.285723 0.460052 0.047896
C15   C     C_R   0.567590 0.714278 0.539945 0.047895
C16   C     C_R   0.683257 0.487695 0.500151 0.552190
C17   C     C_R   0.316742 0.512305 0.499849 0.552192
C18   C     C_R   0.477445 0.039743 0.438689 -0.093919
C19   C     C_R   0.522552 0.960257 0.561310 -0.093918
C20   C     C_R   0.482379 0.962292 0.439581 -0.101967
C21   C     C_R   0.517617 0.037708 0.560419 -0.101967
C22   C     C_R   0.504686 0.921214 0.500957 0.030441
C23   C     C_R   0.502140 0.432776 0.256483 -0.089351
C24   C     C_R   0.495310 0.078786 0.499043 0.030441
C25   C     C_1   0.213306 0.520223 0.499676 0.002560
C26   C     C_1   0.786693 0.479777 0.500324 0.002556
C27   C     C_2   0.022412 0.530653 0.499380 -0.112566
C28   C     C_2   0.977588 0.469347 0.500621 -0.112568
C29   C     C_1   0.873735 0.474308 0.500471 -0.027962
C30   C     C_1   0.126265 0.525692 0.499529 -0.027959
C31   C     C_R   0.498279 0.566110 0.254336 -0.134804
C32   C     C_R   0.501694 0.433892 0.745664 -0.134803
C33   C     C_R   0.498775 0.565138 0.182632 -0.141812
C34   C     C_R   0.497895 0.567221 0.743517 -0.089346
C35   C     C_R   0.501200 0.434865 0.817368 -0.141810
C36   C     C_R   0.500348 0.498140 0.147434 0.030493
C37   C     C_R   0.499658 0.501860 0.852567 0.030500
C38   C     C_R   0.502641 0.431475 0.184764 0.168178
C39   C     C_R   0.497395 0.568523 0.815236 0.168175
C40   C     C_2   0.643587 0.299707 0.582498 0.249813
C41   C     C_2   0.356406 0.700292 0.417509 0.249819
C42   C     C_R   0.499845 0.499899 0.291835 -0.018797
C43   C     C_R   0.500158 0.500101 0.708165 -0.018799
C44   C     C_R   0.423252 0.473178 0.034200 -0.062256
C45   C     C_R   0.576756 0.526821 0.965801 -0.062247
C46   C     C_R   0.423415 0.473780 0.962486 -0.089045
Cu1   Cu    Cu3+1 0.500030 0.426640 0.500000 0.944586
Cu2   Cu    Cu3+1 0.499970 0.573360 0.500000 0.944594
H1    H     H_    0.018608 0.415186 0.501755 0.146586
H2    H     H_    0.530377 0.065575 0.608326 0.115271
H3    H     H_    0.496601 0.618605 0.280309 0.139966
H4    H     H_    0.503346 0.381400 0.719690 0.139978
H5    H     H_    0.497187 0.616777 0.154414 0.136011
H6    H     H_    0.502763 0.383228 0.845585 0.136008
H7    H     H_    0.504328 0.380974 0.284461 0.163719
H8    H     H_    0.495731 0.619021 0.715540 0.163717
H9    H     H_    0.363279 0.452764 0.060335 0.145053
H10   H     H_    0.636730 0.547233 0.939667 0.145069
H11   H     H_    0.363657 0.453734 0.933790 0.122751
H12   H     H_    0.981391 0.584814 0.498246 0.146589
H13   H     H_    0.636349 0.546266 0.066212 0.122759
H14   H     H_    0.619311 0.158573 0.566843 0.152936
H15   H     H_    0.380682 0.841426 0.433161 0.152929
H16   H     H_    0.637372 0.355437 0.600576 0.161312
H17   H     H_    0.362629 0.644567 0.399420 0.161297
H18   H     H_    0.373726 0.186341 0.426783 0.110267
H19   H     H_    0.626278 0.813660 0.573211 0.110269
H20   H     H_    0.380337 0.321100 0.429287 0.134547
H21   H     H_    0.619668 0.678901 0.570708 0.134546
H22   H     H_    0.461748 0.068958 0.390298 0.121206
H23   H     H_    0.538249 0.931041 0.609701 0.121209
H24   H     H_    0.469619 0.934425 0.391674 0.115269
N1    N     N_R   0.500010 0.316380 0.499980 -0.250048
N2    N     N_R   0.499990 0.683620 0.500020 -0.250046
O1    O     O_R   0.500040 0.438020 0.599820 -0.530537
O2    O     O_2   0.283729 0.740081 0.399389 -0.524611
O3    O     O_R   0.499960 0.561980 0.400180 -0.530535
O4    O     O_R   0.500000 0.561930 0.599810 -0.500086
O5    O     O_R   0.500000 0.438070 0.400190 -0.500089
O6    O     O_R   0.637870 0.429290 0.499990 -0.506619
O7    O     O_R   0.362130 0.570710 0.500010 -0.506608
O8    O     O_R   0.637830 0.553200 0.499980 -0.498897
O9    O     O_R   0.362170 0.446800 0.500020 -0.498898
O10   O     O_2   0.716253 0.259913 0.600634 -0.524614

loop_
_geom_bond_atom_site_label_1
_geom_bond_atom_site_label_2
_ccdc_geom_bond_type
C28   H1    S    
C44   H9    S    
C32   C35   A    
C6    C41   S    
Cu2   O3    S    
C21   H2    S    
Cu2   O8    S    
C37   C39   A    
C41   O2    D    
C3    C45   A    
C2    H13   S    
C27   C30   S    
C34   H8    S    
C23   C38   A    
C28   C29   S    
C21   C24   A    
Br2   C39   S    
C7    H14   S    
C19   H23   S    
C6    N2    A    
C13   C15   A    
C5    C40   S    
Cu1   O5    S    
Br1   C38   S    
C16   O6    A    
C45   H10   S    
C35   H6    S    
C15   N2    A    
C16   O8    A    
Cu1   N1    S    
C40   O10   D    
C17   C25   S    
C34   C39   A    
C23   H7    S    
C17   O7    A    
C1    O4    A    
C23   C42   A    
Cu2   O7    S    
C31   H3    S    
C13   H19   S    
C3    C46   A    
C44   C46   A    
C33   H5    S    
Cu1   O9    S    
C33   C36   A    
C16   C26   S    
C2    C4    A    
C5    N1    A    
C9    C24   S    
C1    C43   S    
Cu1   O6    S    
C27   C28   D    
Cu2   N2    S    
C10   C13   A    
C4    C36   S    
C14   H20   S    
C34   C43   A    
C32   C43   A    
C12   O3    A    
C14   N1    A    
C7    C9    A    
C8    C10   A    
C6    C8    A    
C18   C20   A    
C15   H21   S    
C3    C37   S    
C20   C22   A    
C11   C14   A    
C20   H24   S    
C1    O1    A    
C12   C42   S    
C8    H15   S    
C5    C7    A    
C27   H12   S    
C4    C44   A    
C25   C30   T    
C31   C42   A    
C26   C29   T    
C17   O9    A    
Cu2   O4    S    
C32   H4    S    
C10   C22   S    
C19   C21   A    
C35   C37   A    
C36   C38   A    
C9    C11   A    
C46   H11   S    
C18   C24   A    
C31   C33   A    
Cu1   O1    S    
C41   H17   S    
Cu1   Cu2   S    
C19   C22   A    
C40   H16   S    
C18   H22   S    
C12   O5    A    
C2    C45   A    
C11   H18   S    
