data_mof_unit_10414.cif
_audit_creation_date              2012-12-10T17:09:53-0500
_audit_creation_method            fapswitch 2.2
_symmetry_space_group_name_H-M    P1
_symmetry_Int_Tables_number       1
_space_group_crystal_system       triclinic
_cell_length_a                    10.845369
_cell_length_b                    13.009306
_cell_length_c                    11.64979
_cell_angle_alpha                 99.960949
_cell_angle_beta                  93.179721
_cell_angle_gamma                 89.805551
_cell_volume                      1616.37581426

loop_
_atom_site_label
_atom_site_type_symbol
_atom_type_description
_atom_site_fract_x
_atom_site_fract_y
_atom_site_fract_z
_atom_type_partial_charge
C1    C     C_R   0.497131 0.299035 0.478466 0.816820
C2    C     C_R   0.068656 0.579070 0.592478 0.062656
C3    C     C_R   0.129505 0.512115 0.504702 -0.124614
C4    C     C_R   0.062841 0.448037 0.414696 -0.230346
C5    C     C_R   0.935141 0.443723 0.410450 0.074036
C6    C     C_R   0.871689 0.510387 0.497160 -0.129105
C7    C     C_R   0.501940 0.814313 0.532885 -0.041303
C8    C     C_R   0.495131 0.185524 0.464902 -0.087015
C9    C     C_R   0.488727 0.014961 0.337915 0.078066
C10   C     C_R   0.486631 0.124372 0.353224 -0.213118
C11   C     C_R   0.502748 0.138513 0.563657 -0.276871
C12   C     C_R   0.262776 0.505819 0.501961 0.808682
C13   C     C_R   0.502332 0.030713 0.552105 0.161308
C14   C     C_R   0.495064 0.967876 0.439466 0.122013
C15   C     C_R   0.494457 0.859422 0.431979 -0.274517
C16   C     C_R   0.509582 0.877515 0.643236 -0.209373
C17   C     C_R   0.509606 0.985241 0.652696 -0.201149
C18   C     C_R   0.386898 0.395329 0.022289 -0.028339
C19   C     C_R   0.399169 0.407898 0.145929 0.057802
C20   C     C_R   0.544624 0.544870 0.156381 -0.008865
C21   C     C_R   0.536785 0.536882 0.033841 0.055108
C22   C     C_R   0.458147 0.461183 0.965362 0.014786
C23   C     C_R   0.501478 0.700965 0.521332 0.791441
C24   C     C_R   0.453724 0.454487 0.841830 -0.000771
C25   C     C_R   0.597608 0.593276 0.856633 0.097297
C26   C     C_R   0.606034 0.603176 0.978613 -0.331906
C27   C     C_R   0.737763 0.502704 0.499015 0.794312
C28   C     C_R   0.133551 0.643742 0.686790 -0.210138
C29   C     C_R   0.071123 0.704313 0.776054 0.152154
C30   C     C_R   0.943311 0.713985 0.762922 -0.172567
C31   C     C_R   0.878184 0.656461 0.666693 -0.197173
C32   C     C_R   0.938253 0.581689 0.585431 0.074151
Cu1   Cu    Cu3+1 0.509250 0.507730 0.615930 0.922951
Cu2   Cu    Cu3+1 0.490750 0.492270 0.384070 0.921825
H1    H     H_    0.112047 0.396441 0.349504 0.144541
H2    H     H_    0.515466 0.033267 0.738631 0.126794
H3    H     H_    0.479793 0.163420 0.278602 0.151663
H4    H     H_    0.508915 0.185861 0.650144 0.154034
H5    H     H_    0.394625 0.398087 0.785803 0.125042
H6    H     H_    0.650596 0.645248 0.815166 0.113180
H7    H     H_    0.666192 0.662498 0.029399 0.130088
H8    H     H_    0.347199 0.359895 0.192983 0.124403
H9    H     H_    0.605353 0.602327 0.209382 0.127873
H10   H     H_    0.232795 0.647687 0.695437 0.168116
H11   H     H_    0.893470 0.764806 0.827975 0.122766
H12   H     H_    0.780432 0.671166 0.657928 0.150294
H13   H     H_    0.487739 0.808964 0.347789 0.152850
H14   H     H_    0.515372 0.843810 0.722113 0.155463
N1    N     N_R   0.523180 0.519350 0.790130 -0.177097
N2    N     N_R   0.476820 0.480650 0.209890 -0.196426
O1    O     O_R   0.506570 0.354460 0.582000 -0.586707
O2    O     O_R   0.490940 0.341410 0.386200 -0.594629
O3    O     O_R   0.327470 0.506530 0.597920 -0.599027
O4    O     O_R   0.311840 0.493480 0.402120 -0.584213
O5    O     O_R   0.509060 0.658590 0.613800 -0.606877
O6    O     O_R   0.493430 0.645540 0.418000 -0.588036
O7    O     O_R   0.688160 0.506520 0.597880 -0.583594
O8    O     O_R   0.672530 0.493470 0.402080 -0.585386
C33   C     C_3   0.300310 0.313419 0.950509 -0.430207
C34   C     C_3   0.225644 0.247737 0.020282 -0.359264
C35   C     C_3   0.144892 0.167115 0.939278 -0.837169
H15   H     H_    0.078683 0.206407 0.885105 0.254391
H16   H     H_    0.203094 0.112674 0.881325 0.254303
H17   H     H_    0.091852 0.121263 0.992062 0.236184
H18   H     H_    0.289364 0.205626 0.073682 0.204531
H19   H     H_    0.165075 0.299401 0.078847 0.211588
H20   H     H_    0.233687 0.353907 0.897778 0.200808
H21   H     H_    0.356436 0.259428 0.889789 0.198427
C36   C     C_3   0.141671 0.753639 0.887040 -0.430802
C37   C     C_3   0.178651 0.669196 0.959742 -0.322348
C38   C     C_3   0.257442 0.713355 0.069564 -0.849677
H22   H     H_    0.349111 0.737843 0.045818 0.256526
H23   H     H_    0.210921 0.780795 0.121127 0.250643
H24   H     H_    0.272125 0.652069 0.124426 0.252869
H25   H     H_    0.093805 0.633452 0.985680 0.219426
H26   H     H_    0.231873 0.606604 0.906998 0.224022
H27   H     H_    0.225165 0.793835 0.864930 0.193949
H28   H     H_    0.084200 0.813193 0.939468 0.191726
C39   C     C_3   0.872934 0.362479 0.315284 -0.388449
C40   C     C_3   0.828639 0.268082 0.364802 -0.314432
C41   C     C_3   0.774436 0.183896 0.267786 -0.859711
H29   H     H_    0.693516 0.214945 0.222364 0.253612
H30   H     H_    0.844710 0.156957 0.203589 0.247778
H31   H     H_    0.744533 0.116027 0.305658 0.252061
H32   H     H_    0.907807 0.234646 0.410475 0.214418
H33   H     H_    0.757418 0.291849 0.428769 0.216944
H34   H     H_    0.797050 0.396657 0.266848 0.223525
H35   H     H_    0.939165 0.333734 0.247459 0.180665
C42   C     C_3   0.485414 0.948134 0.215988 -0.422147
C43   C     C_3   0.489100 0.007663 0.113049 -0.347148
C44   C     C_3   0.490106 0.933311 0.996490 -0.868271
H36   H     H_    0.567284 0.876962 0.996723 0.249906
H37   H     H_    0.401179 0.890355 0.978182 0.255834
H38   H     H_    0.502077 0.978911 0.925771 0.236498
H39   H     H_    0.406451 0.058003 0.110954 0.214757
H40   H     H_    0.573821 0.056812 0.122834 0.222198
H41   H     H_    0.566614 0.895440 0.211589 0.195354
H42   H     H_    0.400055 0.899630 0.204086 0.203333

loop_
_geom_bond_atom_site_label_1
_geom_bond_atom_site_label_2
_ccdc_geom_bond_type
Cu1   O5    S    
C6    C32   A    
C21   C26   A    
Cu2   O6    S    
C35   H17   S    
C1    C8    S    
C30   H11   S    
C36   H27   S    
C15   H13   S    
C16   H14   S    
C39   H34   S    
C41   H29   S    
C23   O6    A    
C29   C30   A    
C10   H3    S    
C28   C29   A    
C25   H6    S    
C30   C31   A    
Cu1   N1    S    
C24   H5    S    
C2    C32   A    
C18   C19   A    
C35   H16   S    
C20   N2    A    
C3    C12   S    
C33   H20   S    
C31   C32   A    
C16   C17   A    
C31   H12   S    
C40   H33   S    
C37   C38   S    
C17   H2    S    
C5    C39   S    
C9    C10   A    
C12   O3    A    
C19   H8    S    
C7    C15   A    
C4    H1    S    
C34   H19   S    
C33   C34   S    
C13   C14   A    
C36   H28   S    
C36   C37   S    
C39   H35   S    
C41   H30   S    
C29   C36   S    
Cu1   O3    S    
Cu2   N2    S    
C43   H39   S    
C27   O7    A    
C9    C42   S    
C44   H36   S    
C38   H23   S    
C40   C41   S    
C25   C26   A    
C28   H10   S    
C42   H41   S    
C34   C35   S    
C11   H4    S    
C9    C14   A    
C40   H32   S    
C33   H21   S    
C44   H37   S    
C6    C27   S    
Cu1   Cu2   S    
C23   O5    A    
C1    O1    A    
C7    C16   A    
C34   H18   S    
Cu2   O4    S    
C37   H26   S    
C22   C24   A    
C3    C4    A    
C41   H31   S    
C24   N1    A    
Cu1   O7    S    
C18   C22   A    
C4    C5    A    
C27   O8    A    
C38   H24   S    
C43   H40   S    
Cu1   O1    S    
Cu2   O2    S    
C13   C17   A    
C42   H42   S    
C2    C3    A    
C38   H22   S    
C44   H38   S    
C11   C13   A    
C19   N2    A    
C43   C44   S    
C5    C6    A    
C8    C11   A    
C7    C23   S    
C35   H15   S    
C1    O2    A    
C25   N1    A    
C20   H9    S    
C39   C40   S    
C18   C33   S    
C20   C21   A    
C8    C10   A    
C37   H25   S    
Cu2   O8    S    
C14   C15   A    
C2    C28   A    
C42   C43   S    
C21   C22   A    
C12   O4    A    
C26   H7    S    
