data_mof_unit_21819.cif
_audit_creation_date              2012-12-11T15:14:46-0500
_audit_creation_method            fapswitch 2.2
_symmetry_space_group_name_H-M    P1
_symmetry_Int_Tables_number       1
_space_group_crystal_system       triclinic
_cell_length_a                    22.348092
_cell_length_b                    7.228957
_cell_length_c                    19.216291
_cell_angle_alpha                 90.003486
_cell_angle_beta                  99.037756
_cell_angle_gamma                 90.010219
_cell_volume                      3065.91530332

loop_
_atom_site_label
_atom_site_type_symbol
_atom_type_description
_atom_site_fract_x
_atom_site_fract_y
_atom_site_fract_z
_atom_type_partial_charge
O1    O     O_R   0.448470 0.506130 0.415700 -0.533508
O2    O     O_R   0.551530 0.006130 0.584300 -0.533301
O3    O     O_R   0.436320 0.174490 0.555800 -0.532956
O4    O     O_R   0.563680 0.674490 0.444200 -0.533277
C1    C     C_R   0.421153 0.344407 0.575110 0.697943
C2    C     C_R   0.578849 0.844415 0.424894 0.698153
O5    O     O_R   0.441350 0.176340 0.414480 -0.534795
O6    O     O_R   0.558650 0.676340 0.585520 -0.535179
O7    O     O_R   0.556600 0.007100 0.441970 -0.530774
O8    O     O_R   0.443400 0.507100 0.558030 -0.530991
C3    C     C_R   0.427320 0.344926 0.389043 0.706957
C4    C     C_R   0.572711 0.844741 0.610980 0.706217
O9    O     O_3   0.537810 0.339550 0.509190 -0.373608
O10   O     O_3   0.462190 0.839550 0.490810 -0.373323
V1    V     V_3+5 0.492990 0.064280 0.498300 1.465025
V2    V     V_3+5 0.507010 0.564280 0.501700 1.462560
C5    C     C_R   0.869605 0.912750 0.695051 0.637131
C6    C     C_R   0.134546 0.504796 0.303148 0.636915
C7    C     C_R   0.883806 0.937993 0.822299 -0.392240
C8    C     C_R   0.116643 0.443514 0.177587 -0.389491
C9    C     C_R   0.590281 0.808195 0.739541 -0.262433
C10   C     C_R   0.411641 0.348542 0.259711 -0.263416
C11   C     C_R   0.627885 0.782065 0.803477 -0.188013
C12   C     C_R   0.376667 0.382123 0.194610 -0.185962
C13   C     C_R   0.690415 0.804052 0.808938 0.711888
C14   C     C_R   0.314557 0.413814 0.188989 0.712476
C15   C     C_R   0.716822 0.866784 0.750584 0.017750
C16   C     C_R   0.284760 0.399058 0.248865 0.016902
C17   C     C_R   0.678400 0.876697 0.683709 -0.050721
C18   C     C_R   0.322026 0.382991 0.316262 -0.052009
C19   C     C_R   0.780624 0.903088 0.755055 -0.076984
C20   C     C_R   0.220136 0.415843 0.244752 -0.075302
C21   C     C_R   0.805980 0.908054 0.691448 -0.225612
C22   C     C_R   0.196296 0.456837 0.307631 -0.223708
C23   C     C_R   0.767566 0.910236 0.625510 0.486669
C24   C     C_R   0.234187 0.447657 0.373812 0.488387
C25   C     C_R   0.704516 0.902579 0.622755 -0.257318
C26   C     C_R   0.295670 0.403234 0.377321 -0.253586
C27   C     C_R   0.819779 0.940868 0.820036 0.352042
C28   C     C_R   0.178228 0.387709 0.181048 0.347549
C29   C     C_R   0.907612 0.919856 0.759713 0.494697
C30   C     C_R   0.096322 0.505613 0.238611 0.498614
C31   C     C_R   0.614661 0.850098 0.678821 -0.062927
C32   C     C_R   0.385652 0.354619 0.321155 -0.062089
H1    H     H_    0.542029 0.784971 0.736571 0.161663
H2    H     H_    0.460036 0.328591 0.262593 0.161278
H3    H     H_    0.608558 0.735729 0.848714 0.175880
H4    H     H_    0.398451 0.391713 0.148232 0.176056
H5    H     H_    0.675958 0.909038 0.571779 0.090730
H6    H     H_    0.323457 0.392049 0.428651 0.089051
C33   C     C_3   0.777522 0.923183 0.318083 -0.257376
C34   C     C_3   0.222543 0.424111 0.681954 -0.257601
C35   C     C_3   0.774630 0.061988 0.256758 0.331459
C36   C     C_3   0.225587 0.562336 0.743490 0.335799
H7    H     H_    0.799819 0.947744 0.373111 0.187742
H8    H     H_    0.200303 0.449404 0.626959 0.187919
C37   C     C_1   0.875291 0.940068 0.121084 -0.100737
C38   C     C_1   0.124710 0.440109 0.878914 -0.099902
C39   C     C_1   0.625030 0.854159 0.379614 -0.160449
C40   C     C_1   0.374974 0.354154 0.620392 -0.159940
C41   C     C_3   0.794137 0.768464 0.267956 -0.115845
C42   C     C_3   0.205708 0.269106 0.731828 -0.119639
C43   C     C_3   0.791392 0.910999 0.207461 0.037437
C44   C     C_3   0.208610 0.411070 0.792538 0.036808
C45   C     C_3   0.725634 0.725874 0.244603 -0.180896
C46   C     C_3   0.274150 0.225683 0.755150 -0.180099
C47   C     C_3   0.709510 0.880875 0.293944 -0.023890
C48   C     C_3   0.290495 0.380964 0.706061 -0.024650
C49   C     C_3   0.723397 0.868645 0.183515 -0.228702
C50   C     C_3   0.276543 0.367882 0.816453 -0.227548
C51   C     C_3   0.707248 0.021680 0.233662 0.623240
C52   C     C_3   0.292912 0.521207 0.766555 0.622823
C53   C     C_1   0.837372 0.928325 0.159853 0.093160
C54   C     C_1   0.162629 0.428384 0.840146 0.094479
C55   C     C_1   0.663259 0.865210 0.341236 0.056473
C56   C     C_1   0.336746 0.365251 0.658770 0.057213
H9    H     H_    0.700975 0.847028 0.128355 0.176796
H10   H     H_    0.298915 0.345560 0.871586 0.177606
H11   H     H_    0.705276 0.585445 0.239898 0.198462
H12   H     H_    0.294339 0.085053 0.759656 0.198266
H13   H     H_    0.830077 0.662800 0.281758 0.193061
H14   H     H_    0.169639 0.163889 0.717844 0.193023
O11   O     O_R   0.056650 0.288730 0.942060 -0.536112
O12   O     O_R   0.943350 0.788730 0.057940 -0.525554
O13   O     O_R   0.058660 0.616870 0.085540 -0.521844
O14   O     O_R   0.941340 0.116870 0.914460 -0.540753
C57   C     C_R   0.073166 0.448705 0.110772 0.799593
C58   C     C_R   0.927024 0.948415 0.889134 0.801946
O15   O     O_R   0.063700 0.618520 0.944220 -0.528241
O16   O     O_R   0.936300 0.118520 0.055780 -0.536618
O17   O     O_R   0.948460 0.787610 0.915680 -0.524977
O18   O     O_R   0.051540 0.287610 0.084320 -0.542953
C59   C     C_R   0.078873 0.449996 0.924667 0.704606
C60   C     C_R   0.921128 0.949984 0.075333 0.706969
O19   O     O_3   0.962230 0.453430 0.990860 -0.378147
O20   O     O_3   0.037770 0.953430 0.009140 -0.380264
V3    V     V_3+5 0.007010 0.728750 0.001700 1.582305
V4    V     V_3+5 0.992990 0.228750 0.998300 1.533360
F1    F     F_    0.968579 0.917160 0.761050 -0.614347
F2    F     F_    0.037815 0.559885 0.236197 -0.617052
F3    F     F_    0.663052 0.155055 0.216547 -0.670035
F4    F     F_    0.337274 0.654012 0.783899 -0.669069
O21   O     O_3   0.792249 0.924388 0.564054 -0.574140
H15   H     H_    0.759398 0.923650 0.522826 0.285095
O22   O     O_3   0.210147 0.477880 0.434933 -0.573681
H16   H     H_    0.242510 0.466254 0.476394 0.285587
F5    F     F_    0.895937 0.906516 0.636024 -0.549523
F6    F     F_    0.110647 0.555965 0.361003 -0.551569
O23   O     O_3   0.794423 0.998151 0.877658 -0.581859
H17   H     H_    0.826282 0.028056 0.917840 0.289713
O24   O     O_3   0.197251 0.290751 0.126401 -0.584556
H18   H     H_    0.164468 0.282350 0.085568 0.296808
F7    F     F_    0.724430 0.739157 0.868619 -0.643529
F8    F     F_    0.286394 0.482606 0.126704 -0.644662
O25   O     O_3   0.800167 0.238975 0.262026 -0.613676
H19   H     H_    0.780787 0.303933 0.298090 0.301940
O26   O     O_3   0.200280 0.739599 0.738488 -0.610517
H20   H     H_    0.219531 0.804379 0.702275 0.302253

loop_
_geom_bond_atom_site_label_1
_geom_bond_atom_site_label_2
_ccdc_geom_bond_type
C46   C48   S    
C45   H11   S    
C50   H10   S    
C49   H9    S    
O24   H18   S    
O1    C3    A    
O2    C4    A    
C2    O7    A    
O19   V4    S    
O18   V4    S    
O5    C3    A    
C52   F4    S    
O12   V3    S    
C23   C25   A    
C38   C59   S    
C12   C14   A    
C4    C31   S    
C30   F2    S    
C6    C30   A    
C8    C28   A    
O14   C58   A    
C15   C17   A    
O25   H19   S    
O11   C59   A    
C8    C57   S    
C18   C26   A    
C41   C43   S    
C37   C53   T    
C49   C51   S    
C42   C44   S    
C9    C31   A    
C10   C32   A    
C43   C49   S    
C16   C18   A    
C45   C47   S    
O11   V4    S    
C33   C41   S    
C29   F1    S    
C44   C50   S    
C34   C42   S    
C33   H7    S    
C34   C48   S    
C48   C52   S    
O5    V1    S    
C42   H14   S    
O6    V2    S    
C57   O18   A    
C17   C31   A    
C18   C32   A    
C5    C21   A    
C34   C36   S    
O16   C60   A    
C28   O24   S    
C9    H1    S    
O13   C57   A    
C5    C29   A    
C11   H3    S    
C42   C46   S    
C15   C19   A    
C12   H4    S    
C16   C20   A    
O4    C2    A    
C7    C58   S    
C35   O25   S    
O8    V2    S    
C33   C47   S    
C43   C53   S    
C40   C56   T    
O15   V3    S    
C33   C35   S    
C20   C22   A    
O4    V2    S    
C14   F8    S    
C51   F3    S    
C13   F7    S    
C25   H5    S    
C58   O17   A    
O6    C4    A    
O20   V3    S    
C19   C21   A    
C7    C29   A    
C3    C32   S    
O1    V2    S    
O12   C60   A    
C48   C56   S    
O17   V3    S    
O2    V1    S    
C6    C22   A    
C7    C27   A    
C10   H2    S    
C37   C60   S    
C9    C11   A    
C10   C12   A    
C36   O26   S    
C47   C55   S    
C35   C51   S    
C39   C55   T    
O3    V1    S    
C38   C54   T    
C1    C40   S    
C24   O22   S    
C14   C16   A    
C2    C39   S    
O3    C1    A    
C8    C30   A    
C26   H6    S    
C13   C15   A    
C46   H12   S    
O22   H16   S    
C23   O21   S    
C5    F5    S    
O7    V1    S    
C1    O8    A    
C41   H13   S    
O26   H20   S    
C35   C43   S    
C46   C50   S    
C36   C44   S    
C45   C49   S    
C24   C26   A    
C21   C23   A    
C22   C24   A    
C19   C27   A    
C47   C51   S    
C20   C28   A    
O15   C59   A    
O14   V4    S    
C6    F6    S    
O13   V3    S    
C41   C45   S    
C27   O23   S    
C11   C13   A    
C36   C52   S    
O9    V2    S    
C17   C25   A    
O21   H15   S    
C44   C54   S    
O10   V1    S    
C50   C52   S    
O23   H17   S    
O16   V4    S    
C34   H8    S    
