data_mof_unit_10428.cif
_audit_creation_date              2012-12-10T16:59:25-0500
_audit_creation_method            fapswitch 2.2
_symmetry_space_group_name_H-M    P1
_symmetry_Int_Tables_number       1
_space_group_crystal_system       triclinic
_cell_length_a                    19.334405
_cell_length_b                    10.910539
_cell_length_c                    9.729775
_cell_angle_alpha                 92.304138
_cell_angle_beta                  91.018751
_cell_angle_gamma                 90.490578
_cell_volume                      2050.41213781

loop_
_atom_site_label
_atom_site_type_symbol
_atom_type_description
_atom_site_fract_x
_atom_site_fract_y
_atom_site_fract_z
_atom_type_partial_charge
C1    C     C_R   0.499152 0.265382 0.497055 0.917778
C2    C     C_R   0.291305 0.511025 0.496126 -0.138722
C3    C     C_R   0.929541 0.523978 0.503887 0.503098
C4    C     C_R   0.069598 0.515294 0.501816 0.431336
C5    C     C_R   0.820385 0.441673 0.590540 -0.264240
C6    C     C_R   0.748401 0.429870 0.591138 0.385711
C7    C     C_R   0.708185 0.502560 0.503876 -0.196672
C8    C     C_R   0.740864 0.584933 0.418735 -0.260047
C9    C     C_R   0.812844 0.598171 0.419545 0.450021
C10   C     C_R   0.853337 0.523344 0.504514 -0.125399
C11   C     C_2   0.478632 0.929514 0.398324 -0.278631
C12   C     C_R   0.367519 0.504409 0.498787 0.861873
C13   C     C_2   0.475451 0.863471 0.511888 0.223590
C14   C     C_2   0.466232 0.061100 0.399962 0.462100
C15   C     C_2   0.503529 0.133273 0.489386 -0.332327
C16   C     C_2   0.493484 0.402464 0.920881 0.061658
C17   C     C_2   0.508068 0.402439 0.073645 0.082348
C18   C     C_R   0.494377 0.734253 0.502853 0.781339
C19   C     C_R   0.632318 0.498293 0.501131 0.861311
C20   C     C_R   0.255367 0.460696 0.605128 -0.173683
C21   C     C_R   0.183428 0.462550 0.607758 -0.113175
C22   C     C_R   0.145677 0.513477 0.500414 -0.027456
C23   C     C_R   0.180950 0.564566 0.391653 -0.174612
C24   C     C_R   0.253256 0.566400 0.388952 0.424264
Cu1   Cu    Cu3+1 0.500010 0.500020 0.638630 1.157997
Cu2   Cu    Cu3+1 0.499990 0.499980 0.361370 1.105727
H1    H     H_    0.283018 0.418431 0.688407 0.190861
H2    H     H_    0.526815 0.319075 0.117504 0.179700
H3    H     H_    0.467494 0.564078 0.113693 0.277305
H4    H     H_    0.851340 0.384429 0.655502 0.212949
N1    N     N_R   0.032762 0.531132 0.383960 -0.199934
N2    N     N_R   0.964067 0.534443 0.384862 -0.131434
N3    N     N_R   0.966296 0.506406 0.621569 -0.197708
N4    N     N_R   0.035052 0.502349 0.620632 -0.205745
N5    N     N_2   0.499250 0.498660 0.846910 -0.023795
N6    N     N_2   0.499230 0.498630 0.153040 -0.237602
O1    O     O_R   0.500010 0.321960 0.617040 -0.578878
O2    O     O_R   0.499990 0.321920 0.382900 -0.567327
O3    O     O_R   0.400160 0.500010 0.617110 -0.593220
O4    O     O_R   0.400130 0.499970 0.382960 -0.510146
O5    O     O_R   0.500010 0.678080 0.617100 -0.478620
O6    O     O_R   0.499990 0.678040 0.382960 -0.581054
O7    O     O_R   0.599870 0.500030 0.617040 -0.485832
O8    O     O_R   0.599840 0.499990 0.382890 -0.575533
S1    S     S_3+6 0.439243 0.920799 0.669530 0.061457
O9    O     O_2   0.496708 0.967222 0.764398 -0.258359
O10   O     O_2   0.389189 0.022698 0.645097 -0.254412
O11   O     O_3   0.396822 0.806993 0.745056 -0.478776
H5    H     H_    0.383877 0.842039 0.836420 0.394477
S2    S     S_3+6 0.401071 0.113829 0.287146 0.070185
O12   O     O_2   0.362066 0.218001 0.354265 -0.286685
O13   O     O_2   0.433786 0.155717 0.158145 -0.302638
O14   O     O_3   0.345706 0.997870 0.245988 -0.448855
H6    H     H_    0.312926 0.031402 0.178043 0.382215
H7    H     H_    0.540222 0.092748 0.559722 0.187020
H8    H     H_    0.478287 0.315690 0.870775 0.151256
S3    S     S_3+6 0.552690 0.621043 0.910572 0.169045
O15   O     O_2   0.508467 0.720097 0.974069 -0.268320
O16   O     O_2   0.604924 0.579815 0.015092 -0.250925
O17   O     O_3   0.598949 0.685061 0.787351 -0.455565
H9    H     H_    0.620574 0.759364 0.832157 0.380736
H10   H     H_    0.157352 0.422439 0.692941 0.182406
H11   H     H_    0.151826 0.605808 0.309787 0.215246
S4    S     S_3+6 0.292445 0.645182 0.254040 0.041127
O18   O     O_2   0.349830 0.726793 0.311472 -0.265416
O19   O     O_2   0.321202 0.553281 0.151464 -0.278677
O20   O     O_3   0.233989 0.731941 0.173727 -0.510584
H12   H     H_    0.260261 0.773037 0.101896 0.390005
S5    S     S_3+6 0.711500 0.318585 0.696362 0.059631
O21   O     O_2   0.679848 0.382073 0.819535 -0.178951
O22   O     O_2   0.656202 0.246716 0.617315 -0.334188
O23   O     O_3   0.772114 0.221345 0.751349 -0.472031
H13   H     H_    0.784930 0.171788 0.668268 0.359989
H14   H     H_    0.709596 0.641674 0.353633 0.215895
S6    S     S_3+6 0.849014 0.714029 0.319416 0.058894
O24   O     O_2   0.876089 0.656026 0.188591 -0.227471
O25   O     O_2   0.794959 0.806488 0.284159 -0.251107
O26   O     O_3   0.914134 0.786047 0.407651 -0.509979
H15   H     H_    0.935560 0.840526 0.341053 0.391992
H16   H     H_    0.492842 0.886853 0.300140 0.202192

loop_
_geom_bond_atom_site_label_1
_geom_bond_atom_site_label_2
_ccdc_geom_bond_type
C6    S5    S    
C2    C12   S    
Cu1   O7    S    
Cu2   O8    S    
C7    C8    A    
O14   H6    S    
H3    N6    S    
C13   C18   S    
C18   O6    A    
C16   N5    D    
C5    C6    A    
C11   C14   S    
S3    O16   D    
C16   C17   S    
C3    N3    A    
S5    O22   D    
Cu1   O1    S    
C8    C9    A    
S2    O13   D    
C23   C24   A    
C1    C15   S    
C17   N6    D    
C9    C10   A    
C1    O1    A    
C23   H11   S    
C24   S4    S    
C21   C22   A    
S5    O21   D    
C19   O7    A    
S2    O12   D    
S1    O10   D    
C4    N4    A    
S2    O14   S    
C2    C20   A    
O20   H12   S    
S4    O20   S    
C18   O5    A    
Cu1   O5    S    
O26   H15   S    
Cu2   O2    S    
S3    O17   S    
Cu1   Cu2   S    
S1    O9    D    
O17   H9    S    
S4    O19   D    
C12   O4    A    
S5    O23   S    
S6    O24   D    
C16   H8    S    
C4    C22   S    
N1    N2    A    
C8    H14   S    
N3    N4    A    
S6    O25   D    
C21   H10   S    
C1    O2    A    
Cu1   N5    S    
Cu2   N6    S    
O11   H5    S    
C7    C19   S    
C2    C24   A    
C19   O8    A    
Cu2   O6    S    
C5    H4    S    
S1    O11   S    
C14   C15   D    
C17   H2    S    
O23   H13   S    
C6    C7    A    
C20   H1    S    
N5    S3    S    
S4    O18   D    
C12   O3    A    
C5    C10   A    
C3    C10   S    
Cu1   O3    S    
C13   S1    S    
C11   C13   D    
Cu2   O4    S    
S3    O15   D    
C14   S2    S    
C3    N2    A    
S6    O26   S    
C4    N1    A    
C11   H16   S    
C20   C21   A    
C22   C23   A    
C9    S6    S    
C15   H7    S    
