data_mof_unit_50371.cif
_audit_creation_date              2012-12-11T16:43:16-0500
_audit_creation_method            fapswitch 2.2
_symmetry_space_group_name_H-M    P1
_symmetry_Int_Tables_number       1
_space_group_crystal_system       triclinic
_cell_length_a                    6.922075
_cell_length_b                    23.426251
_cell_length_c                    25.728339
_cell_angle_alpha                 104.81713
_cell_angle_beta                  89.81159
_cell_angle_gamma                 90.926408
_cell_volume                      4032.8003771

loop_
_atom_site_label
_atom_site_type_symbol
_atom_type_description
_atom_site_fract_x
_atom_site_fract_y
_atom_site_fract_z
_atom_type_partial_charge
O1    O     O_R   0.505750 0.453350 0.547660 -0.540280
O2    O     O_R   0.170990 0.432220 0.437590 -0.540995
O3    O     O_R   0.005600 0.546650 0.452340 -0.541288
C1    C     C_R   0.339711 0.415595 0.417429 0.711590
O4    O     O_R   0.175720 0.446240 0.546340 -0.542770
O5    O     O_R   0.010370 0.560770 0.561860 -0.537782
C2    C     C_R   0.343830 0.434314 0.562968 0.689262
O6    O     O_R   0.500990 0.439230 0.438140 -0.538613
O7    O     O_3   0.340820 0.537560 0.504970 -0.368778
V1    V     V_3+5 0.064050 0.493030 0.499080 1.397868
O8    O     O_R   0.680940 0.567780 0.562410 -0.542798
C3    C     C_R   0.850738 0.584461 0.582525 0.711228
O9    O     O_R   0.676210 0.553760 0.453660 -0.541740
C4    C     C_R   0.846342 0.565084 0.436603 0.690824
V2    V     V_3+5 0.564640 0.506970 0.500920 1.396858
O10   O     O_3   0.837740 0.462440 0.495030 -0.368779
C5    C     C_R   0.781280 0.889652 0.133840 0.088622
C6    C     C_R   0.783982 0.848187 0.164928 -0.154421
H1    H     H_    0.655374 0.841171 0.186659 0.106708
C7    C     C_R   0.947446 0.815443 0.169084 0.063964
C8    C     C_R   0.105469 0.818793 0.135835 -0.149213
H2    H     H_    0.232796 0.792827 0.136727 0.110687
C9    C     C_R   0.101301 0.856054 0.101036 -0.194674
H3    H     H_    0.221317 0.854857 0.073806 0.126414
C10   C     C_R   0.945559 0.894065 0.100536 -0.092724
C11   C     C_R   0.033241 0.722747 0.197089 -0.149160
H4    H     H_    0.105652 0.705491 0.159090 0.109338
C12   C     C_R   0.019729 0.687558 0.233742 -0.153126
H5    H     H_    0.083484 0.644203 0.223332 0.111858
C13   C     C_R   0.919223 0.707370 0.282555 0.078403
C14   C     C_R   0.838415 0.763728 0.294713 -0.152273
H6    H     H_    0.764272 0.780765 0.332510 0.112762
C15   C     C_R   0.853978 0.799046 0.258622 -0.153658
H7    H     H_    0.791504 0.842565 0.269846 0.107155
C16   C     C_R   0.947750 0.778663 0.208755 0.088880
C17   C     C_R   0.720225 0.664724 0.346017 -0.144134
H8    H     H_    0.594079 0.686715 0.336250 0.107251
C18   C     C_R   0.702009 0.630642 0.383360 -0.166960
H9    H     H_    0.562483 0.627394 0.401648 0.121336
C19   C     C_R   0.862638 0.601523 0.397086 -0.053509
C20   C     C_R   0.040999 0.606736 0.371934 -0.160564
H10   H     H_    0.167878 0.584715 0.381186 0.121732
C21   C     C_R   0.058518 0.640246 0.334261 -0.148736
H11   H     H_    0.198145 0.643867 0.316137 0.106172
C22   C     C_R   0.898778 0.669916 0.321101 0.092899
C23   C     C_R   0.714741 0.642788 0.670138 -0.223640
C24   C     C_R   0.863725 0.633880 0.631803 -0.084784
C25   C     C_R   0.027168 0.671342 0.641196 -0.222450
C26   C     C_R   0.041893 0.717681 0.687968 0.096960
C27   C     C_R   0.892775 0.726178 0.726772 0.017732
C28   C     C_R   0.727647 0.688218 0.718346 0.068892
C29   C     C_R   0.205186 0.755264 0.696833 -0.198323
C30   C     C_R   0.223126 0.800486 0.744060 -0.185402
C31   C     C_R   0.077041 0.809480 0.783046 0.102069
C32   C     C_R   0.910415 0.772525 0.774205 0.044897
C33   C     C_R   0.761892 0.781974 0.812821 0.059607
C34   C     C_R   0.599645 0.744244 0.804723 -0.224198
C35   C     C_R   0.581478 0.696842 0.758549 0.139497
C36   C     C_R   0.094299 0.855047 0.830545 -0.223826
C37   C     C_R   0.944489 0.865492 0.868691 -0.086529
C38   C     C_R   0.778456 0.828812 0.859358 -0.203438
H12   H     H_    0.591424 0.612989 0.662149 0.132530
H13   H     H_    0.142699 0.664670 0.611788 0.126708
H14   H     H_    0.320872 0.749058 0.667531 0.130977
H15   H     H_    0.351785 0.828378 0.750142 0.132989
H16   H     H_    0.222209 0.883318 0.837210 0.123363
H17   H     H_    0.662906 0.836267 0.888774 0.127615
H18   H     H_    0.487378 0.751253 0.835101 0.129757
C39   C     C_R   0.322004 0.176989 0.136312 -0.265834
C40   C     C_R   0.465864 0.134502 0.132393 -0.113915
C41   C     C_R   0.599613 0.140179 0.175725 0.097823
C42   C     C_R   0.584916 0.189060 0.221960 0.075401
C43   C     C_R   0.429715 0.228764 0.226094 0.015565
C44   C     C_R   0.298311 0.222444 0.183249 0.087920
C45   C     C_R   0.718104 0.198839 0.265080 -0.180191
C46   C     C_R   0.696031 0.245255 0.310908 -0.195464
C47   C     C_R   0.538317 0.282729 0.315963 0.093937
C48   C     C_R   0.403689 0.274556 0.273686 0.060222
C49   C     C_R   0.242634 0.312025 0.279120 0.097773
C50   C     C_R   0.111998 0.304537 0.236269 -0.177336
C51   C     C_R   0.141073 0.260761 0.188571 -0.181844
C52   C     C_R   0.514034 0.328409 0.362655 -0.214067
C53   C     C_R   0.353635 0.365602 0.368741 -0.085999
C54   C     C_R   0.216574 0.356656 0.327030 -0.224531
H19   H     H_    0.222923 0.173335 0.103072 0.133526
H20   H     H_    0.841768 0.171257 0.264400 0.137986
H21   H     H_    0.801884 0.251332 0.342894 0.129674
H22   H     H_    0.620112 0.334850 0.394654 0.127485
H23   H     H_    0.093771 0.385615 0.331124 0.121906
H24   H     H_    0.987663 0.332747 0.239519 0.130349
H25   H     H_    0.037689 0.256000 0.156195 0.127439
C55   C     C_R   0.289489 0.105062 0.869708 -0.192288
H26   H     H_    0.171147 0.075125 0.872352 0.124545
C56   C     C_R   0.271982 0.140112 0.833482 -0.156812
H27   H     H_    0.141702 0.136238 0.809548 0.112230
C57   C     C_R   0.422489 0.178384 0.827018 0.071190
C58   C     C_R   0.589203 0.181961 0.858670 -0.165599
H28   H     H_    0.703393 0.212832 0.854870 0.101085
C59   C     C_R   0.608734 0.147841 0.896251 0.076666
C60   C     C_R   0.457111 0.107386 0.901256 -0.073874
C61   C     C_R   0.565182 0.220903 0.754765 -0.153133
H29   H     H_    0.698752 0.198296 0.757283 0.107765
C62   C     C_R   0.552462 0.255504 0.717931 -0.151962
H30   H     H_    0.676651 0.258092 0.692916 0.103813
C63   C     C_R   0.381511 0.285525 0.712946 0.084276
C64   C     C_R   0.222506 0.278945 0.745414 -0.152297
H31   H     H_    0.089345 0.301929 0.743539 0.105232
C65   C     C_R   0.234740 0.243765 0.781905 -0.151755
H32   H     H_    0.110724 0.240370 0.806786 0.103022
C66   C     C_R   0.406809 0.214696 0.787330 0.091813
C67   C     C_R   0.196693 0.329183 0.647854 -0.142301
H33   H     H_    0.067872 0.304989 0.654104 0.099929
C68   C     C_R   0.187448 0.365089 0.611908 -0.164594
H34   H     H_    0.051408 0.368034 0.592155 0.121848
C69   C     C_R   0.352181 0.396118 0.601127 -0.053985
C70   C     C_R   0.525722 0.390750 0.627650 -0.162426
H35   H     H_    0.655104 0.414447 0.620863 0.120392
C71   C     C_R   0.534475 0.355434 0.663964 -0.144721
H36   H     H_    0.669902 0.353717 0.684380 0.102015
C72   C     C_R   0.370483 0.323790 0.674470 0.094577
O11   O     O_R   0.308350 0.060850 0.061810 -0.540576
O12   O     O_R   0.633860 0.053770 0.953650 -0.539517
O13   O     O_R   0.798960 0.939210 0.938150 -0.536186
C73   C     C_R   0.465991 0.067191 0.938107 0.687871
O14   O     O_R   0.638360 0.067800 0.062400 -0.535020
O15   O     O_R   0.803500 0.953330 0.047670 -0.544910
C74   C     C_R   0.470905 0.084437 0.082827 0.694661
O16   O     O_R   0.303810 0.046730 0.952290 -0.539567
O17   O     O_3   0.468430 0.962490 0.995010 -0.367136
V3    V     V_3+5 0.745300 0.006960 0.000930 1.378102
O18   O     O_R   0.132880 0.946160 0.046390 -0.537367
C75   C     C_R   0.961601 0.934661 0.063702 0.690915
O19   O     O_R   0.128380 0.932130 0.937650 -0.540060
C76   C     C_R   0.958480 0.915361 0.917597 0.715473
V4    V     V_3+5 0.244670 0.992930 0.999140 1.376696
O20   O     O_3   0.971670 0.037510 0.005000 -0.371265
C77   C     C_3   0.594591 0.924100 0.137428 -0.366903
C78   C     C_3   0.544116 0.957833 0.195450 -0.336587
C79   C     C_3   0.359531 0.993298 0.197341 -0.764390
H37   H     H_    0.234013 0.963063 0.183957 0.238661
H38   H     H_    0.333026 0.019439 0.239178 0.219151
H39   H     H_    0.371560 0.024083 0.171115 0.215192
H40   H     H_    0.519837 0.927017 0.221238 0.197106
H41   H     H_    0.665872 0.987675 0.213175 0.191094
H42   H     H_    0.591151 0.955635 0.112596 0.198214
H43   H     H_    0.477748 0.891617 0.122270 0.173830
C80   C     C_3   0.406800 0.656006 0.754588 -0.343660
C81   C     C_3   0.459530 0.598739 0.768686 -0.757802
H44   H     H_    0.571160 0.574600 0.740899 0.224514
H45   H     H_    0.515154 0.608488 0.810535 0.231090
H46   H     H_    0.328990 0.569878 0.765526 0.219538
H47   H     H_    0.291524 0.677561 0.782699 0.186903
H48   H     H_    0.341643 0.646167 0.713916 0.180103
C82   C     C_3   0.743356 0.091542 0.175179 -0.380137
C83   C     C_3   0.942445 0.105752 0.156330 -0.687049
H49   H     H_    0.932562 0.118412 0.117733 0.239370
H50   H     H_    0.010446 0.142266 0.186979 0.219818
H51   H     H_    0.035415 0.066437 0.150518 0.205989
H52   H     H_    0.754201 0.083068 0.215514 0.166823
H53   H     H_    0.693946 0.049052 0.148920 0.187173
C84   C     C_3   0.789806 0.158032 0.930808 -0.359171
C85   C     C_3   0.744104 0.189965 0.989385 -0.270651
C86   C     C_3   0.925426 0.198677 0.024242 -0.765115
H54   H     H_    0.989618 0.155397 0.023568 0.238805
H55   H     H_    0.033849 0.226338 0.009549 0.221838
H56   H     H_    0.887113 0.221111 0.066348 0.204954
H57   H     H_    0.682666 0.233905 0.990839 0.185948
H58   H     H_    0.635608 0.164663 0.006660 0.187274
H59   H     H_    0.864940 0.115918 0.927876 0.193828
H60   H     H_    0.896229 0.185855 0.915440 0.163820

loop_
_geom_bond_atom_site_label_1
_geom_bond_atom_site_label_2
_ccdc_geom_bond_type
C40   C74   S    
C32   C33   A    
C45   C46   A    
C61   H29   S    
C83   H50   S    
C20   H10   S    
C13   C22   S    
C67   H33   S    
C81   H46   S    
C1    O6    A    
C58   H28   S    
V4    O20   S    
C30   C31   A    
C65   H32   S    
C12   H5    S    
C11   H4    S    
C23   H12   S    
C77   H42   S    
C17   H8    S    
C86   H55   S    
C81   H45   S    
C85   C86   S    
O18   V4    S    
C78   H40   S    
C3    C24   S    
C36   H16   S    
O5    C3    A    
C49   C54   A    
C79   H39   S    
C64   H31   S    
O15   V3    S    
C69   C70   A    
C70   H35   S    
C6    H1    S    
C43   C44   A    
C2    C69   S    
C71   H36   S    
O1    C2    A    
C59   C84   S    
C7    C16   S    
O8    V2    S    
O14   V3    S    
C80   C81   S    
C65   C66   A    
C43   C48   A    
C14   C15   A    
C63   C72   S    
C40   C41   A    
O1    V2    S    
C30   H15   S    
O7    V1    S    
C73   O16   A    
C84   H59   S    
C36   C37   A    
C61   C62   A    
O17   V4    S    
O9    C4    A    
C83   H51   S    
C20   C21   A    
C56   H27   S    
C42   C45   A    
O4    V1    S    
C58   C59   A    
C84   C85   S    
C31   C36   A    
C18   H9    S    
O13   C76   A    
C24   C25   A    
C77   H43   S    
C17   C22   A    
C86   H56   S    
C15   H7    S    
C81   H44   S    
C62   C63   A    
C29   H14   S    
O16   V4    S    
O4    C2    A    
C35   C80   S    
C42   C43   A    
C25   H13   S    
C27   C28   A    
C61   C66   A    
C47   C48   A    
C41   C82   S    
C57   C66   S    
C23   C28   A    
C49   C50   A    
C67   C72   A    
C60   C73   S    
O2    C1    A    
C21   H11   S    
C82   H53   S    
C38   H17   S    
C45   H20   S    
C53   C54   A    
O15   C75   A    
C9    H3    S    
C26   C29   A    
C57   C58   A    
C55   C56   A    
C5    C6    A    
C39   C44   A    
C67   C68   A    
C28   C35   A    
C23   C24   A    
O11   V4    S    
C56   C57   A    
C21   C22   A    
C46   H21   S    
C82   C83   S    
C68   H34   S    
O3    C4    A    
C85   H58   S    
C84   H60   S    
C25   C26   A    
C52   C53   A    
O6    V2    S    
O9    V2    S    
O13   V3    S    
O19   C76   A    
C54   H23   S    
C44   C51   A    
O12   C73   A    
O18   C75   A    
O2    V1    S    
C37   C76   S    
C62   H30   S    
C39   H19   S    
C29   C30   A    
C55   C60   A    
O19   V4    S    
O17   V3    S    
C63   C64   A    
C33   C34   A    
C31   C32   A    
C19   C20   A    
C48   C49   A    
C14   H6    S    
V3    O20   S    
C50   C51   A    
O5    V1    S    
C79   H37   S    
O11   C74   A    
C77   C78   S    
C11   C12   A    
C27   C32   A    
C59   C60   A    
C5    C10   A    
C8    C9    A    
C80   H47   S    
O7    V2    S    
C82   H52   S    
O3    V1    S    
V1    O10   S    
C17   C18   A    
C18   C19   A    
C46   C47   A    
C79   H38   S    
C34   C35   A    
C13   C14   A    
C1    C53   S    
C64   C65   A    
C47   C52   A    
C78   H41   S    
C52   H22   S    
C12   C13   A    
C55   H26   S    
C15   C16   A    
C70   C71   A    
C6    C7    A    
C9    C10   A    
C50   H24   S    
C39   C40   A    
C80   H48   S    
C71   C72   A    
C86   H54   S    
C78   C79   S    
C4    C19   S    
C85   H57   S    
C51   H25   S    
C11   C16   A    
C41   C42   A    
C7    C8    A    
C26   C27   A    
C83   H49   S    
O14   C74   A    
C33   C38   A    
C37   C38   A    
C5    C77   S    
C34   H18   S    
C8    H2    S    
C10   C75   S    
O12   V3    S    
V2    O10   S    
O8    C3    A    
C68   C69   A    
