data_mof_unit_10437.cif
_audit_creation_date              2012-12-10T20:28:42-0500
_audit_creation_method            fapswitch 2.2
_symmetry_space_group_name_H-M    P1
_symmetry_Int_Tables_number       1
_space_group_crystal_system       triclinic
_cell_length_a                    10.454004
_cell_length_b                    10.668473
_cell_length_c                    9.87676
_cell_angle_alpha                 89.790505
_cell_angle_beta                  89.854106
_cell_angle_gamma                 89.378914
_cell_volume                      1101.46230988

loop_
_atom_site_label
_atom_site_type_symbol
_atom_type_description
_atom_site_fract_x
_atom_site_fract_y
_atom_site_fract_z
_atom_type_partial_charge
C1    C     C_R   0.499766 0.260308 0.500451 0.879316
C2    C     C_R   0.068294 0.572882 0.628958 0.059565
C3    C     C_R   0.134185 0.579234 0.504616 -0.240877
C4    C     C_R   0.065510 0.592546 0.383664 0.234952
C5    C     C_R   0.939387 0.553156 0.383651 -0.235589
C6    C     C_R   0.880733 0.512207 0.503847 -0.175224
C7    C     C_R   0.537701 0.062022 0.613898 -0.027978
C8    C     C_R   0.491737 0.128699 0.502896 -0.077164
C9    C     C_R   0.427300 0.065922 0.399347 -0.213140
C10   C     C_R   0.427459 0.936030 0.398314 -0.236641
C11   C     C_R   0.490625 0.870927 0.502214 -0.050937
C12   C     C_R   0.266194 0.533986 0.500512 0.902684
C13   C     C_R   0.536597 0.935247 0.613593 0.026140
C14   C     C_3   0.651352 0.924774 0.704550 0.026983
C15   C     C_3   0.652050 0.069425 0.705685 0.006700
C16   C     C_R   0.484899 0.390750 0.071366 0.088405
C17   C     C_R   0.524262 0.606841 0.069562 0.235495
C18   C     C_R   0.524205 0.605738 0.926211 -0.217867
C19   C     C_R   0.484593 0.391112 0.928799 0.147689
C20   C     C_3   0.372278 0.307031 0.920632 -0.531926
C21   C     C_3   0.372044 0.305249 0.074749 -0.001555
C22   C     C_R   0.499033 0.739535 0.500054 0.873256
C23   C     C_R   0.742990 0.496538 0.500680 0.860938
C24   C     C_R   0.122502 0.611874 0.753667 0.277346
C25   C     C_R   0.070584 0.567872 0.875317 -0.242890
C26   C     C_R   0.964114 0.491154 0.874255 -0.202811
C27   C     C_R   0.902617 0.465919 0.752527 -0.161633
C28   C     C_R   0.948350 0.516172 0.628641 0.057514
H1    H     H_    0.627049 0.111662 0.805345 0.110801
H2    H     H_    0.541188 0.691298 0.870738 0.156227
H3    H     H_    0.287646 0.354089 0.873942 0.225305
H4    H     H_    0.398021 0.214726 0.875785 0.180529
H5    H     H_    0.395860 0.212029 0.118411 0.140905
H6    H     H_    0.927144 0.453646 0.968376 0.154331
H7    H     H_    0.822068 0.403797 0.757538 0.171350
H8    H     H_    0.379668 0.116571 0.318967 0.155469
H9    H     H_    0.627029 0.886058 0.805886 0.073596
N1    N     N_R   0.499160 0.499140 0.142800 -0.120252
N2    N     N_R   0.499160 0.499180 0.857150 -0.105805
O1    O     O_R   0.500020 0.316790 0.614690 -0.618681
O2    O     O_R   0.500000 0.316760 0.385350 -0.610308
O3    O     O_R   0.316770 0.500020 0.614690 -0.593226
O4    O     O_R   0.316760 0.499980 0.385350 -0.600066
O5    O     O_R   0.500000 0.683240 0.614650 -0.622663
O6    O     O_R   0.499980 0.683210 0.385310 -0.605995
O7    O     O_R   0.683240 0.500020 0.614650 -0.621588
O8    O     O_R   0.683230 0.499980 0.385310 -0.616664
Zn1   Zn    Zn3+2 0.500010 0.500020 0.653130 0.937067
Zn2   Zn    Zn3+2 0.499990 0.499980 0.346870 0.951522
N3    N     N_2   0.122764 0.645794 0.264930 -0.300480
H10   H     H_    0.215062 0.676418 0.278123 0.235609
C29   C     C_3   0.046884 0.739165 0.193321 -0.873730
H11   H     H_    0.012829 0.813141 0.264097 0.250643
H12   H     H_    0.964457 0.695328 0.142278 0.254216
H13   H     H_    0.106121 0.784117 0.113586 0.235728
N4    N     N_2   0.764603 0.863661 0.645988 -0.274579
H14   H     H_    0.785436 0.776953 0.687406 0.231268
C30   C     C_3   0.793894 0.872100 0.502538 -0.694085
H15   H     H_    0.899203 0.867212 0.488743 0.228534
H16   H     H_    0.758200 0.960890 0.456984 0.257163
H17   H     H_    0.751737 0.791814 0.448203 0.216653
N5    N     N_2   0.763143 0.125770 0.642114 -0.263962
H18   H     H_    0.743920 0.211568 0.597961 0.216233
C31   C     C_3   0.875799 0.129389 0.726912 -0.762913
H19   H     H_    0.856520 0.186060 0.819014 0.212678
H20   H     H_    0.955873 0.172272 0.669689 0.236701
H21   H     H_    0.905694 0.033454 0.758011 0.264273
N6    N     N_2   0.543696 0.722760 0.135219 -0.259641
H22   H     H_    0.488477 0.794507 0.095182 0.189820
C32   C     C_3   0.676364 0.757852 0.145911 -0.774082
H23   H     H_    0.730610 0.684851 0.202040 0.255175
H24   H     H_    0.683323 0.847324 0.202365 0.235531
H25   H     H_    0.719184 0.770796 0.043717 0.212566
N7    N     N_2   0.259302 0.364297 0.133889 -0.231938
H26   H     H_    0.240187 0.454117 0.100172 0.244085
C33   C     C_3   0.147263 0.286379 0.140845 -0.769428
H27   H     H_    0.070141 0.336648 0.196771 0.241797
H28   H     H_    0.169509 0.197677 0.195582 0.233905
H29   H     H_    0.112689 0.264939 0.037282 0.232866
N8    N     N_2   0.226073 0.697793 0.757449 -0.283765
H30   H     H_    0.273857 0.699844 0.848653 0.214808
C34   C     C_3   0.195412 0.822292 0.707699 -0.820139
H31   H     H_    0.167084 0.819427 0.599522 0.245708
H32   H     H_    0.280695 0.882749 0.716341 0.241218
H33   H     H_    0.116506 0.864480 0.768566 0.237641
H34   H     H_    0.113673 0.592227 0.970654 0.157067
H35   H     H_    0.887107 0.554422 0.289579 0.168451
H36   H     H_    0.381618 0.887237 0.315890 0.155803

loop_
_geom_bond_atom_site_label_1
_geom_bond_atom_site_label_2
_ccdc_geom_bond_type
C7    C13   A    
C14   N4    S    
C16   C21   S    
C6    C28   A    
C1    C8    S    
C19   C20   S    
C33   H29   S    
C7    C8    A    
O8    Zn2   S    
N1    Zn2   S    
C10   H36   S    
C26   C27   A    
N7    C33   S    
C33   H28   S    
C12   O4    A    
C5    C6    A    
C21   H5    S    
C30   H16   S    
N4    H14   S    
C12   O3    A    
C3    C12   S    
C1    O1    A    
N6    H22   S    
C26   H6    S    
C22   O5    A    
C29   H12   S    
C8    C9    A    
C9    H8    S    
N3    C29   S    
C32   H23   S    
C18   H2    S    
C9    C10   A    
N5    C31   S    
C29   H13   S    
C30   H17   S    
C7    C15   S    
C23   O7    A    
C13   C14   S    
O2    Zn2   S    
C24   N8    S    
C15   H1    S    
O7    Zn1   S    
C23   O8    A    
N7    H26   S    
C31   H21   S    
C24   C25   A    
N8    C34   S    
O4    Zn2   S    
N3    H10   S    
C30   H15   S    
C21   N7    S    
C4    N3    S    
C31   H20   S    
C18   N2    A    
N5    H18   S    
O6    Zn2   S    
C32   H25   S    
C17   C18   A    
O3    Zn1   S    
C33   H27   S    
C19   N2    A    
C1    O2    A    
C34   H32   S    
C2    C24   A    
C3    C4    A    
C29   H11   S    
C20   H4    S    
O1    Zn1   S    
C17   N6    S    
N8    H30   S    
C2    C28   A    
C34   H33   S    
C11   C22   S    
C27   H7    S    
C31   H19   S    
C2    C3    A    
C25   C26   A    
C14   H9    S    
C11   C13   A    
C16   C19   A    
C6    C23   S    
C25   H34   S    
C15   N5    S    
N4    C30   S    
C17   N1    A    
C10   C11   A    
C5    H35   S    
C4    C5    A    
C22   O6    A    
C20   C21   S    
N6    C32   S    
C34   H31   S    
C27   C28   A    
C14   C15   S    
C32   H24   S    
O5    Zn1   S    
C16   N1    A    
N2    Zn1   S    
C20   H3    S    
