data_mof_unit_38396.cif
_audit_creation_date              2012-12-11T15:34:52-0500
_audit_creation_method            fapswitch 2.2
_symmetry_space_group_name_H-M    P1
_symmetry_Int_Tables_number       1
_space_group_crystal_system       triclinic
_cell_length_a                    30.582662
_cell_length_b                    7.2475
_cell_length_c                    25.964975
_cell_angle_alpha                 89.99849
_cell_angle_beta                  112.01438
_cell_angle_gamma                 90.00041
_cell_volume                      5335.47665324

loop_
_atom_site_label
_atom_site_type_symbol
_atom_type_description
_atom_site_fract_x
_atom_site_fract_y
_atom_site_fract_z
_atom_type_partial_charge
O1    O     O_R   0.295360 0.592990 0.320420 -0.531600
O2    O     O_R   0.704640 0.407010 0.679580 -0.531600
O3    O     O_R   0.204640 0.092990 0.179580 -0.531600
O4    O     O_R   0.795360 0.907010 0.820420 -0.531600
O5    O     O_R   0.294060 0.265620 0.213230 -0.540756
O6    O     O_R   0.705940 0.734380 0.786770 -0.540758
O7    O     O_R   0.205940 0.765620 0.286770 -0.540764
O8    O     O_R   0.794060 0.234380 0.713230 -0.540761
C1    C     C_R   0.304120 0.432387 0.199434 0.695665
C2    C     C_R   0.695880 0.567613 0.800566 0.695665
C3    C     C_R   0.195879 0.932384 0.300565 0.695662
C4    C     C_R   0.804121 0.067616 0.699435 0.695662
O9    O     O_R   0.300850 0.263360 0.322080 -0.535309
O10   O     O_R   0.699150 0.736640 0.677920 -0.535310
O11   O     O_R   0.199150 0.763360 0.177920 -0.535307
O12   O     O_R   0.800850 0.236640 0.822080 -0.535308
O13   O     O_R   0.211480 0.091820 0.289210 -0.538297
O14   O     O_R   0.788520 0.908180 0.710790 -0.538295
O15   O     O_R   0.288520 0.591820 0.210790 -0.538293
O16   O     O_R   0.711480 0.408180 0.789210 -0.538295
C5    C     C_R   0.313285 0.431467 0.343183 0.683825
C6    C     C_R   0.686715 0.568532 0.656817 0.683827
C7    C     C_R   0.186715 0.931473 0.156818 0.683833
C8    C     C_R   0.813285 0.068527 0.843182 0.683829
O17   O     O_3   0.220670 0.426670 0.239090 -0.374227
O18   O     O_3   0.779330 0.573330 0.760910 -0.374225
O19   O     O_3   0.279330 0.926670 0.260910 -0.374222
O20   O     O_3   0.720670 0.073330 0.739090 -0.374224
V1    V     V_3+5 0.255440 0.152290 0.252020 1.414127
V2    V     V_3+5 0.744560 0.847710 0.747980 1.414125
V3    V     V_3+5 0.244560 0.652290 0.247980 1.414120
V4    V     V_3+5 0.755440 0.347710 0.752020 1.414122
C9    C     C_R   0.850290 0.063650 0.899418 -0.037818
C10   C     C_R   0.149710 0.936350 0.100582 -0.037820
C11   C     C_R   0.649709 0.563681 0.600581 -0.037834
C12   C     C_R   0.350291 0.436319 0.399418 -0.037835
C13   C     C_R   0.873842 0.126445 0.997537 -0.158574
C14   C     C_R   0.126158 0.873554 0.002462 -0.158576
C15   C     C_R   0.626147 0.626682 0.502471 -0.158584
C16   C     C_R   0.373852 0.373318 0.497529 -0.158580
C17   C     C_R   0.839000 0.117742 0.944504 -0.160532
C18   C     C_R   0.161000 0.882257 0.055496 -0.160531
C19   C     C_R   0.660992 0.617917 0.555501 -0.160518
C20   C     C_R   0.339008 0.382083 0.444499 -0.160516
C21   C     C_R   0.897231 0.018849 0.907734 -0.212272
C22   C     C_R   0.102769 0.981151 0.092266 -0.212269
C23   C     C_R   0.602772 0.518799 0.592262 -0.212283
C24   C     C_R   0.397228 0.481200 0.407738 -0.212283
C25   C     C_R   0.933832 0.029993 0.961496 0.085457
C26   C     C_R   0.066168 0.970007 0.038504 0.085457
C27   C     C_R   0.566168 0.530012 0.538503 0.085453
C28   C     C_R   0.433833 0.469987 0.461496 0.085453
C29   C     C_R   0.920920 0.084471 0.006382 0.136021
C30   C     C_R   0.079080 0.915529 0.993618 0.136027
C31   C     C_R   0.579073 0.584635 0.493624 0.136031
C32   C     C_R   0.420927 0.415365 0.506376 0.136029
C33   C     C_R   0.982628 0.991629 0.972284 0.057350
C34   C     C_R   0.017372 0.008371 0.027716 0.057345
C35   C     C_R   0.517374 0.491586 0.527713 0.057352
C36   C     C_R   0.482626 0.508413 0.472287 0.057353
C37   C     C_R   0.002125 0.062274 0.070479 -0.184234
C38   C     C_R   0.997875 0.937726 0.929521 -0.184240
C39   C     C_R   0.497866 0.562457 0.429529 -0.184252
C40   C     C_R   0.502134 0.437542 0.570470 -0.184251
C41   C     C_R   0.955007 0.099032 0.059902 -0.197961
C42   C     C_R   0.044993 0.900967 0.940097 -0.197969
C43   C     C_R   0.544982 0.599274 0.440107 -0.197978
C44   C     C_R   0.455018 0.400726 0.559892 -0.197975
H1    H     H_    0.945158 0.140598 0.094206 0.125548
H2    H     H_    0.054842 0.859402 0.905794 0.125531
H3    H     H_    0.554826 0.640950 0.405809 0.125518
H4    H     H_    0.445174 0.359050 0.594191 0.125521
H5    H     H_    0.096059 0.019520 0.128701 0.097147
H6    H     H_    0.903941 0.980480 0.871299 0.097143
H7    H     H_    0.403933 0.519673 0.371308 0.097152
H8    H     H_    0.596067 0.480326 0.628692 0.097153
H9    H     H_    0.864019 0.168782 0.031777 0.116978
H10   H     H_    0.135981 0.831218 0.968223 0.116976
H11   H     H_    0.635965 0.669131 0.468236 0.116978
H12   H     H_    0.364035 0.330870 0.531764 0.116983
H13   H     H_    0.025840 0.078099 0.113006 0.127099
H14   H     H_    0.974160 0.921900 0.886994 0.127090
H15   H     H_    0.474148 0.578353 0.387006 0.127080
H16   H     H_    0.525852 0.421646 0.612994 0.127082
C45   C     C_R   0.080419 0.856736 0.467283 0.577662
C46   C     C_R   0.919602 0.143325 0.532742 0.577789
C47   C     C_R   0.419608 0.356645 0.032753 0.577879
C48   C     C_R   0.580394 0.643345 0.967250 0.577868
N1    N     N_R   0.073614 0.975287 0.423926 -0.551456
N2    N     N_R   0.926391 0.024713 0.576082 -0.551443
N3    N     N_R   0.426378 0.475338 0.076068 -0.551438
N4    N     N_R   0.573622 0.524659 0.923933 -0.551434
C49   C     C_R   0.038563 0.105749 0.409925 0.552553
C50   C     C_R   0.961429 0.894192 0.590067 0.552640
C51   C     C_R   0.461394 0.605945 0.090023 0.552733
C52   C     C_R   0.538605 0.394059 0.909976 0.552723
C53   C     C_R   0.007554 0.118229 0.439214 -0.067222
C54   C     C_R   0.992452 0.881762 0.560795 -0.067263
C55   C     C_R   0.492425 0.618342 0.060760 -0.067318
C56   C     C_R   0.507576 0.381654 0.939242 -0.067318
C57   C     C_R   0.014743 0.996073 0.484371 -0.032411
C58   C     C_R   0.985272 0.003959 0.515648 -0.032446
C59   C     C_R   0.485263 0.496067 0.015638 -0.032525
C60   C     C_R   0.514739 0.503926 0.984365 -0.032524
C61   C     C_R   0.051394 0.865345 0.498319 -0.043339
C62   C     C_R   0.948626 0.134710 0.501705 -0.043314
C63   C     C_R   0.448634 0.365252 0.001717 -0.043290
C64   C     C_R   0.551368 0.634739 0.998286 -0.043289
C65   C     C_R   0.969901 0.247909 0.425567 -0.019167
C66   C     C_R   0.030106 0.752082 0.574442 -0.019126
C67   C     C_R   0.530068 0.748070 0.074391 -0.019139
C68   C     C_R   0.469933 0.251925 0.925612 -0.019142
C69   C     C_R   0.941530 0.255180 0.457104 -0.197267
C70   C     C_R   0.058488 0.744866 0.542917 -0.197283
C71   C     C_R   0.558445 0.755291 0.042861 -0.197322
C72   C     C_R   0.441557 0.244699 0.957143 -0.197316
O21   O     O_2   0.115705 0.731925 0.480905 -0.531139
O22   O     O_2   0.884329 0.268190 0.519134 -0.531132
O23   O     O_2   0.384353 0.231705 0.019169 -0.531125
O24   O     O_2   0.615651 0.768277 0.980836 -0.531131
O25   O     O_2   0.033878 0.221977 0.367675 -0.530055
O26   O     O_2   0.966081 0.777840 0.632278 -0.530077
O27   O     O_2   0.466013 0.722431 0.132192 -0.530085
O28   O     O_2   0.533982 0.277587 0.867803 -0.530089
H17   H     H_    0.913251 0.355827 0.446049 0.171718
H18   H     H_    0.086770 0.644228 0.553973 0.171712
H19   H     H_    0.586717 0.855967 0.053902 0.171724
H20   H     H_    0.413286 0.144021 0.946103 0.171726
C73   C     C_R   0.893446 0.198724 0.635516 -0.097922
C74   C     C_R   0.131996 0.115468 0.390575 -0.089601
C75   C     C_R   0.606546 0.698663 0.864476 -0.097910
C76   C     C_R   0.367954 0.615434 0.109367 -0.089590
H21   H     H_    0.914859 0.316773 0.634591 0.150232
H22   H     H_    0.130984 0.241559 0.412484 0.144274
H23   H     H_    0.585120 0.816688 0.865386 0.150303
H24   H     H_    0.368933 0.741472 0.087416 0.144389
C77   C     C_R   0.863605 0.209826 0.665276 -0.207140
C78   C     C_R   0.161340 0.105436 0.360308 -0.205949
C79   C     C_R   0.636385 0.709781 0.834712 -0.207163
C80   C     C_R   0.338613 0.605390 0.139636 -0.205953
H25   H     H_    0.862569 0.337150 0.686613 0.138715
H26   H     H_    0.182336 0.225074 0.359633 0.133976
H27   H     H_    0.637407 0.837092 0.813360 0.138719
H28   H     H_    0.317585 0.724967 0.140273 0.133970
C81   C     C_R   0.835929 0.057509 0.667923 -0.053236
C82   C     C_R   0.164071 0.942492 0.332078 -0.053242
C83   C     C_R   0.664076 0.557493 0.832082 -0.053229
C84   C     C_R   0.335924 0.442506 0.167918 -0.053230
C85   C     C_R   0.838643 0.894595 0.639670 -0.205953
C86   C     C_R   0.136412 0.790145 0.334748 -0.207115
C87   C     C_R   0.661380 0.394596 0.860355 -0.205956
C88   C     C_R   0.363622 0.290231 0.165297 -0.207163
H29   H     H_    0.817632 0.774983 0.640328 0.133974
H30   H     H_    0.137461 0.662795 0.313429 0.138707
H31   H     H_    0.682403 0.275008 0.859712 0.133970
H32   H     H_    0.362604 0.162931 0.186656 0.138722
C89   C     C_R   0.867988 0.884563 0.609405 -0.089597
C90   C     C_R   0.106573 0.801245 0.364511 -0.097938
C91   C     C_R   0.632039 0.384551 0.890625 -0.089595
C92   C     C_R   0.393460 0.301349 0.135534 -0.097912
C93   C     C_R   0.895812 0.036108 0.607173 0.367970
C94   C     C_R   0.104191 0.963891 0.392831 0.368022
C95   C     C_R   0.604199 0.536064 0.892839 0.367913
C96   C     C_R   0.395801 0.463934 0.107162 0.367911
H33   H     H_    0.868987 0.758497 0.587479 0.144329
H34   H     H_    0.085173 0.683171 0.365454 0.150165
H35   H     H_    0.631056 0.258502 0.912569 0.144386
H36   H     H_    0.414891 0.183334 0.134630 0.150305
H37   H     H_    0.196930 0.845516 0.061486 0.110126
H38   H     H_    0.803070 0.154483 0.938514 0.110126
H39   H     H_    0.303082 0.345273 0.438505 0.110147
H40   H     H_    0.696918 0.654727 0.561495 0.110140
C97   C     C_R   0.957963 0.377964 0.378438 0.155527
C98   C     C_R   0.968481 0.566169 0.388337 -0.113045
C99   C     C_R   0.956776 0.690003 0.343919 -0.116190
C100  C     C_R   0.934145 0.626786 0.289477 -0.092356
C101  C     C_R   0.922920 0.439781 0.279403 -0.108151
C102  C     C_R   0.934526 0.315526 0.323747 -0.058400
H41   H     H_    0.985640 0.616150 0.430377 0.118302
H42   H     H_    0.965065 0.834905 0.351645 0.114271
H43   H     H_    0.925108 0.722832 0.255130 0.109547
H44   H     H_    0.905172 0.391182 0.237249 0.107201
H45   H     H_    0.925608 0.170986 0.315580 0.094295
C103  C     C_R   0.042028 0.621925 0.621547 0.155479
C104  C     C_R   0.065366 0.684296 0.676265 -0.058139
C105  C     C_R   0.076960 0.559930 0.720581 -0.108142
C106  C     C_R   0.065832 0.372873 0.710454 -0.092434
C107  C     C_R   0.043309 0.309723 0.655988 -0.116130
C108  C     C_R   0.031611 0.433668 0.611597 -0.113291
H46   H     H_    0.074212 0.828873 0.684475 0.094246
H47   H     H_    0.094625 0.608484 0.762756 0.107189
H48   H     H_    0.074862 0.276738 0.744779 0.109540
H49   H     H_    0.035102 0.164783 0.648220 0.114189
H50   H     H_    0.014542 0.383725 0.569539 0.118378
C109  C     C_R   0.541994 0.878225 0.121496 0.155475
C110  C     C_R   0.531659 0.066537 0.111541 -0.113444
C111  C     C_R   0.543360 0.190473 0.155931 -0.116105
C112  C     C_R   0.565808 0.127265 0.210404 -0.092489
C113  C     C_R   0.576861 0.940154 0.220538 -0.108136
C114  C     C_R   0.565264 0.815797 0.176222 -0.057981
H51   H     H_    0.514654 0.116532 0.069478 0.118443
H52   H     H_    0.535215 0.335455 0.148157 0.114114
H53   H     H_    0.574840 0.223391 0.244729 0.109531
H54   H     H_    0.594468 0.891548 0.262718 0.107176
H55   H     H_    0.574052 0.671179 0.184438 0.094189
C115  C     C_R   0.458008 0.121765 0.878507 0.155480
C116  C     C_R   0.434730 0.184182 0.823783 -0.057985
C117  C     C_R   0.423130 0.059817 0.779468 -0.108138
C118  C     C_R   0.434189 0.872711 0.789603 -0.092482
C119  C     C_R   0.456645 0.809514 0.844076 -0.116103
C120  C     C_R   0.468348 0.933458 0.888465 -0.113447
H56   H     H_    0.425937 0.328796 0.815565 0.094196
H57   H     H_    0.405517 0.108413 0.737288 0.107182
H58   H     H_    0.425155 0.776578 0.755279 0.109535
H59   H     H_    0.464794 0.664536 0.851851 0.114123
H60   H     H_    0.485359 0.883472 0.930528 0.118444

loop_
_geom_bond_atom_site_label_1
_geom_bond_atom_site_label_2
_ccdc_geom_bond_type
O17   V3    S    
C55   C59   A    
C88   C92   A    
O1    C5    A    
C117  H57   S    
C54   C66   A    
C49   C53   A    
O19   V1    S    
C9    C21   A    
O3    C7    A    
C10   C18   A    
C56   C60   A    
C11   C23   A    
C80   C84   A    
C33   C34   A    
C25   C33   A    
C33   C38   A    
C5    C12   S    
C46   C62   A    
C97   C98   A    
O7    C3    A    
C6    C11   S    
C79   C83   A    
C35   C40   A    
C57   C58   A    
C36   C39   A    
C92   C96   A    
C64   C71   A    
C77   C81   A    
C49   O25   S    
C23   H8    S    
C14   C18   A    
C75   H23   S    
C119  C120  A    
O4    C8    A    
C65   C97   S    
C76   H24   S    
C44   H4    S    
C43   H3    S    
C69   H17   S    
C50   C54   A    
C51   O27   S    
C101  H44   S    
C114  H55   S    
C60   C64   A    
O1    V3    S    
C87   C91   A    
O13   V1    S    
C103  C104  A    
O2    V4    S    
C89   C93   A    
C105  H47   S    
O3    V1    S    
C85   H29   S    
C98   C99   A    
C40   H16   S    
C28   C36   A    
C82   C86   A    
C79   H27   S    
C115  C120  A    
C1    O15   A    
C15   C31   A    
C76   C80   A    
C48   N4    A    
C2    O16   A    
C117  C118  A    
C16   C32   A    
O2    C6    A    
C86   H30   S    
C16   H12   S    
C58   C62   A    
C112  C113  A    
C10   C22   A    
C91   C95   A    
C75   C95   A    
C48   O24   S    
C11   C19   A    
C66   C70   A    
C16   C20   A    
C27   C31   A    
C102  H45   S    
C65   C69   A    
C2    C83   S    
C13   C29   A    
C74   C94   A    
C34   C37   A    
O11   C7    A    
C120  H60   S    
C38   H14   S    
C71   H19   S    
O15   V3    S    
C35   C36   A    
O12   C8    A    
N1    C49   A    
C112  H53   S    
C24   H7    S    
C74   H22   S    
O10   V2    S    
C45   C61   A    
C108  H50   S    
C73   C77   A    
C8    C9    S    
N2    C50   A    
O5    V1    S    
N4    C52   A    
C57   C61   A    
C100  H43   S    
C39   C43   A    
O7    V3    S    
C47   N3    A    
C38   C42   A    
C62   C69   A    
C73   C93   A    
C116  C117  A    
C26   C34   A    
C80   H28   S    
C61   C70   A    
C104  H46   S    
C88   H32   S    
C46   N2    A    
C89   H33   S    
C45   N1    A    
O18   V4    S    
C15   C19   A    
N2    C93   S    
C32   C44   A    
C13   H9    S    
O4    V2    S    
C39   H15   S    
C107  C108  A    
O8    V4    S    
C4    C81   S    
C83   C87   A    
C76   C96   A    
C47   O23   S    
C18   H37   S    
C53   C65   A    
C31   C43   A    
C99   C100  A    
C14   C30   A    
C21   C25   A    
O8    C4    A    
C7    C10   S    
C55   C67   A    
C118  C119  A    
O9    C5    A    
C111  H52   S    
C46   O22   S    
C26   C30   A    
C45   O21   S    
C106  H48   S    
O14   V2    S    
C50   O26   S    
C52   O28   S    
C100  C101  A    
O6    V2    S    
C107  H49   S    
C56   C68   A    
C87   H31   S    
C78   H26   S    
C113  H54   S    
C73   H21   S    
N3    C96   S    
C12   C20   A    
C27   C35   A    
C74   C78   A    
C40   C44   A    
N1    C94   S    
C68   C72   A    
C29   C41   A    
C90   H34   S    
C59   C63   A    
C109  C114  A    
O16   V4    S    
O9    V1    S    
C77   H25   S    
C3    O13   A    
C86   C90   A    
C115  C116  A    
N4    C95   S    
C84   C88   A    
O5    C1    A    
C110  C111  A    
O6    C2    A    
C23   C27   A    
C19   H40   S    
C3    C82   S    
O11   V3    S    
C99   H42   S    
C30   C42   A    
O12   V4    S    
C14   H10   S    
C17   H38   S    
C22   C26   A    
C1    C84   S    
C118  H58   S    
C119  H59   S    
C9    C17   A    
O10   C6    A    
O20   V2    S    
C110  H51   S    
C20   H39   S    
C68   C115  S    
C106  C107  A    
C54   C58   A    
C104  C105  A    
C116  H56   S    
C67   C109  S    
C97   C102  A    
C78   C82   A    
C41   H1    S    
C52   C56   A    
C91   H35   S    
C12   C24   A    
C51   C55   A    
C92   H36   S    
C13   C17   A    
C111  C112  A    
C81   C85   A    
C63   C72   A    
C25   C29   A    
C75   C79   A    
C90   C94   A    
C113  C114  A    
C66   C103  S    
C109  C110  A    
C48   C64   A    
C37   C41   A    
C24   C28   A    
C47   C63   A    
C42   H2    S    
N3    C51   A    
C67   C71   A    
C101  C102  A    
C72   H20   S    
C4    O14   A    
C59   C60   A    
C70   H18   S    
C103  C108  A    
C21   H6    S    
C37   H13   S    
C105  C106  A    
C85   C89   A    
C98   H41   S    
C22   H5    S    
C53   C57   A    
C28   C32   A    
C15   H11   S    
