data_mof_unit_57162.cif
_audit_creation_date              2012-12-11T14:44:33-0500
_audit_creation_method            fapswitch 2.2
_symmetry_space_group_name_H-M    P1
_symmetry_Int_Tables_number       1
_space_group_crystal_system       triclinic
_cell_length_a                    19.899386
_cell_length_b                    7.220165
_cell_length_c                    19.709847
_cell_angle_alpha                 89.828461
_cell_angle_beta                  98.556008
_cell_angle_gamma                 89.793298
_cell_volume                      2800.29674757

loop_
_atom_site_label
_atom_site_type_symbol
_atom_type_description
_atom_site_fract_x
_atom_site_fract_y
_atom_site_fract_z
_atom_type_partial_charge
O1    O     O_R   0.673210 0.377390 0.686390 -0.534623
O2    O     O_R   0.326790 0.622610 0.313610 -0.534623
O3    O     O_R   0.826790 0.877390 0.813610 -0.517931
O4    O     O_R   0.173210 0.122610 0.186390 -0.517930
O5    O     O_R   0.810750 0.706450 0.681250 -0.527431
O6    O     O_R   0.189250 0.293550 0.318750 -0.527429
O7    O     O_R   0.689250 0.206450 0.818750 -0.537932
O8    O     O_R   0.310750 0.793550 0.181250 -0.537932
C1    C     C_R   0.830296 0.538436 0.664683 0.718196
C2    C     C_R   0.169705 0.461564 0.335317 0.718192
C3    C     C_R   0.669710 0.038457 0.835312 0.695325
C4    C     C_R   0.330290 0.961543 0.164688 0.695325
O9    O     O_R   0.672750 0.707060 0.678240 -0.537896
O10   O     O_R   0.327250 0.292940 0.321760 -0.537897
O11   O     O_R   0.827250 0.207060 0.821760 -0.543753
O12   O     O_R   0.172750 0.792940 0.178240 -0.543753
O13   O     O_R   0.687800 0.877990 0.810580 -0.541079
O14   O     O_R   0.312200 0.122010 0.189420 -0.541079
O15   O     O_R   0.812200 0.377990 0.689420 -0.539605
O16   O     O_R   0.187800 0.622010 0.310580 -0.539604
C5    C     C_R   0.648071 0.538387 0.661711 0.695191
C6    C     C_R   0.351929 0.461613 0.338289 0.695187
C7    C     C_R   0.852113 0.037318 0.838016 0.741445
C8    C     C_R   0.147887 0.962682 0.161984 0.741445
O17   O     O_3   0.755100 0.544060 0.793420 -0.375297
O18   O     O_3   0.244900 0.455940 0.206580 -0.375298
O19   O     O_3   0.744900 0.044060 0.706580 -0.373919
O20   O     O_3   0.255100 0.955940 0.293420 -0.373917
V1    V     V_3+5 0.749050 0.818670 0.741950 1.428567
V2    V     V_3+5 0.250950 0.181330 0.258050 1.428570
V3    V     V_3+5 0.750950 0.318670 0.758050 1.402599
V4    V     V_3+5 0.249050 0.681330 0.241950 1.402600
C9    C     C_R   0.085119 0.982009 0.110838 -0.103694
C10   C     C_R   0.914880 0.017991 0.889162 -0.103695
C11   C     C_R   0.414843 0.475787 0.389361 -0.139146
C12   C     C_R   0.585157 0.524212 0.610639 -0.139147
C13   C     C_R   0.022731 0.857609 0.927501 0.165330
C14   C     C_R   0.977269 0.142392 0.072499 0.165330
C15   C     C_R   0.468170 0.414467 0.578795 0.224433
C16   C     C_R   0.531830 0.585532 0.421205 0.224432
C17   C     C_R   0.967388 0.897530 0.875956 0.203370
C18   C     C_R   0.032613 0.102472 0.124044 0.203370
C19   C     C_R   0.525395 0.445539 0.629137 0.146275
C20   C     C_R   0.474605 0.554461 0.370863 0.146275
C21   C     C_R   0.919173 0.101506 0.953725 -0.296606
C22   C     C_R   0.080826 0.898492 0.046276 -0.296606
C23   C     C_R   0.586402 0.572838 0.541841 -0.229831
C24   C     C_R   0.413598 0.427162 0.458159 -0.229832
C25   C     C_R   0.973914 0.062056 0.006507 0.047499
C26   C     C_R   0.026085 0.937942 0.993493 0.047498
C27   C     C_R   0.529767 0.540318 0.490707 0.049152
C28   C     C_R   0.470233 0.459682 0.509293 0.049152
H1    H     H_    0.122011 0.808150 0.037090 0.135557
H2    H     H_    0.877988 0.191847 0.962911 0.135557
H3    H     H_    0.367348 0.368664 0.471790 0.162164
H4    H     H_    0.632652 0.631336 0.528210 0.162164
C29   C     C_R   0.571489 0.893238 0.878501 -0.245966
C30   C     C_R   0.428511 0.106762 0.121499 -0.245966
C31   C     C_R   0.928506 0.392152 0.621433 -0.246296
C32   C     C_R   0.071495 0.607848 0.378568 -0.246299
C33   C     C_R   0.621853 0.029307 0.886532 -0.080967
C34   C     C_R   0.378147 0.970692 0.113468 -0.080967
C35   C     C_R   0.878138 0.529308 0.613454 -0.082237
C36   C     C_R   0.121864 0.470693 0.386548 -0.082235
C37   C     C_R   0.626619 0.151455 0.943399 0.118022
C38   C     C_R   0.373382 0.848544 0.056602 0.118021
C39   C     C_R   0.873393 0.652733 0.556660 0.110131
C40   C     C_R   0.126610 0.347270 0.443342 0.110138
C41   C     C_R   0.573519 0.153867 0.985331 0.072302
C42   C     C_R   0.426482 0.846132 0.014670 0.072303
C43   C     C_R   0.926487 0.654980 0.514736 0.073483
C44   C     C_R   0.073517 0.345023 0.485267 0.073467
C45   C     C_R   0.524708 0.007967 0.977566 -0.014139
C46   C     C_R   0.475293 0.992032 0.022435 -0.014139
C47   C     C_R   0.975296 0.507996 0.522437 -0.013757
C48   C     C_R   0.024706 0.492006 0.477565 -0.013756
C49   C     C_R   0.525093 0.877333 0.924813 0.062916
C50   C     C_R   0.474908 0.122666 0.075188 0.062915
C51   C     C_R   0.974913 0.376318 0.575128 0.062049
C52   C     C_R   0.025089 0.623683 0.424875 0.062051
C53   C     C_R   0.566719 0.294612 0.034748 0.154232
C54   C     C_R   0.433282 0.705387 0.965252 0.154231
C55   C     C_R   0.933268 0.796560 0.465374 0.153250
C56   C     C_R   0.066736 0.203444 0.534630 0.153245
C57   C     C_R   0.519884 0.271639 0.080593 -0.182637
C58   C     C_R   0.480117 0.728360 0.919407 -0.182637
C59   C     C_R   0.980104 0.773599 0.419528 -0.181714
C60   C     C_R   0.019898 0.226403 0.580475 -0.181703
H5    H     H_    0.569226 0.796035 0.836350 0.128704
H6    H     H_    0.430774 0.203965 0.163650 0.128704
H7    H     H_    0.930768 0.294084 0.663540 0.136474
H8    H     H_    0.069233 0.705915 0.336462 0.136475
H9    H     H_    0.516371 0.376314 0.119330 0.132878
H10   H     H_    0.483629 0.623685 0.880670 0.132878
H11   H     H_    0.983611 0.878962 0.380837 0.131383
H12   H     H_    0.016391 0.121040 0.619165 0.131381
N1    N     N_3   0.035669 0.184388 0.190710 -0.659722
H13   H     H_    0.035364 0.328463 0.185080 0.247478
H14   H     H_    0.992165 0.145942 0.211128 0.240276
N2    N     N_3   0.964333 0.815620 0.809289 -0.659725
H15   H     H_    0.964638 0.671544 0.814917 0.247479
H16   H     H_    0.007837 0.854070 0.788871 0.240275
N3    N     N_3   0.478649 0.602146 0.300822 -0.683712
H17   H     H_    0.466287 0.485452 0.270267 0.214873
H18   H     H_    0.443292 0.706756 0.285114 0.240956
N4    N     N_3   0.521351 0.397854 0.699178 -0.683712
H19   H     H_    0.533713 0.514549 0.729733 0.214873
H20   H     H_    0.556708 0.293245 0.714886 0.240956
N5    N     N_3   0.074538 0.733242 0.911471 -0.687304
H21   H     H_    0.077314 0.619640 0.944804 0.234714
H22   H     H_    0.121116 0.802380 0.918509 0.230366
N6    N     N_3   0.925462 0.266759 0.088529 -0.687304
H23   H     H_    0.922686 0.380360 0.055196 0.234714
H24   H     H_    0.878884 0.197622 0.081492 0.230366
N7    N     N_3   0.407828 0.334894 0.598254 -0.678203
H25   H     H_    0.420474 0.206158 0.621170 0.251323
H26   H     H_    0.390696 0.421040 0.634702 0.251548
N8    N     N_3   0.592172 0.665106 0.401746 -0.678201
H27   H     H_    0.579526 0.793842 0.378830 0.251323
H28   H     H_    0.609304 0.578960 0.365298 0.251549
C61   C     C_3   0.693853 0.247718 0.965867 -0.747661
H29   H     H_    0.706526 0.247177 0.022548 0.204013
H30   H     H_    0.736750 0.171742 0.948444 0.181287
H31   H     H_    0.693122 0.390427 0.944818 0.216901
C62   C     C_3   0.306147 0.752281 0.034134 -0.747658
H32   H     H_    0.293475 0.752820 0.977452 0.204013
H33   H     H_    0.306878 0.609572 0.055183 0.216900
H34   H     H_    0.263250 0.828258 0.051556 0.181286
C63   C     C_3   0.806184 0.750778 0.534232 -0.727473
H35   H     H_    0.793440 0.751189 0.477555 0.209008
H36   H     H_    0.763335 0.675516 0.551762 0.181825
H37   H     H_    0.806959 0.893185 0.555229 0.215742
C64   C     C_3   0.193819 0.249224 0.465770 -0.727462
H38   H     H_    0.206571 0.248867 0.522447 0.208995
H39   H     H_    0.193036 0.106794 0.444791 0.215738
H40   H     H_    0.236667 0.324451 0.448223 0.181828
C65   C     C_3   0.600706 0.481600 0.035081 -0.757761
H41   H     H_    0.651989 0.477488 0.065949 0.208413
H42   H     H_    0.602891 0.529266 0.981951 0.218494
H43   H     H_    0.571103 0.589096 0.058201 0.210520
C66   C     C_3   0.399295 0.518398 0.964920 -0.757756
H44   H     H_    0.397109 0.470735 0.018051 0.218493
H45   H     H_    0.348013 0.522509 0.934051 0.208412
H46   H     H_    0.428899 0.410901 0.941802 0.210519
C67   C     C_3   0.899239 0.984170 0.465081 -0.758711
H47   H     H_    0.847915 0.981483 0.434304 0.209202
H48   H     H_    0.897145 0.031017 0.518227 0.219504
H49   H     H_    0.928754 0.091516 0.441886 0.209633
C68   C     C_3   0.100767 0.015838 0.534924 -0.758689
H50   H     H_    0.102841 0.968966 0.481777 0.219496
H51   H     H_    0.152102 0.018546 0.565682 0.209203
H52   H     H_    0.071268 0.908497 0.558142 0.209623

loop_
_geom_bond_atom_site_label_1
_geom_bond_atom_site_label_2
_ccdc_geom_bond_type
O17   V3    S    
C24   H3    S    
C16   N8    S    
C60   H12   S    
C30   C34   A    
O19   V1    S    
O13   V1    S    
C45   C46   A    
O3    C7    A    
C44   C48   A    
O15   V3    S    
N6    H24   S    
N1    H13   S    
C14   C25   A    
C38   C42   A    
O1    C5    A    
C6    C11   S    
C65   H42   S    
O5    C1    A    
C29   H5    S    
C9    C18   A    
C36   C40   A    
O9    V1    S    
C40   C64   S    
C14   C18   A    
C52   C59   A    
C66   H45   S    
O4    C8    A    
N4    H19   S    
N7    H25   S    
O1    V3    S    
C12   C23   A    
O2    V4    S    
O3    V1    S    
N8    H27   S    
C51   C60   A    
C61   H31   S    
C58   H10   S    
N1    H14   S    
C55   C67   S    
C57   H9    S    
C1    O15   A    
C32   C52   A    
C2    O16   A    
N7    H26   S    
C59   H11   S    
O2    C6    A    
C62   H34   S    
C41   C45   A    
O14   V2    S    
C37   C61   S    
C16   C20   A    
C43   C55   A    
C40   C44   A    
C63   H37   S    
C56   C68   S    
O11   C7    A    
C15   C28   A    
O12   C8    A    
C64   H39   S    
C9    C22   A    
C68   H51   S    
C39   C63   S    
C10   C17   A    
O10   V2    S    
C54   C66   S    
C11   C24   A    
N6    H23   S    
C67   H48   S    
C20   N3    S    
C67   H47   S    
O5    V1    S    
C32   H8    S    
C65   H43   S    
C35   C39   A    
O7    V3    S    
C34   C38   A    
C27   C28   A    
O8    V4    S    
C29   C49   A    
N5    H21   S    
C18   N1    S    
C31   C51   A    
C5    C12   S    
O18   V4    S    
C23   C27   A    
C54   C58   A    
O4    V2    S    
C19   N4    S    
C56   C60   A    
O7    C3    A    
C47   C48   A    
C42   C46   A    
C64   H40   S    
C4    C34   S    
C21   C25   A    
O8    C4    A    
C7    C10   S    
N2    H16   S    
C17   N2    S    
O9    C5    A    
N3    H18   S    
C10   C21   A    
C31   H7    S    
O11   V3    S    
C11   C20   A    
C30   H6    S    
C61   H29   S    
C44   C56   A    
C50   C57   A    
O6    V2    S    
C49   C58   A    
C15   N7    S    
C64   H38   S    
C68   H52   S    
C14   N6    S    
C67   H49   S    
C62   H33   S    
C63   H35   S    
O16   V4    S    
C3    O13   A    
C1    C35   S    
C13   N5    S    
C2    C36   S    
C48   C52   A    
C3    C33   S    
C55   C59   A    
C21   H2    S    
C15   C19   A    
C29   C33   A    
C66   H46   S    
O12   V4    S    
C16   C27   A    
C65   H41   S    
C22   C26   A    
C31   C35   A    
C8    C9    S    
C38   C62   S    
C32   C36   A    
O10   C6    A    
N5    H22   S    
C66   H44   S    
C43   C47   A    
C13   C26   A    
C62   H32   S    
N4    H20   S    
C37   C41   A    
C22   H1    S    
O20   V2    S    
N2    H15   S    
C39   C43   A    
C13   C17   A    
C42   C54   A    
N8    H28   S    
C61   H30   S    
C41   C53   A    
O6    C2    A    
C30   C50   A    
C33   C37   A    
C24   C28   A    
C25   C26   A    
C46   C50   A    
C4    O14   A    
N3    H17   S    
C53   C65   S    
C45   C49   A    
C12   C19   A    
C68   H50   S    
C47   C51   A    
C53   C57   A    
C23   H4    S    
C63   H36   S    
