data_mof_unit_15935.cif
_audit_creation_date              2012-12-10T17:31:19-0500
_audit_creation_method            fapswitch 2.2
_symmetry_space_group_name_H-M    P1
_symmetry_Int_Tables_number       1
_space_group_crystal_system       triclinic
_cell_length_a                    19.359763
_cell_length_b                    19.761732
_cell_length_c                    12.352162
_cell_angle_alpha                 90.549919
_cell_angle_beta                  130.917295
_cell_angle_gamma                 89.171241
_cell_volume                      3570.64438962

loop_
_atom_site_label
_atom_site_type_symbol
_atom_type_description
_atom_site_fract_x
_atom_site_fract_y
_atom_site_fract_z
_atom_type_partial_charge
C1    C     C_R   0.608064 0.896803 0.648487 0.865251
C2    C     C_R   0.604290 0.104197 0.645020 0.859135
C3    C     C_R   0.108067 0.396804 0.648490 0.865255
C4    C     C_R   0.104289 0.604197 0.645020 0.859137
C5    C     C_R   0.271749 0.757888 0.069089 0.033392
C6    C     C_R   0.265704 0.232321 0.055468 0.048057
C7    C     C_R   0.771744 0.257889 0.069086 0.033390
C8    C     C_R   0.765685 0.732314 0.055456 0.048066
C9    C     C_R   0.748450 0.215741 0.131751 -0.009095
C10   C     C_R   0.783766 0.788451 0.142987 0.005576
C11   C     C_R   0.248460 0.715738 0.131759 -0.009050
C12   C     C_R   0.283791 0.288457 0.143002 0.005619
C13   C     C_R   0.677342 0.170632 0.045587 -0.247875
C14   C     C_R   0.747615 0.851616 0.080903 -0.239995
C15   C     C_R   0.177347 0.670632 0.045593 -0.247877
C16   C     C_R   0.247640 0.351623 0.080918 -0.239987
C17   C     C_R   0.631787 0.167031 0.900008 0.206652
C18   C     C_R   0.679326 0.854105 0.933602 0.228568
C19   C     C_R   0.131789 0.667032 0.900012 0.206640
C20   C     C_R   0.179345 0.354111 0.933618 0.228552
C21   C     C_R   0.305665 0.822670 0.130279 0.388428
C22   C     C_R   0.278252 0.166232 0.110037 0.353486
C23   C     C_R   0.805663 0.322671 0.130276 0.388444
C24   C     C_R   0.778241 0.666225 0.110029 0.353507
C25   C     C_R   0.342405 0.782250 0.349821 0.449380
C26   C     C_R   0.336067 0.214789 0.337734 0.438614
C27   C     C_R   0.842379 0.282256 0.349803 0.449302
C28   C     C_R   0.836051 0.714783 0.337723 0.438617
C29   C     C_R   0.650703 0.169365 0.715478 -0.191134
C30   C     C_R   0.650626 0.828474 0.710728 -0.177054
C31   C     C_R   0.150701 0.669366 0.715477 -0.191128
C32   C     C_R   0.150637 0.328479 0.710737 -0.177072
C33   C     C_R   0.688081 0.996441 0.303279 -0.268537
C34   C     C_R   0.188081 0.496438 0.303278 -0.268558
C35   C     C_R   0.343731 0.995451 0.624266 0.168953
C36   C     C_R   0.843731 0.495454 0.624266 0.168883
C37   C     C_R   0.311402 0.997792 0.696198 -0.175939
C38   C     C_R   0.811401 0.497797 0.696197 -0.175972
C39   C     C_R   0.383876 0.097976 0.340676 0.794527
C40   C     C_R   0.389114 0.899208 0.346301 0.854467
C41   C     C_R   0.883874 0.597975 0.340674 0.794517
C42   C     C_R   0.889113 0.399208 0.346300 0.854448
C43   C     C_R   0.371657 0.007413 0.843430 -0.154413
C44   C     C_R   0.871657 0.507417 0.843431 -0.154412
C45   C     C_R   0.466929 0.009560 0.924073 -0.046026
C46   C     C_R   0.966930 0.509563 0.924073 -0.046029
C47   C     C_R   0.499379 0.005899 0.848332 0.229067
C48   C     C_R   0.999379 0.505900 0.848332 0.229072
C49   C     C_R   0.530456 0.010111 0.077336 -0.013195
C50   C     C_R   0.030456 0.510113 0.077336 -0.013198
C51   C     C_R   0.624837 0.005077 0.154355 0.099623
C52   C     C_R   0.124837 0.505077 0.154355 0.099638
C53   C     C_R   0.657030 0.007893 0.084258 -0.385941
C54   C     C_R   0.157030 0.507893 0.084258 -0.385929
C55   C     C_R   0.598734 0.007883 0.934561 0.513637
C56   C     C_R   0.098734 0.507884 0.934561 0.513637
C57   C     C_R   0.504686 0.013309 0.159854 0.049930
C58   C     C_R   0.004686 0.513312 0.159855 0.049929
C59   C     C_R   0.656475 0.991925 0.375250 0.141789
C60   C     C_R   0.156475 0.491922 0.375249 0.141768
C61   C     C_R   0.786590 0.226075 0.273086 -0.261498
C62   C     C_R   0.819401 0.779339 0.282608 -0.234875
C63   C     C_R   0.286611 0.726067 0.273102 -0.261589
C64   C     C_R   0.319431 0.279345 0.282625 -0.234954
C65   C     C_R   0.341694 0.834982 0.272956 -0.196184
C66   C     C_R   0.326648 0.158501 0.259266 -0.203447
C67   C     C_R   0.841686 0.334985 0.272950 -0.196229
C68   C     C_R   0.826640 0.658496 0.259259 -0.203524
C69   C     C_R   0.679742 0.208924 0.657177 0.131158
C70   C     C_R   0.644583 0.776922 0.623993 0.119428
C71   C     C_R   0.179734 0.708927 0.657170 0.131160
C72   C     C_R   0.144604 0.276928 0.624008 0.119282
C73   C     C_R   0.250994 0.754498 0.746132 0.181745
C74   C     C_R   0.176002 0.211011 0.679396 0.146821
C75   C     C_R   0.751005 0.254492 0.746144 0.181770
C76   C     C_R   0.675969 0.711003 0.679374 0.146857
C77   C     C_R   0.288585 0.763092 0.887279 -0.215568
C78   C     C_R   0.219417 0.196700 0.821802 -0.173760
C79   C     C_R   0.788591 0.263086 0.887289 -0.215586
C80   C     C_R   0.719388 0.696691 0.821783 -0.173794
C81   C     C_R   0.744564 0.238629 0.934402 0.071191
C82   C     C_R   0.724900 0.745593 0.910050 0.064618
C83   C     C_R   0.244564 0.738631 0.934400 0.071192
C84   C     C_R   0.224920 0.245599 0.910063 0.064631
C85   C     C_R   0.674071 0.190850 0.847728 -0.006268
C86   C     C_R   0.686915 0.810781 0.851599 -0.034107
C87   C     C_R   0.174072 0.690851 0.847729 -0.006269
C88   C     C_R   0.186929 0.310786 0.851611 -0.034117
Cu1   Cu    Cu3+1 0.526340 0.000000 0.421010 0.971849
Cu2   Cu    Cu3+1 0.026340 0.500000 0.421010 0.971847
Cu3   Cu    Cu3+1 0.473640 0.000000 0.578990 1.052935
Cu4   Cu    Cu3+1 0.973640 0.500000 0.578990 1.052902
H1    H     H_    0.730469 0.006647 0.150645 0.157107
H2    H     H_    0.230470 0.506647 0.150645 0.157103
H3    H     H_    0.760885 0.991724 0.362797 0.137937
H4    H     H_    0.260885 0.491719 0.362796 0.137929
H5    H     H_    0.437948 0.028967 0.114997 0.089383
H6    H     H_    0.937950 0.528974 0.114999 0.089386
H7    H     H_    0.296379 0.990028 0.508985 0.129121
H8    H     H_    0.796378 0.490032 0.508984 0.129100
H9    H     H_    0.341595 0.011210 0.891682 0.114350
H10   H     H_    0.841595 0.511215 0.891683 0.114352
H11   H     H_    0.239208 0.991998 0.637674 0.181292
H12   H     H_    0.739207 0.492006 0.637674 0.181291
H13   H     H_    0.646874 0.148361 0.085388 0.179117
H14   H     H_    0.749669 0.891076 0.144033 0.156364
H15   H     H_    0.146880 0.648362 0.085395 0.179118
H16   H     H_    0.249699 0.391084 0.144052 0.156354
H17   H     H_    0.772618 0.190862 0.323239 0.173500
H18   H     H_    0.827557 0.821999 0.345971 0.171347
H19   H     H_    0.272644 0.690849 0.323255 0.173454
H20   H     H_    0.327598 0.322007 0.345994 0.171310
H21   H     H_    0.353045 0.788186 0.959628 0.168533
H22   H     H_    0.247759 0.146645 0.861375 0.183343
H23   H     H_    0.853053 0.288178 0.959643 0.168534
H24   H     H_    0.747724 0.646635 0.861350 0.183359
H25   H     H_    0.703682 0.984144 0.489928 0.130913
H26   H     H_    0.203681 0.484139 0.489926 0.130907
N1    N     N_R   0.566260 0.000000 0.302220 -0.187354
N2    N     N_R   0.066260 0.500000 0.302220 -0.187346
N3    N     N_R   0.434410 0.000000 0.697680 -0.192222
N4    N     N_R   0.934410 0.500000 0.697680 -0.192214
O1    O     O_R   0.608610 0.924520 0.551740 -0.579389
O2    O     O_R   0.608610 0.075480 0.551740 -0.571318
O3    O     O_R   0.108610 0.424520 0.551740 -0.579380
O4    O     O_R   0.108610 0.575480 0.551740 -0.571318
O5    O     O_R   0.564110 0.924510 0.685150 -0.500126
O6    O     O_R   0.564110 0.075490 0.685150 -0.517267
O7    O     O_R   0.064110 0.424510 0.685150 -0.500132
O8    O     O_R   0.064110 0.575490 0.685150 -0.517266
O9    O     O_R   0.435880 0.075470 0.314850 -0.601918
O10   O     O_R   0.435880 0.924530 0.314850 -0.595985
O11   O     O_R   0.935880 0.575470 0.314850 -0.601894
O12   O     O_R   0.935880 0.424530 0.314850 -0.595974
O13   O     O_R   0.391380 0.075460 0.448260 -0.550202
O14   O     O_R   0.391380 0.924540 0.448260 -0.553655
O15   O     O_R   0.891380 0.575460 0.448260 -0.550267
O16   O     O_R   0.891380 0.424540 0.448260 -0.553652
O17   O     O_3   0.393482 0.788463 0.496605 -0.533688
C89   C     C_3   0.441486 0.727376 0.566966 -0.193726
H27   H     H_    0.397875 0.692446 0.568880 0.176418
H28   H     H_    0.502140 0.738485 0.679236 0.216875
H29   H     H_    0.467647 0.701984 0.518802 0.156877
O18   O     O_3   0.356331 0.206989 0.466133 -0.551224
C90   C     C_3   0.272895 0.203577 0.437662 -0.158598
H30   H     H_    0.287649 0.202664 0.540710 0.225430
H31   H     H_    0.235662 0.156441 0.378293 0.175970
H32   H     H_    0.228551 0.248764 0.377773 0.169715
O19   O     O_3   0.893440 0.288463 0.496580 -0.533638
C91   C     C_3   0.941571 0.227409 0.566928 -0.193699
H33   H     H_    0.898014 0.192354 0.568713 0.176265
H34   H     H_    0.002152 0.238521 0.679243 0.216875
H35   H     H_    0.967850 0.202162 0.518834 0.156935
O20   O     O_3   0.856313 0.706987 0.466122 -0.551216
C92   C     C_3   0.772876 0.703469 0.437627 -0.158594
H36   H     H_    0.787616 0.702632 0.540668 0.225420
H37   H     H_    0.735796 0.656256 0.378470 0.175948
H38   H     H_    0.728391 0.748573 0.377515 0.169730
O21   O     O_3   0.638059 0.999830 0.873631 -0.531667
C93   C     C_3   0.731619 0.016549 0.956332 -0.324013
H39   H     H_    0.777173 0.975380 0.031589 0.163257
H40   H     H_    0.749929 0.064977 0.014565 0.164827
H41   H     H_    0.745499 0.021953 0.882872 0.172862
O22   O     O_3   0.138059 0.499830 0.873631 -0.531664
C94   C     C_3   0.231618 0.516554 0.956331 -0.324010
H42   H     H_    0.277176 0.475387 0.031588 0.163255
H43   H     H_    0.249927 0.564981 0.014564 0.164824
H44   H     H_    0.245497 0.521960 0.882869 0.172856
O23   O     O_3   0.270123 0.876589 0.036333 -0.579280
C95   C     C_3   0.333689 0.901596 0.027339 -0.292315
H45   H     H_    0.402228 0.876313 0.097589 0.188635
H46   H     H_    0.343909 0.954313 0.058957 0.167635
H47   H     H_    0.303648 0.900271 0.914142 0.194588
O24   O     O_3   0.208920 0.121210 0.013537 -0.577031
C96   C     C_3   0.243516 0.056895 0.022619 -0.258887
H48   H     H_    0.258552 0.027396 0.112053 0.172785
H49   H     H_    0.303496 0.060872 0.030554 0.121246
H50   H     H_    0.190382 0.029079 0.922223 0.213656
O25   O     O_3   0.770129 0.376589 0.036330 -0.579287
C97   C     C_3   0.833702 0.401591 0.027346 -0.292303
H51   H     H_    0.902239 0.376306 0.097603 0.188643
H52   H     H_    0.843923 0.454309 0.058962 0.167638
H53   H     H_    0.803666 0.400265 0.914152 0.194582
O26   O     O_3   0.708913 0.621199 0.013535 -0.577050
C98   C     C_3   0.743515 0.556886 0.022626 -0.258896
H54   H     H_    0.758553 0.527388 0.112063 0.172783
H55   H     H_    0.803494 0.560865 0.030561 0.121255
H56   H     H_    0.690384 0.529066 0.922234 0.213660
I1    I     I_    0.612602 0.205004 0.433505 -0.302087
I2    I     I_    0.579295 0.793347 0.403629 -0.396787
I3    I     I_    0.112590 0.705005 0.433496 -0.302126
I4    I     I_    0.079299 0.293349 0.403634 -0.396899
I5    I     I_    0.305150 0.812212 0.674154 -0.292689
I6    I     I_    0.150069 0.127511 0.548907 -0.460292
I7    I     I_    0.805175 0.312200 0.674181 -0.292517
I8    I     I_    0.650017 0.627500 0.548877 -0.460328
I9    I     I_    0.489810 0.172069 0.779458 -0.283519
I10   I     I_    0.554833 0.841414 0.890575 -0.300848
I11   I     I_    0.989811 0.672073 0.779458 -0.283507
I12   I     I_    0.054860 0.341418 0.890617 -0.300836

loop_
_geom_bond_atom_site_label_1
_geom_bond_atom_site_label_2
_ccdc_geom_bond_type
C83   C87   A    
C74   I6    S    
C94   H42   S    
C73   I5    S    
C24   O26   S    
O23   C95   S    
C14   C18   A    
C53   C55   A    
Cu4   O8    S    
C58   H6    S    
C89   H29   S    
C61   H17   S    
Cu3   O13   S    
C41   O11   A    
C90   H30   S    
C2    O6    A    
C32   C72   A    
C10   C62   A    
C15   C19   A    
C40   O14   A    
C21   O23   S    
C18   C86   A    
Cu1   O10   S    
Cu3   O5    S    
C2    C29   S    
C9    C61   A    
O22   C94   S    
C25   O17   S    
C34   H4    S    
C5    C11   A    
C19   C87   A    
O21   C93   S    
C48   N4    A    
C28   C62   A    
Cu2   O12   S    
C77   H21   S    
C98   H55   S    
C42   O16   A    
C95   H45   S    
C77   C83   A    
C23   C67   A    
C4    O4    A    
C6    C22   A    
Cu1   N1    S    
C49   C57   A    
O26   C98   S    
C96   H49   S    
C48   C56   A    
C25   C63   A    
C15   H15   S    
C9    C13   A    
O24   C96   S    
C20   I12   S    
C38   H12   S    
C34   C52   A    
C27   C61   A    
C90   H31   S    
C11   C15   A    
C22   C66   A    
Cu3   O14   S    
C12   C16   A    
C44   C46   A    
C49   C51   A    
C91   H35   S    
C18   I10   S    
C50   C52   A    
C60   H26   S    
C30   C86   A    
C76   I8    S    
C27   O19   S    
C29   C85   A    
C43   H9    S    
C97   H53   S    
C4    O8    A    
C57   N1    A    
C21   C65   A    
C31   C71   A    
C40   O10   A    
Cu4   O16   S    
C94   H43   S    
C92   H38   S    
C34   C60   A    
C78   H22   S    
C35   H7    S    
Cu4   O15   S    
C33   H3    S    
C6    C12   A    
C30   C70   A    
C52   C54   A    
C96   H50   S    
C29   C69   A    
C45   C47   A    
C54   C56   A    
C31   C87   A    
Cu3   O6    S    
C53   H1    S    
C26   C66   A    
C93   H41   S    
C76   C80   A    
C35   N3    A    
C6    C84   A    
C89   H27   S    
C72   C74   A    
C22   O24   S    
C69   I1    S    
C79   C81   A    
Cu2   O11   S    
C44   H10   S    
C98   H56   S    
C39   O13   A    
Cu1   O1    S    
C17   C85   A    
C82   C86   A    
C24   C68   A    
C51   C53   A    
Cu2   N2    S    
C37   C43   A    
C36   N4    A    
C23   O25   S    
C1    O1    A    
C26   C64   A    
C38   C44   A    
Cu4   N4    S    
Cu2   Cu4   S    
C96   H48   S    
C62   H18   S    
C45   C49   A    
C16   C20   A    
C57   H5    S    
C58   N2    A    
C79   H23   S    
Cu2   O4    S    
C50   C58   A    
C25   C65   A    
C36   H8    S    
C27   C67   A    
C17   I9    S    
C92   H37   S    
C43   C45   A    
O20   C92   S    
C80   C82   A    
C13   H13   S    
C7    C81   A    
C94   H44   S    
C40   C65   S    
C10   C14   A    
C42   C67   S    
C28   O20   S    
C39   C66   S    
C8    C82   A    
C32   C88   A    
Cu1   Cu3   S    
C59   H25   S    
C90   H32   S    
C97   H51   S    
C70   I2    S    
C47   C55   A    
C7    C9    A    
C12   C64   A    
C56   O22   S    
C41   C68   S    
C59   N1    A    
C97   H52   S    
C35   C37   A    
C3    O7    A    
C41   O15   A    
C8    C10   A    
C80   H24   S    
C1    O5    A    
C89   H28   S    
O18   C90   S    
C28   C68   A    
C37   H11   S    
O17   C89   S    
C3    O3    A    
C5    C83   A    
Cu1   O2    S    
C2    O2    A    
C33   C51   A    
C46   C50   A    
C19   I11   S    
Cu1   O9    S    
C13   C17   A    
C42   O12   A    
C93   H39   S    
C36   C38   A    
Cu4   O7    S    
O19   C91   S    
C70   C76   A    
C26   O18   S    
C98   H54   S    
C84   C88   A    
C95   H46   S    
C7    C23   A    
C20   C88   A    
C55   O21   S    
C1    C30   S    
C8    C24   A    
Cu2   O3    S    
C69   C75   A    
C91   H34   S    
C63   H19   S    
C3    C32   S    
C39   O9    A    
C54   H2    S    
C4    C31   S    
C47   N3    A    
C16   H16   S    
C60   N2    A    
O25   C97   S    
C46   C48   A    
C78   C84   A    
C14   H14   S    
Cu3   N3    S    
C5    C21   A    
C33   C59   A    
C74   C78   A    
C71   C73   A    
C92   H36   S    
C73   C77   A    
C91   H33   S    
C71   I3    S    
C11   C63   A    
C75   C79   A    
C72   I4    S    
C81   C85   A    
C93   H40   S    
C64   H20   S    
C95   H47   S    
C75   I7    S    
