data_mof_unit_49217.cif
_audit_creation_date              2012-12-11T16:51:33-0500
_audit_creation_method            fapswitch 2.2
_symmetry_space_group_name_H-M    P1
_symmetry_Int_Tables_number       1
_space_group_crystal_system       triclinic
_cell_length_a                    24.417673
_cell_length_b                    17.241766
_cell_length_c                    15.554689
_cell_angle_alpha                 90.000021
_cell_angle_beta                  128.802445
_cell_angle_gamma                 90.000017
_cell_volume                      5103.38442741

loop_
_atom_site_label
_atom_site_type_symbol
_atom_type_description
_atom_site_fract_x
_atom_site_fract_y
_atom_site_fract_z
_atom_type_partial_charge
C1    C     C_R   0.834469 0.887571 0.203308 -0.118512
C2    C     C_R   0.165532 0.887572 0.796694 -0.118511
C3    C     C_R   0.334468 0.387572 0.203306 -0.118511
C4    C     C_R   0.665532 0.387572 0.796694 -0.118511
C5    C     C_R   0.904632 0.139009 0.590943 -0.124220
C6    C     C_R   0.095368 0.139009 0.409057 -0.124219
C7    C     C_R   0.404632 0.639009 0.590943 -0.124220
C8    C     C_R   0.595368 0.639009 0.409057 -0.124219
C9    C     C_R   0.851875 0.180538 0.498105 0.074401
C10   C     C_R   0.148125 0.180537 0.501895 0.074401
C11   C     C_R   0.351874 0.680537 0.498105 0.074401
C12   C     C_R   0.648126 0.680536 0.501895 0.074401
C13   C     C_R   0.869779 0.163822 0.175579 0.151780
C14   C     C_R   0.130221 0.163822 0.824422 0.151781
C15   C     C_R   0.369781 0.663825 0.175583 0.151781
C16   C     C_R   0.630221 0.663822 0.824421 0.151780
C17   C     C_R   0.774167 0.845010 0.606099 0.136746
C18   C     C_R   0.225835 0.845012 0.393903 0.136739
C19   C     C_R   0.274165 0.345011 0.606097 0.136744
C20   C     C_R   0.725835 0.345012 0.393903 0.136742
C21   C     C_R   0.760884 0.864702 0.506887 -0.000708
C22   C     C_R   0.239116 0.864702 0.493114 -0.000704
C23   C     C_R   0.260884 0.364702 0.506886 -0.000707
C24   C     C_R   0.739116 0.364702 0.493114 -0.000705
C25   C     C_R   0.693211 0.849516 0.407680 -0.185086
C26   C     C_R   0.306789 0.849516 0.592321 -0.185088
C27   C     C_R   0.193211 0.349516 0.407679 -0.185086
C28   C     C_R   0.806789 0.349516 0.592321 -0.185088
C29   C     C_R   0.150696 0.294775 0.406688 -0.199815
C30   C     C_R   0.849305 0.294775 0.593312 -0.199816
C31   C     C_R   0.650696 0.794775 0.406689 -0.199815
C32   C     C_R   0.349304 0.794775 0.593312 -0.199816
C33   C     C_R   0.176229 0.255918 0.504828 0.047961
C34   C     C_R   0.823771 0.255918 0.495173 0.047961
C35   C     C_R   0.676230 0.755917 0.504828 0.047961
C36   C     C_R   0.323771 0.755918 0.495173 0.047962
C37   C     C_R   0.233043 0.289190 0.604453 0.114045
C38   C     C_R   0.766958 0.289191 0.395548 0.114046
C39   C     C_R   0.733044 0.789188 0.604454 0.114043
C40   C     C_R   0.266958 0.789191 0.395548 0.114049
C41   C     C_3   0.793663 0.754573 0.711681 -0.576990
C42   C     C_3   0.206340 0.754577 0.288317 -0.576999
C43   C     C_3   0.293661 0.254576 0.711682 -0.576991
C44   C     C_3   0.706340 0.254577 0.288317 -0.576997
C45   C     C_R   0.113573 0.898649 0.406678 -0.155669
C46   C     C_R   0.886427 0.898650 0.593322 -0.155677
C47   C     C_R   0.613573 0.398649 0.406678 -0.155670
C48   C     C_R   0.386427 0.398650 0.593322 -0.155675
C49   C     C_3   0.838800 0.817192 0.716318 0.084275
C50   C     C_3   0.161202 0.817196 0.283681 0.084273
C51   C     C_3   0.338799 0.317195 0.716318 0.084271
C52   C     C_3   0.661202 0.317195 0.283681 0.084276
C53   C     C_2   0.189600 0.837047 0.970124 -0.217416
C54   C     C_2   0.810400 0.837044 0.029878 -0.217419
C55   C     C_2   0.689601 0.337046 0.970124 -0.217413
C56   C     C_2   0.310398 0.337047 0.029875 -0.217419
C57   C     C_2   0.259185 0.837600 0.028011 -0.116111
C58   C     C_2   0.740815 0.837598 0.971992 -0.116113
C59   C     C_2   0.759185 0.337599 0.028010 -0.116112
C60   C     C_2   0.240814 0.337599 0.971991 -0.116113
C61   C     C_2   0.841854 0.233265 0.108041 -0.217326
C62   C     C_2   0.158146 0.233265 0.891960 -0.217326
C63   C     C_2   0.341858 0.733270 0.108048 -0.217322
C64   C     C_2   0.658146 0.733265 0.891959 -0.217324
C65   C     C_2   0.800246 0.279998 0.112994 -0.108315
C66   C     C_2   0.199754 0.279997 0.887007 -0.108313
C67   C     C_2   0.300244 0.779998 0.112995 -0.108304
C68   C     C_2   0.699755 0.779997 0.887007 -0.108313
C69   C     C_R   0.187873 0.897113 0.589685 -0.112272
C70   C     C_R   0.812127 0.897113 0.410315 -0.112270
C71   C     C_R   0.687873 0.397112 0.589685 -0.112272
C72   C     C_R   0.312127 0.397113 0.410315 -0.112270
C73   C     C_R   0.074448 0.888683 0.798710 -0.150326
C74   C     C_R   0.925552 0.888682 0.201291 -0.150326
C75   C     C_R   0.574449 0.388683 0.798710 -0.150326
C76   C     C_R   0.425551 0.388683 0.201290 -0.150326
C77   C     C_R   0.855800 0.867158 0.142089 0.150198
C78   C     C_R   0.144201 0.867160 0.857913 0.150194
C79   C     C_R   0.355799 0.367160 0.142087 0.150197
C80   C     C_R   0.644201 0.367159 0.857912 0.150193
C81   C     C_R   0.182126 0.883157 0.496447 0.067567
C82   C     C_R   0.817874 0.883158 0.503553 0.067565
C83   C     C_R   0.682126 0.383157 0.496447 0.067566
C84   C     C_R   0.317874 0.383157 0.503552 0.067566
C85   C     C_R   0.831775 0.138198 0.407397 -0.138523
C86   C     C_R   0.168225 0.138198 0.592603 -0.138523
C87   C     C_R   0.331775 0.638198 0.407397 -0.138522
C88   C     C_R   0.668225 0.638197 0.592603 -0.138523
C89   C     C_R   0.932476 0.127646 0.218616 -0.144460
C90   C     C_R   0.067524 0.127645 0.781384 -0.144460
C91   C     C_R   0.432477 0.627647 0.218619 -0.144461
C92   C     C_R   0.567524 0.627646 0.781383 -0.144460
C93   C     C_R   0.158967 0.126878 0.782534 -0.134148
C94   C     C_R   0.841033 0.126879 0.217466 -0.134148
C95   C     C_R   0.658967 0.626879 0.782533 -0.134148
C96   C     C_R   0.341034 0.626880 0.217468 -0.134146
H1    H     H_    0.782126 0.886241 0.178629 0.082640
H2    H     H_    0.217875 0.886244 0.821374 0.082640
H3    H     H_    0.282125 0.386244 0.178627 0.082639
H4    H     H_    0.717875 0.386243 0.821373 0.082640
H5    H     H_    0.102843 0.276776 0.327880 0.123929
H6    H     H_    0.897157 0.276775 0.672120 0.123929
H7    H     H_    0.602843 0.776776 0.327881 0.123929
H8    H     H_    0.397157 0.776775 0.672120 0.123929
H9    H     H_    0.787429 0.759050 0.776459 0.198003
H10   H     H_    0.212576 0.759057 0.223542 0.198008
H11   H     H_    0.287426 0.259055 0.776458 0.198004
H12   H     H_    0.712576 0.259058 0.223542 0.198008
H13   H     H_    0.808097 0.695886 0.701962 0.176568
H14   H     H_    0.191905 0.695890 0.298033 0.176568
H15   H     H_    0.308096 0.195889 0.701965 0.176567
H16   H     H_    0.691905 0.195890 0.298032 0.176567
H17   H     H_    0.880363 0.792489 0.715110 0.133493
H18   H     H_    0.119637 0.792491 0.284883 0.133494
H19   H     H_    0.380362 0.292491 0.715113 0.133492
H20   H     H_    0.619638 0.292490 0.284884 0.133493
H21   H     H_    0.787968 0.267928 0.167812 0.128154
H22   H     H_    0.212032 0.267927 0.832190 0.128153
H23   H     H_    0.287961 0.767924 0.167805 0.128147
H24   H     H_    0.712033 0.767927 0.832190 0.128153
H25   H     H_    0.283945 0.867828 0.999263 0.127455
H26   H     H_    0.716055 0.867825 0.000740 0.127456
H27   H     H_    0.783946 0.367827 0.999262 0.127456
H28   H     H_    0.216054 0.367825 0.000741 0.127457
H29   H     H_    0.853990 0.245425 0.053013 0.129518
H30   H     H_    0.146010 0.245425 0.946987 0.129517
H31   H     H_    0.353999 0.745435 0.053028 0.129513
H32   H     H_    0.646009 0.745426 0.946986 0.129517
H33   H     H_    0.165680 0.805970 0.999962 0.135305
H34   H     H_    0.834319 0.805968 0.000039 0.135308
H35   H     H_    0.665681 0.305968 0.999962 0.135306
H36   H     H_    0.334318 0.305972 0.000035 0.135308
H37   H     H_    0.092653 0.907230 0.322702 0.105847
H38   H     H_    0.907347 0.907231 0.677299 0.105853
H39   H     H_    0.592653 0.407230 0.322702 0.105848
H40   H     H_    0.407347 0.407230 0.677298 0.105851
H41   H     H_    0.235643 0.901100 0.673923 0.081690
H42   H     H_    0.764357 0.901101 0.326077 0.081689
H43   H     H_    0.735643 0.401100 0.673923 0.081690
H44   H     H_    0.264357 0.401101 0.326077 0.081689
H45   H     H_    0.044509 0.889222 0.828390 0.099965
H46   H     H_    0.955491 0.889220 0.171611 0.099965
H47   H     H_    0.544510 0.389221 0.828390 0.099965
H48   H     H_    0.455490 0.389222 0.171609 0.099965
H49   H     H_    0.790341 0.150788 0.322816 0.102030
H50   H     H_    0.209659 0.150788 0.677184 0.102030
H51   H     H_    0.290340 0.650787 0.322816 0.102030
H52   H     H_    0.709660 0.650787 0.677185 0.102030
H53   H     H_    0.963568 0.136080 0.192105 0.087354
H54   H     H_    0.036432 0.136080 0.807895 0.087355
H55   H     H_    0.463569 0.636083 0.192108 0.087354
H56   H     H_    0.536432 0.636080 0.807895 0.087355
H57   H     H_    0.212336 0.132382 0.812653 0.085056
H58   H     H_    0.787664 0.132383 0.187347 0.085056
H59   H     H_    0.712336 0.632383 0.812653 0.085056
H60   H     H_    0.287665 0.632384 0.187348 0.085054
H61   H     H_    0.928433 0.152598 0.675067 0.086447
H62   H     H_    0.071568 0.152598 0.324933 0.086447
H63   H     H_    0.428432 0.652598 0.675067 0.086447
H64   H     H_    0.571569 0.652597 0.324933 0.086446
H65   H     H_    0.676880 0.870344 0.329207 0.121954
H66   H     H_    0.323120 0.870342 0.670794 0.121954
H67   H     H_    0.176880 0.370343 0.329206 0.121954
H68   H     H_    0.823120 0.370342 0.670794 0.121954
N1    N     N_R   0.888400 0.921830 0.294620 -0.045743
N2    N     N_R   0.111600 0.921830 0.705380 -0.045743
N3    N     N_R   0.388400 0.421830 0.294620 -0.045743
N4    N     N_R   0.611600 0.421830 0.705380 -0.045743
N5    N     N_R   0.079940 0.922160 0.443410 -0.038432
N6    N     N_R   0.920060 0.922160 0.556590 -0.038431
N7    N     N_R   0.579940 0.422160 0.443410 -0.038432
N8    N     N_R   0.420060 0.422160 0.556590 -0.038432
N9    N     N_R   0.125650 0.922400 0.556620 -0.041064
N10   N     N_R   0.874350 0.922400 0.443380 -0.041064
N11   N     N_R   0.625650 0.422400 0.556620 -0.041064
N12   N     N_R   0.374350 0.422400 0.443380 -0.041064
N13   N     N_R   0.054230 0.922730 0.705400 -0.041928
N14   N     N_R   0.945770 0.922730 0.294600 -0.041929
N15   N     N_R   0.554230 0.422730 0.705400 -0.041928
N16   N     N_R   0.445770 0.422730 0.294600 -0.041929
N17   N     N_R   0.873790 0.077030 0.443380 -0.040283
N18   N     N_R   0.126210 0.077030 0.556620 -0.040283
N19   N     N_R   0.373790 0.577030 0.443380 -0.040283
N20   N     N_R   0.626210 0.577030 0.556620 -0.040283
N21   N     N_R   0.945200 0.076700 0.294600 -0.039075
N22   N     N_R   0.054800 0.076700 0.705400 -0.039075
N23   N     N_R   0.445200 0.576700 0.294600 -0.039075
N24   N     N_R   0.554800 0.576700 0.705400 -0.039075
N25   N     N_R   0.111030 0.077600 0.705380 -0.041953
N26   N     N_R   0.888970 0.077600 0.294620 -0.041953
N27   N     N_R   0.611030 0.577600 0.705380 -0.041953
N28   N     N_R   0.388970 0.577600 0.294620 -0.041953
N29   N     N_R   0.919490 0.077280 0.556590 -0.038884
N30   N     N_R   0.080510 0.077280 0.443410 -0.038884
N31   N     N_R   0.419490 0.577280 0.556590 -0.038884
N32   N     N_R   0.580510 0.577280 0.443410 -0.038884
Ni1   Ni    Ni4+2 0.882160 0.999430 0.370180 0.207290
Ni2   Ni    Ni4+2 0.117840 0.999430 0.629820 0.207290
Ni3   Ni    Ni4+2 0.382160 0.499430 0.370180 0.207290
Ni4   Ni    Ni4+2 0.617840 0.499430 0.629820 0.207290
Ni5   Ni    Ni4+2 0.012460 0.999430 0.370180 0.211348
Ni6   Ni    Ni4+2 0.987540 0.999430 0.629820 0.211348
Ni7   Ni    Ni4+2 0.512460 0.499430 0.370180 0.211348
Ni8   Ni    Ni4+2 0.487540 0.499430 0.629820 0.211348
C97   C     C_3   0.865777 0.875795 0.809482 -0.973013
H69   H     H_    0.906911 0.848081 0.890193 0.250382
H70   H     H_    0.888947 0.927196 0.800257 0.236505
H71   H     H_    0.822606 0.896109 0.809627 0.262367
C98   C     C_3   0.134228 0.875799 0.190518 -0.972999
H72   H     H_    0.093117 0.848075 0.109803 0.250382
H73   H     H_    0.111027 0.927184 0.199713 0.236497
H74   H     H_    0.177406 0.896139 0.190409 0.262367
C99   C     C_3   0.365774 0.375799 0.809481 -0.972992
H75   H     H_    0.406905 0.348083 0.890194 0.250378
H76   H     H_    0.388950 0.427197 0.800260 0.236500
H77   H     H_    0.322602 0.396118 0.809618 0.262364
C100  C     C_3   0.634227 0.375799 0.190518 -0.973012
H78   H     H_    0.593113 0.348076 0.109804 0.250384
H79   H     H_    0.611030 0.427185 0.199716 0.236500
H80   H     H_    0.677403 0.396137 0.190403 0.262368

loop_
_geom_bond_atom_site_label_1
_geom_bond_atom_site_label_2
_ccdc_geom_bond_type
N25   Ni2   S    
C25   C31   A    
C49   H17   S    
C26   C32   A    
C75   H47   S    
C55   C59   D    
C27   C29   A    
C1    C77   A    
C35   C39   A    
N18   Ni2   S    
C76   C79   A    
C90   H54   S    
N16   Ni7   S    
C3    C79   A    
C94   N26   A    
C47   H39   S    
C3    N3    A    
N21   N26   A    
C39   C41   S    
C73   H45   S    
C97   H69   S    
C100  H80   S    
C7    C11   A    
C18   C50   S    
C52   C100  S    
C56   C79   S    
C87   H51   S    
N24   N27   A    
C63   H31   S    
C32   C36   A    
C11   C36   S    
C56   C60   D    
C24   C83   S    
C85   H49   S    
C4    C80   A    
C52   H20   S    
C64   C68   D    
C87   N19   A    
C88   N20   A    
C7    H63   S    
C14   C62   S    
C3    H3    S    
N23   Ni7   S    
C98   H74   S    
N22   Ni6   S    
N8    Ni8   S    
C17   C39   A    
N28   Ni3   S    
N21   Ni5   S    
C60   H28   S    
C18   C40   A    
C14   C90   A    
C91   N23   A    
C19   C37   A    
C9    C85   A    
C48   N8    A    
C17   C49   S    
C20   C24   A    
C29   C33   A    
C11   C87   A    
C64   H32   S    
C74   C77   A    
C92   H56   S    
N19   N31   A    
C73   C78   A    
C32   H8    S    
N18   N30   A    
C55   H35   S    
C47   C83   A    
N17   N29   A    
C75   C80   A    
C2    N2    A    
C14   C93   A    
C95   H59   S    
C95   N27   A    
C54   C77   S    
C27   H67   S    
C44   C52   S    
C40   C42   S    
N3    N16   A    
C74   H46   S    
C60   C66   S    
C46   C82   A    
C69   H41   S    
N1    N14   A    
C43   H15   S    
C57   C67   S    
C65   H21   S    
C86   H50   S    
C41   C49   S    
C6    H62   S    
C71   C83   A    
C44   H12   S    
C59   H27   S    
C54   H34   S    
C63   C67   D    
C89   H53   S    
C58   H26   S    
C23   C84   S    
C30   C34   A    
C22   C81   S    
C36   C40   A    
N27   Ni4   S    
C50   C98   S    
C1    H1    S    
C15   C96   A    
C62   H30   S    
C62   C66   D    
C34   C38   A    
C71   H43   S    
N31   Ni8   S    
C90   N22   A    
N5    Ni5   S    
N20   Ni4   S    
C100  H78   S    
N20   N32   A    
N30   Ni5   S    
N7    N11   A    
N24   Ni8   S    
C25   H65   S    
N19   Ni3   S    
N29   Ni6   S    
C48   C84   A    
C72   C84   A    
C45   N5    A    
C50   H18   S    
C31   H7    S    
C37   C43   S    
C19   C23   A    
N2    Ni2   S    
C38   C44   S    
C2    C78   A    
N1    Ni1   S    
C46   H38   S    
C20   C38   A    
C69   N9    A    
C74   N14   A    
C1    N1    A    
C8    C12   A    
C12   C88   A    
C30   H6    S    
C54   C58   D    
C98   H72   S    
C88   H52   S    
C29   H5    S    
N2    N13   A    
C43   H11   S    
N15   Ni8   S    
C12   C35   S    
C70   N10   A    
N23   N28   A    
C56   H36   S    
C46   N6    A    
C41   H9    S    
C42   C50   S    
C76   H48   S    
C58   C68   S    
C49   C97   S    
C70   H42   S    
C23   C27   A    
C4    H4    S    
C66   H22   S    
C9    C34   S    
C31   C35   A    
C53   H33   S    
N12   Ni3   S    
C7    N31   A    
C8    H64   S    
C44   H16   S    
C6    N30   A    
C75   N15   A    
C28   H68   S    
C33   C37   A    
C5    N29   A    
N6    N10   A    
C99   H77   S    
C21   C25   A    
C61   H29   S    
C10   C86   A    
N10   Ni1   S    
N5    N9    A    
N4    Ni4   S    
C13   C89   A    
N9    Ni2   S    
C18   C22   A    
C89   N21   A    
C48   H40   S    
N3    Ni3   S    
C24   C28   A    
C5    C9    A    
C76   N16   A    
C57   H25   S    
C53   C57   D    
C6    C10   A    
C47   N7    A    
C92   N24   A    
C16   C92   A    
C85   N17   A    
C93   N25   A    
C45   H37   S    
C100  H79   S    
N4    N15   A    
C5    H61   S    
C13   C94   A    
N32   Ni7   S    
C96   N28   A    
N22   N25   A    
C93   H57   S    
C53   C78   S    
C42   H14   S    
C99   H76   S    
C73   N13   A    
C20   C52   S    
C59   C65   S    
C91   H55   S    
C55   C80   S    
C16   C95   A    
C51   C99   S    
C96   H60   S    
C94   H58   S    
C43   C51   S    
C19   C51   S    
C99   H75   S    
C71   N11   A    
C28   C30   A    
C98   H73   S    
C26   H66   S    
N17   Ni1   S    
C8    N32   A    
C10   C33   S    
C45   C81   A    
C72   N12   A    
C61   C65   D    
N7    Ni7   S    
C70   C82   A    
C51   H19   S    
N11   Ni4   S    
N6    Ni6   S    
C69   C81   A    
C15   C91   A    
C42   H10   S    
C4    N4    A    
C72   H44   S    
C13   C61   S    
C21   C82   S    
C2    H2    S    
C22   C26   A    
N14   Ni5   S    
C86   N18   A    
C15   C63   S    
N13   Ni6   S    
C41   H13   S    
C97   H71   S    
C16   C64   S    
C97   H70   S    
C67   H23   S    
C68   H24   S    
N8    N12   A    
N26   Ni1   S    
C17   C21   A    
