data_mof_unit_21799.cif
_audit_creation_date              2012-12-11T14:44:19-0500
_audit_creation_method            fapswitch 2.2
_symmetry_space_group_name_H-M    P1
_symmetry_Int_Tables_number       1
_space_group_crystal_system       triclinic
_cell_length_a                    25.015653
_cell_length_b                    16.743612
_cell_length_c                    15.617416
_cell_angle_alpha                 89.999934
_cell_angle_beta                  49.816001
_cell_angle_gamma                 89.999938
_cell_volume                      4997.46815496

loop_
_atom_site_label
_atom_site_type_symbol
_atom_type_description
_atom_site_fract_x
_atom_site_fract_y
_atom_site_fract_z
_atom_type_partial_charge
C1    C     C_R   0.332956 0.109786 0.802939 -0.119832
C2    C     C_3   0.752089 0.793891 0.607496 -0.102415
C3    C     C_3   0.702485 0.295758 0.602525 -0.096925
C4    C     C_3   0.247917 0.793884 0.392502 -0.102416
C5    C     C_3   0.797504 0.795736 0.397481 -0.096919
C6    C     C_3   0.252082 0.293882 0.607500 -0.102415
C7    C     C_3   0.202493 0.795744 0.602521 -0.096922
C8    C     C_3   0.747926 0.293872 0.392496 -0.102415
C9    C     C_2   0.699403 0.142806 0.010299 -0.178386
C10   C     C_2   0.364041 0.731506 0.840479 -0.204096
C11   C     C_2   0.300597 0.142805 0.989702 -0.178385
C12   C     C_R   0.645979 0.851342 0.247770 -0.111768
C13   C     C_2   0.635959 0.731507 0.159521 -0.204097
C14   C     C_2   0.199403 0.642806 0.010299 -0.178386
C15   C     C_2   0.864042 0.231506 0.840478 -0.204096
C16   C     C_2   0.800597 0.642806 0.989701 -0.178386
C17   C     C_2   0.135959 0.231507 0.159521 -0.204097
C18   C     C_2   0.768643 0.138808 0.951117 -0.111442
C19   C     C_2   0.314080 0.689369 0.852561 -0.109673
C20   C     C_2   0.231357 0.138809 0.048882 -0.111440
C21   C     C_2   0.685920 0.689369 0.147438 -0.109674
C22   C     C_2   0.268642 0.638809 0.951118 -0.111441
C23   C     C_R   0.667044 0.109786 0.197061 -0.119830
C24   C     C_2   0.814080 0.189369 0.852561 -0.109672
C25   C     C_2   0.731357 0.638809 0.048882 -0.111440
C26   C     C_2   0.185920 0.189369 0.147438 -0.109674
C27   C     C_R   0.591144 0.147048 0.591830 0.470617
C28   C     C_R   0.384359 0.895367 0.408054 0.425329
C29   C     C_R   0.408858 0.147049 0.408170 0.470616
C30   C     C_R   0.615640 0.895366 0.591946 0.425327
C31   C     C_R   0.091142 0.647049 0.591830 0.470617
C32   C     C_R   0.884359 0.395368 0.408054 0.425333
C33   C     C_R   0.908859 0.647049 0.408169 0.470615
C34   C     C_R   0.354021 0.851342 0.752230 -0.111768
C35   C     C_R   0.115641 0.395367 0.591946 0.425331
C36   C     C_R   0.664734 0.146348 0.405072 -0.207913
C37   C     C_R   0.310484 0.893569 0.593908 -0.236785
C38   C     C_R   0.335268 0.146350 0.594927 -0.207915
C39   C     C_R   0.689516 0.893567 0.406091 -0.236786
C40   C     C_R   0.164732 0.646350 0.405073 -0.207915
C41   C     C_R   0.810483 0.393571 0.593909 -0.236783
C42   C     C_R   0.835269 0.646351 0.594927 -0.207915
C43   C     C_R   0.189516 0.393569 0.406091 -0.236785
C44   C     C_R   0.580970 0.102577 0.192017 -0.032646
C45   C     C_R   0.832956 0.609787 0.802939 -0.119832
C46   C     C_R   0.442576 0.854337 0.754015 -0.114216
C47   C     C_R   0.419030 0.102577 0.807983 -0.032640
C48   C     C_R   0.557423 0.854337 0.245985 -0.114215
C49   C     C_R   0.080970 0.602578 0.192017 -0.032651
C50   C     C_R   0.942577 0.354337 0.754015 -0.114214
C51   C     C_R   0.919030 0.602578 0.807982 -0.032648
C52   C     C_R   0.057423 0.354337 0.245985 -0.114214
C53   C     C_R   0.349583 0.123167 0.870098 0.088781
C54   C     C_R   0.612930 0.808291 0.218050 0.114559
C55   C     C_R   0.650417 0.123167 0.129902 0.088782
C56   C     C_R   0.145979 0.351342 0.247770 -0.111767
C57   C     C_R   0.387071 0.808290 0.781950 0.114559
C58   C     C_R   0.849583 0.623167 0.870098 0.088783
C59   C     C_R   0.112929 0.308290 0.218050 0.114558
C60   C     C_R   0.150417 0.623167 0.129902 0.088783
C61   C     C_R   0.887071 0.308290 0.781950 0.114558
C62   C     C_R   0.641777 0.190602 0.497369 -0.093374
C63   C     C_R   0.317465 0.877694 0.501219 -0.050412
C64   C     C_R   0.358226 0.190605 0.502630 -0.093376
C65   C     C_R   0.682535 0.877692 0.498781 -0.050413
C66   C     C_R   0.141774 0.690604 0.497370 -0.093377
C67   C     C_R   0.167044 0.609786 0.197061 -0.119831
C68   C     C_R   0.817464 0.377698 0.501219 -0.050412
C69   C     C_R   0.858229 0.690606 0.502629 -0.093378
C70   C     C_R   0.182535 0.377694 0.498781 -0.050414
C71   C     C_3   0.339968 0.325150 0.431696 -0.142558
C72   C     C_3   0.710070 0.764478 0.572887 -0.162918
C73   C     C_3   0.660034 0.325155 0.568290 -0.142571
C74   C     C_3   0.289930 0.764475 0.427122 -0.162927
C75   C     C_3   0.839970 0.825144 0.431683 -0.142546
C76   C     C_3   0.210070 0.264473 0.572876 -0.162928
C77   C     C_3   0.160032 0.825148 0.568307 -0.142556
C78   C     C_R   0.854022 0.351342 0.752229 -0.111768
C79   C     C_3   0.789929 0.264470 0.427137 -0.162939
C80   C     C_3   0.774648 0.869728 0.534267 -0.126029
C81   C     C_3   0.274119 0.221037 0.470991 -0.116941
C82   C     C_3   0.225358 0.869725 0.465721 -0.126022
C83   C     C_3   0.725875 0.221042 0.529025 -0.116930
C84   C     C_3   0.274641 0.369725 0.534282 -0.126018
C85   C     C_3   0.774113 0.721034 0.471005 -0.116950
C86   C     C_3   0.725367 0.369722 0.465701 -0.126007
C87   C     C_3   0.225883 0.721037 0.529006 -0.116944
C88   C     C_3   0.733496 0.838932 0.499461 0.170878
C89   C     C_3   0.297509 0.295746 0.397477 -0.096920
C90   C     C_3   0.316059 0.250655 0.505050 0.179733
C91   C     C_3   0.266503 0.838934 0.500539 0.170877
C92   C     C_3   0.683944 0.250654 0.494949 0.179733
C93   C     C_3   0.233497 0.338935 0.499461 0.170877
C94   C     C_3   0.816060 0.750656 0.505049 0.179732
C95   C     C_3   0.766503 0.338937 0.500539 0.170876
C96   C     C_3   0.183942 0.750655 0.494950 0.179733
Cl1   Cl    Cl    0.563437 0.162790 0.726392 -0.685457
Cl2   Cl    Cl    0.411968 0.914909 0.274257 -0.659339
Cl3   Cl    Cl    0.436561 0.162789 0.273609 -0.685456
Cl4   Cl    Cl    0.588032 0.914909 0.725743 -0.659340
Cl5   Cl    Cl    0.063439 0.662788 0.726391 -0.685455
Cl6   Cl    Cl    0.911968 0.414909 0.274256 -0.659336
Cl7   Cl    Cl    0.936560 0.662787 0.273610 -0.685455
Cl8   Cl    Cl    0.088032 0.414909 0.725743 -0.659337
H1    H     H_    0.281157 0.107650 0.829022 0.090705
H2    H     H_    0.262726 0.894201 0.680403 0.126520
H3    H     H_    0.292625 0.160212 0.681804 0.128742
H4    H     H_    0.737274 0.894200 0.319597 0.126521
H5    H     H_    0.207375 0.660212 0.318196 0.128742
H6    H     H_    0.762725 0.394203 0.680403 0.126519
H7    H     H_    0.792627 0.660213 0.681803 0.128743
H8    H     H_    0.237274 0.394201 0.319597 0.126520
H9    H     H_    0.556948 0.090515 0.155718 0.188498
H10   H     H_    0.479021 0.837429 0.765723 0.158032
H11   H     H_    0.443052 0.090514 0.844283 0.188496
H12   H     H_    0.691845 0.835066 0.236689 0.099616
H13   H     H_    0.520979 0.837429 0.234276 0.158033
H14   H     H_    0.056947 0.590515 0.155718 0.188498
H15   H     H_    0.979021 0.337429 0.765723 0.158033
H16   H     H_    0.943052 0.590515 0.844282 0.188498
H17   H     H_    0.020979 0.337429 0.234277 0.158034
H18   H     H_    0.773238 0.932113 0.559698 0.144656
H19   H     H_    0.274004 0.159015 0.445818 0.155115
H20   H     H_    0.226771 0.932108 0.440281 0.144662
H21   H     H_    0.725985 0.159023 0.554211 0.155123
H22   H     H_    0.273226 0.432108 0.559726 0.144663
H23   H     H_    0.718843 0.107650 0.170978 0.090705
H24   H     H_    0.773993 0.659009 0.445844 0.155108
H25   H     H_    0.726787 0.432102 0.440243 0.144670
H26   H     H_    0.226000 0.659014 0.554175 0.155113
H27   H     H_    0.394337 0.348445 0.374562 0.146137
H28   H     H_    0.656052 0.740055 0.630296 0.141228
H29   H     H_    0.605667 0.348454 0.625412 0.146132
H30   H     H_    0.343946 0.740051 0.369721 0.141223
H31   H     H_    0.894340 0.848436 0.374540 0.146142
H32   H     H_    0.156054 0.240048 0.630274 0.141221
H33   H     H_    0.105663 0.848442 0.625442 0.146139
H34   H     H_    0.308155 0.835066 0.763311 0.099617
H35   H     H_    0.843944 0.240040 0.369750 0.141214
H36   H     H_    0.315611 0.296723 0.311244 0.139355
H37   H     H_    0.734664 0.792187 0.693277 0.132506
H38   H     H_    0.684377 0.296743 0.688762 0.139355
H39   H     H_    0.265345 0.792175 0.306719 0.132507
H40   H     H_    0.815601 0.796705 0.311250 0.139357
H41   H     H_    0.234652 0.292171 0.693284 0.132506
H42   H     H_    0.184392 0.796718 0.688753 0.139356
H43   H     H_    0.765361 0.292153 0.306709 0.132505
H44   H     H_    0.296933 0.705008 0.806157 0.133607
H45   H     H_    0.781156 0.607650 0.829022 0.090705
H46   H     H_    0.790323 0.112179 0.986215 0.129322
H47   H     H_    0.703067 0.705008 0.193842 0.133608
H48   H     H_    0.209677 0.112180 0.013784 0.129321
H49   H     H_    0.796933 0.205008 0.806157 0.133607
H50   H     H_    0.290323 0.612179 0.986215 0.129322
H51   H     H_    0.203067 0.205008 0.193842 0.133608
H52   H     H_    0.709677 0.612180 0.013784 0.129321
H53   H     H_    0.380592 0.715778 0.887820 0.140703
H54   H     H_    0.678357 0.169817 0.974210 0.151853
H55   H     H_    0.619409 0.715778 0.112180 0.140704
H56   H     H_    0.191845 0.335066 0.236689 0.099617
H57   H     H_    0.321643 0.169815 0.025791 0.151853
H58   H     H_    0.880592 0.215777 0.887819 0.140703
H59   H     H_    0.178357 0.669818 0.974210 0.151852
H60   H     H_    0.119408 0.215778 0.112180 0.140704
H61   H     H_    0.821643 0.669816 0.025790 0.151852
H62   H     H_    0.218843 0.607650 0.170978 0.090705
H63   H     H_    0.808155 0.335066 0.763311 0.099618
H64   H     H_    0.707376 0.160210 0.318195 0.128739
N1    N     N_R   0.389620 0.081040 0.705440 -0.052807
N2    N     N_R   0.417680 0.920160 0.443370 -0.083918
N3    N     N_R   0.417680 0.079840 0.443370 -0.073534
N4    N     N_R   0.582320 0.920160 0.556630 -0.083918
N5    N     N_R   0.082320 0.579840 0.556630 -0.073534
N6    N     N_R   0.917680 0.420160 0.443370 -0.083919
N7    N     N_R   0.917680 0.579840 0.443370 -0.073533
N8    N     N_R   0.082320 0.420160 0.556630 -0.083918
N9    N     N_R   0.627920 0.078930 0.443400 -0.060158
N10   N     N_R   0.372080 0.921070 0.556600 -0.059603
N11   N     N_R   0.372080 0.078930 0.556600 -0.060158
N12   N     N_R   0.610380 0.918960 0.294560 -0.050479
N13   N     N_R   0.627920 0.921070 0.443400 -0.059602
N14   N     N_R   0.127920 0.578930 0.443400 -0.060158
N15   N     N_R   0.872080 0.421070 0.556600 -0.059604
N16   N     N_R   0.872080 0.578930 0.556600 -0.060158
N17   N     N_R   0.127920 0.421070 0.443400 -0.059603
N18   N     N_R   0.555090 0.077730 0.294590 -0.058205
N19   N     N_R   0.444910 0.922270 0.705410 -0.043888
N20   N     N_R   0.444910 0.077730 0.705410 -0.058204
N21   N     N_R   0.555090 0.922270 0.294590 -0.043887
N22   N     N_R   0.055090 0.577730 0.294590 -0.058205
N23   N     N_R   0.610380 0.081040 0.294560 -0.052807
N24   N     N_R   0.944910 0.422270 0.705410 -0.043887
N25   N     N_R   0.944910 0.577730 0.705410 -0.058205
N26   N     N_R   0.055090 0.422270 0.294590 -0.043887
N27   N     N_R   0.389620 0.918960 0.705440 -0.050479
N28   N     N_R   0.889620 0.581040 0.705440 -0.052807
N29   N     N_R   0.110380 0.418960 0.294560 -0.050479
N30   N     N_R   0.110380 0.581040 0.294560 -0.052807
N31   N     N_R   0.889620 0.418960 0.705440 -0.050479
N32   N     N_R   0.582320 0.079840 0.556630 -0.073535
Ni1   Ni    Ni4+2 0.382970 0.000000 0.629840 0.198348
Ni2   Ni    Ni4+2 0.617030 0.000000 0.370160 0.198348
Ni3   Ni    Ni4+2 0.882970 0.500000 0.629840 0.198347
Ni4   Ni    Ni4+2 0.117030 0.500000 0.370160 0.198348
Ni5   Ni    Ni4+2 0.514540 0.000000 0.629840 0.290871
Ni6   Ni    Ni4+2 0.485460 0.000000 0.370160 0.290871
Ni7   Ni    Ni4+2 0.014540 0.500000 0.629840 0.290871
Ni8   Ni    Ni4+2 0.985460 0.500000 0.370160 0.290871

loop_
_geom_bond_atom_site_label_1
_geom_bond_atom_site_label_2
_ccdc_geom_bond_type
C34   N27   A    
C31   C66   A    
C79   H35   S    
N32   Ni5   S    
N25   Ni7   S    
C15   H58   S    
N13   Ni2   S    
C64   C90   S    
C67   N30   A    
C8    C86   S    
C4    H39   S    
C23   N23   A    
C72   C85   S    
C76   H32   S    
N8    N17   A    
C80   H18   S    
C32   C68   A    
C47   H11   S    
C83   C92   S    
N22   N30   A    
C78   H63   S    
C49   C60   A    
N2    N10   A    
N14   Ni4   S    
C35   N8    A    
C31   Cl5   S    
N8    Ni7   S    
C51   N25   A    
N4    Ni5   S    
C52   C59   A    
C77   H33   S    
N2    Ni6   S    
N12   Ni2   S    
N12   N21   A    
C22   H50   S    
C29   Cl3   S    
C75   H31   S    
N26   N29   A    
C43   N17   A    
C30   Cl4   S    
C11   H57   S    
N29   Ni4   S    
C52   H17   S    
N24   N31   A    
C14   H59   S    
C1    C53   A    
C72   C88   S    
C4    C96   S    
C5    C88   S    
N4    N13   A    
C7    C87   S    
N11   Ni1   S    
C60   C67   A    
C79   C83   S    
N9    N32   A    
C62   C92   S    
C8    C79   S    
C19   C22   S    
C9    C55   S    
N23   Ni2   S    
C74   C87   S    
C50   N24   A    
C75   C80   S    
C10   C19   D    
C4    C74   S    
C11   C53   S    
C33   C69   A    
C47   C53   A    
C7    H42   S    
C5    C85   S    
N25   N28   A    
C45   N28   A    
C21   H47   S    
C29   C64   A    
C81   C89   S    
N16   Ni3   S    
C40   C66   A    
C25   H52   S    
N6    Ni8   S    
C39   C65   A    
N3    N11   A    
C26   H51   S    
C3    H38   S    
N7    Ni8   S    
N31   Ni3   S    
C2    C72   S    
N18   N23   A    
C82   H20   S    
C37   C63   A    
C1    H1    S    
C72   H28   S    
C41   C68   A    
C38   C64   A    
N21   Ni6   S    
C84   H22   S    
C39   H4    S    
C45   C58   A    
N20   Ni5   S    
C68   C95   S    
C6    C84   S    
C46   H10   S    
C50   H15   S    
C2    C94   S    
C70   C93   S    
C52   N26   A    
C35   C70   A    
C35   Cl8   S    
C83   H21   S    
C6    H41   S    
N18   Ni6   S    
C5    H40   S    
C71   C84   S    
C49   N22   A    
C16   H61   S    
C42   N16   A    
C6    C90   S    
C32   N6    A    
C11   C20   D    
C34   H34   S    
C36   H64   S    
C82   C91   S    
C20   H48   S    
C33   Cl7   S    
C36   C62   A    
C74   C91   S    
C5    C75   S    
C48   C54   A    
C42   H7    S    
C79   C95   S    
C10   C57   S    
C37   N10   A    
C17   H60   S    
C76   C93   S    
C34   C57   A    
C85   C94   S    
C49   H14   S    
C71   C89   S    
C61   C78   A    
C89   H36   S    
C7    C91   S    
C87   C96   S    
N19   Ni5   S    
C51   H16   S    
C15   C61   S    
C40   H5    S    
C13   C21   D    
N5    Ni7   S    
C51   C58   A    
C16   C58   S    
C29   N3    A    
N3    Ni6   S    
C6    C76   S    
C73   C92   S    
C10   H53   S    
C30   N4    A    
C48   N21   A    
C39   N13   A    
C17   C59   S    
C86   H25   S    
C8    C92   S    
C81   C90   S    
C67   H62   S    
N22   Ni8   S    
C15   C24   D    
C12   N12   A    
C38   H3    S    
C73   H29   S    
C44   H9    S    
C69   C94   S    
C43   C70   A    
C41   H6    S    
C46   C57   A    
N30   Ni4   S    
C46   N19   A    
N24   Ni7   S    
C18   C24   S    
C8    H43   S    
C43   H8    S    
C17   C26   D    
C63   C91   S    
N26   Ni8   S    
C24   H49   S    
C87   H26   S    
C65   C88   S    
C66   C96   S    
C13   C54   S    
C31   N5    A    
C28   Cl2   S    
C16   C25   D    
C50   C61   A    
C21   C25   S    
C27   Cl1   S    
C38   N11   A    
C77   C96   S    
N19   N27   A    
C56   N29   A    
C27   N32   A    
N1    N20   A    
C9    H54   S    
C76   C81   S    
N5    N14   A    
C40   N14   A    
C23   C55   A    
C48   H13   S    
N27   Ni1   S    
C27   C62   A    
C14   C60   S    
C36   N9    A    
C23   H23   S    
C19   H44   S    
C56   C59   A    
C7    C77   S    
N28   Ni3   S    
C14   C22   D    
N15   Ni3   S    
C37   H2    S    
C56   H56   S    
C32   Cl6   S    
C3    C83   S    
C44   C55   A    
C71   C90   S    
C20   C26   S    
C77   C82   S    
C74   H30   S    
C1    N1    A    
C45   H45   S    
C84   C93   S    
C42   C69   A    
C89   C93   S    
C33   N7    A    
C73   C86   S    
C81   H19   S    
C30   C65   A    
C2    C80   S    
C86   C95   S    
N1    Ni1   S    
C28   C63   A    
C9    C18   D    
C4    C82   S    
C71   H27   S    
C80   C88   S    
C78   N31   A    
N10   Ni1   S    
N17   Ni4   S    
C2    H37   S    
N9    Ni2   S    
C41   N15   A    
C85   H24   S    
C3    C95   S    
C3    C73   S    
C47   N20   A    
C18   H46   S    
N6    N15   A    
C13   H55   S    
C12   C54   A    
C28   N2    A    
C75   C94   S    
C44   N18   A    
N7    N16   A    
C12   H12   S    
