data_mof_unit_39927.cif
_audit_creation_date              2012-12-11T17:43:36-0500
_audit_creation_method            fapswitch 2.2
_symmetry_space_group_name_H-M    P1
_symmetry_Int_Tables_number       1
_space_group_crystal_system       triclinic
_cell_length_a                    15.053519
_cell_length_b                    14.961791
_cell_length_c                    16.917209
_cell_angle_alpha                 108.737889
_cell_angle_beta                  106.30573
_cell_angle_gamma                 109.027287
_cell_volume                      3078.70006879

loop_
_atom_site_label
_atom_site_type_symbol
_atom_type_description
_atom_site_fract_x
_atom_site_fract_y
_atom_site_fract_z
_atom_type_partial_charge
C1    C     C_R   0.091451 0.277516 0.022485 -0.121206
C2    C     C_R   0.102853 0.072383 0.952497 -0.230816
C3    C     C_R   0.009885 0.888371 0.916715 0.054561
C4    C     C_R   0.007955 0.075528 0.921104 0.054444
C5    C     C_R   0.104960 0.977746 0.945627 0.029543
C6    C     C_R   0.915768 0.978185 0.863743 0.029958
C7    C     C_R   0.834495 0.016327 0.735749 -0.140375
C8    C     C_R   0.295341 0.049720 0.044595 -0.180499
C9    C     C_R   0.647413 0.934728 0.649314 -0.088315
C10   C     C_R   0.394630 0.964299 0.993636 -0.096923
C11   C     C_R   0.499604 0.708474 0.355900 -0.116804
C12   C     C_R   0.916009 0.711634 0.918979 -0.140225
C13   C     C_R   0.510078 0.412595 0.727629 -0.122873
C14   C     C_R   0.506705 0.690470 0.272042 -0.133826
C15   C     C_R   0.520606 0.436709 0.817726 -0.116715
C16   C     C_R   0.935853 0.450900 0.734681 -0.128407
C17   C     C_R   0.064438 0.480803 0.253493 -0.139918
C18   C     C_R   0.530978 0.609555 0.230151 0.117089
C19   C     C_R   0.551490 0.541275 0.880259 0.113813
C20   C     C_R   0.549069 0.547969 0.274478 -0.170776
C21   C     C_R   0.570650 0.620961 0.851241 -0.192840
C22   C     C_R   0.542120 0.566476 0.358496 -0.106697
C23   C     C_R   0.028037 0.464947 0.725551 0.058149
C24   C     C_R   0.561720 0.596680 0.761496 -0.122565
C25   C     C_R   0.517364 0.646576 0.399129 -0.094436
C26   C     C_R   0.531354 0.492483 0.699681 -0.100257
C27   C     C_R   0.621578 0.577058 0.128733 -0.242029
C28   C     C_R   0.476906 0.582098 0.987385 -0.235207
C29   C     C_R   0.629272 0.561877 0.045174 0.069826
C30   C     C_R   0.462641 0.586441 0.066144 0.058166
C31   C     C_R   0.556899 0.566392 0.974247 0.015627
C32   C     C_R   0.537737 0.590135 0.140596 0.022275
C33   C     C_R   0.747307 0.000174 0.664409 -0.092637
C34   C     C_R   0.973529 0.420917 0.255654 0.066714
C35   C     C_R   0.389403 0.044567 0.059993 -0.111838
C36   C     C_R   0.965870 0.379547 0.322615 0.132102
C37   C     C_R   0.037202 0.419975 0.639030 0.129045
C38   C     C_R   0.141976 0.438439 0.554247 -0.225755
C39   C     C_R   0.861774 0.305566 0.393143 -0.227861
C40   C     C_R   0.720330 0.214669 0.823182 -0.124615
C41   C     C_R   0.223669 0.797901 0.187542 -0.134241
C42   C     C_R   0.135176 0.453158 0.637336 -0.170813
C43   C     C_R   0.868197 0.323253 0.318732 -0.176937
C44   C     C_R   0.946849 0.356467 0.555507 -0.282215
C45   C     C_R   0.664483 0.217302 0.744322 0.064905
C46   C     C_R   0.056787 0.405796 0.396698 -0.283180
C47   C     C_R   0.952762 0.347415 0.473044 0.192004
C48   C     C_R   0.051033 0.393530 0.473382 0.188512
C49   C     C_R   0.555875 0.144196 0.677447 0.131398
C50   C     C_R   0.280979 0.899988 0.360410 0.132848
C51   C     C_R   0.388190 0.089949 0.444945 -0.234679
C52   C     C_R   0.406256 0.972185 0.607785 -0.244392
C53   C     C_R   0.318604 0.000004 0.361992 -0.170333
C54   C     C_R   0.498665 0.052980 0.683051 -0.178078
C55   C     C_R   0.298046 0.893392 0.443820 -0.291087
C56   C     C_R   0.240105 0.803747 0.274368 0.054237
C57   C     C_R   0.512311 0.160088 0.601516 -0.314279
C58   C     C_R   0.371753 0.982217 0.526673 0.192376
C59   C     C_R   0.421625 0.079420 0.525740 0.199234
C60   C     C_R   0.634347 0.887316 0.706909 -0.136942
C61   C     C_R   0.305910 0.889229 0.911519 -0.122980
C62   C     C_R   0.721293 0.903482 0.778605 -0.178248
C63   C     C_R   0.211733 0.894158 0.895652 -0.143321
C64   C     C_R   0.300564 0.598982 0.006158 -0.154944
C65   C     C_R   0.737800 0.463957 0.048095 -0.137589
C66   C     C_R   0.822448 0.967495 0.793236 0.113331
C67   C     C_R   0.359569 0.567361 0.057077 0.059449
C68   C     C_R   0.205410 0.973894 0.962536 0.112473
C69   C     C_R   0.726562 0.310533 0.746777 -0.146847
C70   C     C_R   0.217911 0.702325 0.265404 -0.128176
C71   C     C_R   0.296401 0.501067 0.080738 -0.129392
C72   C     C_R   0.754058 0.566455 0.976144 -0.108372
C73   C     C_R   0.109662 0.535868 0.812451 -0.135420
C74   C     C_R   0.891876 0.397327 0.176665 -0.141323
C75   C     C_R   0.917443 0.192993 0.948322 -0.131594
C76   C     C_R   0.087296 0.796595 0.999722 -0.144982
C77   C     C_R   0.005891 0.178369 0.959109 0.053470
C78   C     C_R   0.710195 0.538105 0.030724 0.045867
C79   C     C_R   0.004641 0.803352 0.945093 0.063852
C80   C     C_R   0.916736 0.886450 0.867293 -0.231193
H1    H     H_    0.172735 0.296411 0.048956 0.092823
H2    H     H_    0.503542 0.374030 0.838460 0.114757
H3    H     H_    0.555707 0.518482 0.392026 0.103384
H4    H     H_    0.577440 0.658385 0.739622 0.106173
H5    H     H_    0.680385 0.577858 0.183839 0.131814
H6    H     H_    0.418422 0.578116 0.929654 0.129880
H7    H     H_    0.132789 0.445762 0.399888 0.115205
H8    H     H_    0.870843 0.324918 0.554823 0.116835
H9    H     H_    0.796404 0.298781 0.261436 0.111797
H10   H     H_    0.206692 0.497646 0.700185 0.117529
H11   H     H_    0.218034 0.471719 0.554993 0.126766
H12   H     H_    0.838849 0.683090 0.866972 0.096261
H13   H     H_    0.785803 0.268383 0.391473 0.124112
H14   H     H_    0.857176 0.401500 0.681603 0.094357
H15   H     H_    0.142904 0.500327 0.296444 0.087713
H16   H     H_    0.757221 0.037437 0.620114 0.112635
H17   H     H_    0.458214 0.102639 0.123549 0.103394
H18   H     H_    0.553266 0.230361 0.596042 0.114714
H19   H     H_    0.264512 0.817735 0.444191 0.120370
H20   H     H_    0.528414 0.039898 0.742093 0.122827
H21   H     H_    0.302335 0.008679 0.299240 0.116187
H22   H     H_    0.423711 0.165250 0.444204 0.122959
H23   H     H_    0.911426 0.065325 0.745069 0.116875
H24   H     H_    0.367461 0.898659 0.610112 0.127821
H25   H     H_    0.580136 0.920883 0.592994 0.114550
H26   H     H_    0.467456 0.960315 0.005826 0.098736
H27   H     H_    0.556783 0.837409 0.695591 0.104520
H28   H     H_    0.310072 0.827134 0.860168 0.105731
H29   H     H_    0.709622 0.865856 0.822375 0.105576
H30   H     H_    0.143546 0.835411 0.831728 0.117147
H31   H     H_    0.690495 0.161885 0.850784 0.088850
H32   H     H_    0.233812 0.861652 0.168918 0.095957
H33   H     H_    0.327803 0.660570 0.985824 0.095405
H34   H     H_    0.292249 0.111654 0.097128 0.109516
H35   H     H_    0.714808 0.423472 0.087033 0.099224
H36   H     H_    0.703462 0.347815 0.705327 0.092164
H37   H     H_    0.222902 0.676810 0.318562 0.094719
H38   H     H_    0.319913 0.469107 0.127247 0.104164
H39   H     H_    0.751171 0.624286 0.951904 0.113733
H40   H     H_    0.191936 0.564557 0.831478 0.092583
H41   H     H_    0.811563 0.339650 0.148723 0.084384
H42   H     H_    0.837089 0.134326 0.908951 0.115495
H43   H     H_    0.168921 0.846914 0.025893 0.118424
H44   H     H_    0.844609 0.813682 0.831031 0.120466
H45   H     H_    0.512033 0.660746 0.464144 0.100998
H46   H     H_    0.175678 0.143511 0.983108 0.122895
H47   H     H_    0.567211 0.484792 0.243537 0.106860
H48   H     H_    0.593134 0.701730 0.898355 0.113884
H49   H     H_    0.523374 0.473440 0.629891 0.097033
H50   H     H_    0.480531 0.770590 0.387460 0.110791
H51   H     H_    0.484110 0.331763 0.679153 0.121750
H52   H     H_    0.493541 0.739853 0.239936 0.112965
N1    N     N_R   0.055660 0.348550 0.045620 -0.041279
N2    N     N_R   0.185200 0.638170 0.176300 -0.038952
N3    N     N_R   0.201680 0.494570 0.045620 -0.040636
N4    N     N_R   0.798320 0.505430 0.954380 -0.041550
N5    N     N_R   0.068420 0.560530 0.871650 -0.039065
N6    N     N_R   0.931580 0.439470 0.128350 -0.037224
N7    N     N_R   0.948070 0.295860 0.997670 -0.043088
N8    N     N_R   0.051930 0.704140 0.002330 -0.039994
N9    N     N_R   0.944340 0.651450 0.954380 -0.039996
N10   N     N_R   0.960830 0.507850 0.823700 -0.040544
N11   N     N_R   0.039170 0.492150 0.176300 -0.038216
N12   N     N_R   0.811290 0.303410 0.871650 -0.041069
N13   N     N_R   0.188710 0.696590 0.128350 -0.039668
N14   N     N_R   0.205200 0.552990 0.997670 -0.037026
N15   N     N_R   0.794800 0.447010 0.002330 -0.041119
N16   N     N_R   0.814800 0.361830 0.823700 -0.038720
Ni1   Ni    Ni4+2 0.119340 0.493420 0.109960 0.214515
Ni2   Ni    Ni4+2 0.880660 0.506580 0.890040 0.215138
Ni3   Ni    Ni4+2 0.872590 0.372590 0.000000 0.208875
Ni4   Ni    Ni4+2 0.127410 0.627410 0.000000 0.214612

loop_
_geom_bond_atom_site_label_1
_geom_bond_atom_site_label_2
_ccdc_geom_bond_type
N5    N10   A    
C11   H50   S    
C69   H36   S    
C27   C29   A    
C75   H42   S    
C1    C77   A    
C14   C18   A    
C16   N10   A    
C76   C79   A    
N12   N16   A    
C19   C31   S    
C14   H52   S    
C51   H22   S    
C15   C19   A    
C74   N6    A    
C43   H9    S    
C40   H31   S    
C19   C21   A    
C24   C26   A    
C38   C42   A    
N12   Ni3   S    
N6    N11   A    
C71   N3    A    
C11   C14   A    
C57   C59   A    
C26   H49   S    
C11   C25   A    
C70   H37   S    
C1    H1    S    
C49   C54   A    
C12   C79   A    
C49   C57   A    
C12   N9    A    
C60   C62   A    
C37   C42   A    
C27   H5    S    
C61   H28   S    
C25   H45   S    
C39   H13   S    
C72   C78   A    
C29   C78   S    
C53   H21   S    
C22   C25   A    
N11   Ni1   S    
N5    Ni4   S    
C36   C46   A    
C10   C35   A    
C17   H15   S    
C65   N15   A    
N8    Ni4   S    
C67   C71   A    
C30   C67   S    
C44   C47   A    
C8    H34   S    
C3    C79   S    
C73   H40   S    
C7    H23   S    
C9    C33   A    
C7    C33   A    
C54   H20   S    
C23   C73   A    
C5    C68   S    
C1    N1    A    
C3    C80   A    
C52   C54   A    
N9    Ni2   S    
C15   H2    S    
C76   N8    A    
C40   C45   A    
C46   C48   A    
C50   C53   A    
C62   C66   A    
C45   C69   A    
N4    N15   A    
C64   C67   A    
N1    Ni1   S    
N8    N9    A    
C20   H47   S    
C4    C6    A    
C39   C43   A    
C44   H8    S    
C58   C59   A    
N3    Ni1   S    
N2    Ni1   S    
C38   H11   S    
C41   H32   S    
C50   C56   S    
C42   H10   S    
C8    C35   A    
C2    C4    A    
C41   C56   A    
C6    C80   A    
C47   C48   A    
C45   C49   S    
N3    N14   A    
C61   C63   A    
C13   H51   S    
C41   N13   A    
C21   H48   S    
C75   C77   A    
C60   H27   S    
C52   C58   A    
C34   C74   A    
N14   Ni4   S    
C2    H46   S    
C20   C22   A    
C8    C68   A    
C16   C23   A    
C56   C70   A    
C13   C15   A    
C28   H6    S    
C13   C26   A    
C10   H26   S    
C10   C61   A    
C51   C59   A    
C17   C34   A    
C21   C24   A    
C33   H16   S    
C39   C47   A    
C46   H7    S    
C80   H44   S    
N2    N13   A    
C63   C68   A    
C52   H24   S    
C65   C78   A    
C71   H38   S    
C64   N14   A    
C27   C32   A    
C76   H43   S    
C38   C48   A    
C12   H12   S    
C28   C31   A    
N16   Ni2   S    
C3    C5    A    
N4    Ni2   S    
N1    N7    A    
N6    Ni3   S    
C16   H14   S    
C50   C55   A    
C40   N12   A    
C17   N11   A    
C9    C60   A    
C22   H3    S    
N10   Ni2   S    
C37   C44   A    
C28   C30   A    
C65   H35   S    
C4    C77   S    
C29   C31   A    
C23   C37   S    
C7    C66   A    
C30   C32   A    
C62   H29   S    
C73   N5    A    
C63   H30   S    
N15   Ni3   S    
C72   H39   S    
N7    Ni3   S    
C34   C36   S    
C18   C20   A    
C24   H4    S    
C57   H18   S    
N13   Ni4   S    
C72   N4    A    
C2    C5    A    
C6    C66   S    
C74   H41   S    
C18   C32   S    
C55   C58   A    
C55   H19   S    
C70   N2    A    
C69   N16   A    
C36   C43   A    
C75   N7    A    
C51   C53   A    
C35   H17   S    
C9    H25   S    
C64   H33   S    
