data_mof_unit_39800.cif
_audit_creation_date              2012-10-26T19:56:43-0400
_audit_creation_method            fapswitch 2.2
_symmetry_space_group_name_H-M    P1
_symmetry_Int_Tables_number       1
_space_group_crystal_system       triclinic
_cell_length_a                    15.610504
_cell_length_b                    14.986004
_cell_length_c                    9.776121
_cell_angle_alpha                 89.999724
_cell_angle_beta                  61.464232
_cell_angle_gamma                 89.999631
_cell_volume                      2009.18778148

loop_
_atom_site_label
_atom_site_type_symbol
_atom_type_description
_atom_site_fract_x
_atom_site_fract_y
_atom_site_fract_z
_atom_type_partial_charge
C1    C     C_R   0.369881 0.117402 0.560662 0.486653
C2    C     C_2   0.488664 0.999620 0.083505 0.047433
C3    C     C_2   0.011336 0.499618 0.916496 0.047399
C4    C     C_2   0.988664 0.499620 0.083505 0.047374
C5    C     C_2   0.310219 0.800932 0.581686 0.050209
C6    C     C_2   0.708404 0.181395 0.410006 -0.046497
C7    C     C_2   0.689752 0.800910 0.418326 0.050232
C8    C     C_2   0.291581 0.181384 0.589998 -0.046487
C9    C     C_2   0.810235 0.300921 0.581687 0.050285
C10   C     C_2   0.208425 0.681376 0.410005 -0.046439
C11   C     C_2   0.189762 0.300919 0.418318 0.050217
C12   C     C_R   0.624926 0.877626 0.441787 0.554419
C13   C     C_2   0.791596 0.681399 0.589990 -0.046490
C14   C     C_2   0.337091 0.735726 0.469992 0.096747
C15   C     C_2   0.767800 0.167103 0.474964 -0.009649
C16   C     C_2   0.662895 0.735748 0.530092 0.096768
C17   C     C_2   0.232195 0.167090 0.525022 -0.009658
C18   C     C_2   0.837091 0.235752 0.469932 0.096778
C19   C     C_2   0.267792 0.667084 0.475018 -0.009643
C20   C     C_2   0.162899 0.235736 0.530048 0.096756
C21   C     C_2   0.732184 0.667095 0.525067 -0.009678
C22   C     C_2   0.771915 0.079287 0.543784 0.267070
C23   C     C_R   0.630116 0.117403 0.439337 0.486654
C24   C     C_2   0.437220 0.725280 0.336788 0.316802
C25   C     C_2   0.228107 0.079280 0.456166 0.267040
C26   C     C_2   0.562794 0.725387 0.663402 0.316752
C27   C     C_2   0.271869 0.579278 0.543895 0.266944
C28   C     C_2   0.937194 0.225384 0.336636 0.316663
C29   C     C_2   0.728055 0.579271 0.456281 0.267055
C30   C     C_2   0.062788 0.225340 0.663315 0.316744
C31   C     C_2   0.713068 0.262047 0.317187 0.222469
C32   C     C_2   0.214153 0.802491 0.726490 0.234322
C33   C     C_2   0.286889 0.262026 0.682845 0.222494
C34   C     C_R   0.375071 0.877627 0.558214 0.554426
C35   C     C_2   0.785776 0.802390 0.273436 0.234383
C36   C     C_2   0.213143 0.762010 0.317121 0.222521
C37   C     C_2   0.714207 0.302418 0.726563 0.234419
C38   C     C_2   0.786950 0.762061 0.682771 0.222481
C39   C     C_2   0.285802 0.302432 0.273460 0.234368
C40   C     C_R   0.869883 0.617406 0.560661 0.486641
C41   C     C_R   0.124926 0.377626 0.441787 0.554403
C42   C     C_R   0.130122 0.617401 0.439338 0.486658
C43   C     C_R   0.875071 0.377628 0.558216 0.554411
C44   C     C_2   0.511336 0.999619 0.916495 0.047401
Cu1   Cu    Cu3+1 0.522650 0.000000 0.349410 1.032106
Cu2   Cu    Cu3+1 0.477350 0.000000 0.650590 1.032134
Cu3   Cu    Cu3+1 0.022650 0.500000 0.349410 1.032095
Cu4   Cu    Cu3+1 0.977350 0.500000 0.650590 1.032099
H1    H     H_    0.627880 0.000262 0.034892 0.237498
H2    H     H_    0.446967 0.691931 0.231716 0.106393
H3    H     H_    0.262249 0.020425 0.473247 0.108832
H4    H     H_    0.553095 0.692205 0.768582 0.106445
H5    H     H_    0.237722 0.520424 0.526827 0.108891
H6    H     H_    0.946903 0.192225 0.231431 0.106419
H7    H     H_    0.762256 0.520431 0.473265 0.108944
H8    H     H_    0.053074 0.192087 0.768447 0.106411
H9    H     H_    0.657402 0.271796 0.282116 0.149197
H10   H     H_    0.193320 0.861375 0.800086 0.111075
H11   H     H_    0.342620 0.271841 0.717757 0.149181
H12   H     H_    0.372120 0.000263 0.965108 0.237518
H13   H     H_    0.806631 0.861257 0.199799 0.111105
H14   H     H_    0.157419 0.771832 0.282196 0.149157
H15   H     H_    0.693360 0.361289 0.800192 0.111080
H16   H     H_    0.842674 0.771853 0.717703 0.149181
H17   H     H_    0.306650 0.361309 0.199848 0.111087
H18   H     H_    0.127880 0.500261 0.034892 0.237517
H19   H     H_    0.872120 0.500265 0.965107 0.237487
H20   H     H_    0.413113 0.999328 0.174048 0.176779
H21   H     H_    0.586887 0.999327 0.825951 0.176768
H22   H     H_    0.913113 0.499329 0.174049 0.176767
H23   H     H_    0.086887 0.499323 0.825952 0.176766
H24   H     H_    0.737757 0.020434 0.526733 0.108887
N1    N     N_2   0.443290 0.000000 0.876860 -0.333824
N2    N     N_2   0.556710 0.000000 0.123140 -0.333836
N3    N     N_2   0.943290 0.500000 0.876860 -0.333836
N4    N     N_2   0.056710 0.500000 0.123140 -0.333839
O1    O     O_R   0.422430 0.089640 0.419570 -0.480402
O2    O     O_R   0.615830 0.910350 0.326090 -0.471595
O3    O     O_R   0.615830 0.089650 0.326090 -0.494685
O4    O     O_R   0.384170 0.910350 0.673910 -0.471575
O5    O     O_R   0.884170 0.589650 0.673910 -0.494641
O6    O     O_R   0.115830 0.410350 0.326090 -0.471603
O7    O     O_R   0.115830 0.589650 0.326090 -0.494644
O8    O     O_R   0.884170 0.410350 0.673910 -0.471608
O9    O     O_2   0.815653 0.071620 0.618620 -0.446546
O10   O     O_2   0.509375 0.748101 0.345561 -0.441708
O11   O     O_2   0.184411 0.071621 0.381262 -0.446577
O12   O     O_R   0.577570 0.910360 0.580430 -0.474021
O13   O     O_2   0.490611 0.748092 0.654609 -0.441643
O14   O     O_2   0.315564 0.571621 0.618801 -0.446630
O15   O     O_2   0.009372 0.248060 0.345466 -0.441648
O16   O     O_2   0.684251 0.571583 0.381550 -0.446541
O17   O     O_2   0.990613 0.248094 0.654538 -0.441679
O18   O     O_2   0.778069 0.317343 0.277129 -0.529721
O19   O     O_2   0.158312 0.739073 0.767214 -0.469488
O20   O     O_2   0.221789 0.317236 0.723119 -0.529703
O21   O     O_2   0.841551 0.738922 0.232685 -0.469508
O22   O     O_2   0.278259 0.817205 0.276828 -0.529657
O23   O     O_R   0.577570 0.089640 0.580430 -0.480390
O24   O     O_2   0.658416 0.238961 0.767309 -0.469486
O25   O     O_2   0.721896 0.817313 0.722963 -0.529712
O26   O     O_2   0.341598 0.238979 0.232707 -0.469471
O27   O     O_R   0.422430 0.910360 0.419570 -0.473975
O28   O     O_R   0.922430 0.589640 0.419570 -0.480402
O29   O     O_R   0.077570 0.410360 0.580430 -0.474015
O30   O     O_R   0.077570 0.589640 0.580430 -0.480384
O31   O     O_R   0.922430 0.410360 0.419570 -0.474030
O32   O     O_R   0.384170 0.089650 0.673910 -0.494646

loop_
_geom_bond_atom_site_label_1
_geom_bond_atom_site_label_2
_ccdc_geom_bond_type
C15   C18   S    
C23   O23   A    
Cu2   O23   S    
C16   C21   S    
C10   C42   S    
C1    C8    S    
C1    O1    A    
C32   H10   S    
C4    H22   S    
C20   C30   S    
Cu1   Cu2   S    
C26   O13   D    
C41   O29   A    
Cu3   N4    S    
C30   O17   D    
C2    H20   S    
Cu3   O6    S    
C6    C23   S    
H12   N1    S    
C25   O11   D    
C17   C20   S    
Cu4   O5    S    
C27   O14   D    
C22   O9    D    
C14   C24   S    
C13   C40   S    
Cu1   O27   S    
C34   O4    A    
C6    C15   D    
C15   C22   S    
Cu4   O30   S    
Cu4   O29   S    
C2    C44   S    
Cu2   O32   S    
Cu1   O2    S    
Cu3   O7    S    
C19   C27   S    
Cu2   O12   S    
C2    N2    D    
C5    C32   S    
C6    C31   S    
C33   H11   S    
C16   C26   S    
C43   O8    A    
C39   H17   S    
Cu4   N3    S    
C36   H14   S    
C14   C19   S    
C22   H24   S    
C37   H15   S    
C38   H16   S    
C24   H2    S    
C7    C12   S    
C11   C20   D    
C9    C43   S    
C12   O12   A    
C18   C28   S    
C35   H13   S    
C28   H6    S    
C29   H7    S    
C21   C29   S    
Cu4   O8    S    
C12   O2    A    
Cu1   N2    S    
C3    H23   S    
C25   H3    S    
C26   H4    S    
C40   O28   A    
Cu3   Cu4   S    
C10   C19   D    
H18   N4    S    
C5    C34   S    
C9    C37   S    
C13   C38   S    
C13   C21   D    
C44   H21   S    
Cu1   O3    S    
C43   O31   A    
C11   C39   S    
C42   O30   A    
C5    C14   D    
C7    C16   D    
Cu3   O31   S    
H19   N3    S    
C3    C4    S    
C33   O20   D    
C3    N3    D    
C39   O26   D    
Cu3   O28   S    
C7    C35   S    
C40   O5    A    
C42   O7    A    
C34   O27   A    
C36   O22   D    
C27   H5    S    
C38   O25   D    
C31   O18   D    
C8    C17   D    
C17   C25   S    
C31   H9    S    
Cu2   O4    S    
C30   H8    S    
C41   O6    A    
Cu2   N1    S    
C10   C36   S    
C11   C41   S    
C28   O15   D    
C8    C33   S    
C37   O24   D    
C44   N1    D    
C4    N4    D    
C1    O32   A    
C9    C18   D    
C32   O19   D    
H1    N2    S    
Cu1   O1    S    
C23   O3    A    
C35   O21   D    
C24   O10   D    
C29   O16   D    
