data_mof_unit_12395.cif
_audit_creation_date              2013-03-05T16:43:17-0500
_audit_creation_method            fapswitch 2.2
_symmetry_space_group_name_H-M    P1
_symmetry_Int_Tables_number       1
_space_group_crystal_system       triclinic
_cell_length_a                    15.921631
_cell_length_b                    10.823556
_cell_length_c                    10.070645
_cell_angle_alpha                 88.77445
_cell_angle_beta                  90.287476
_cell_angle_gamma                 86.792104
_cell_volume                      1732.31150362

loop_
_atom_site_label
_atom_site_type_symbol
_atom_site_description
_atom_site_fract_x
_atom_site_fract_y
_atom_site_fract_z
_atom_type_partial_charge
O1    O     O_R   0.500010 0.316790 0.614690 -0.544183
O2    O     O_R   0.500000 0.316760 0.385350 -0.588264
C1    C     C_R   0.503933 0.260968 0.501122 0.970140
O3    O     O_R   0.377150 0.500020 0.614720 -0.584153
O4    O     O_R   0.377140 0.499990 0.385380 -0.588282
C2    C     C_R   0.338528 0.501052 0.499232 0.983988
Zn1   Zn    Zn3+2 0.500010 0.500020 0.653130 1.141016
Zn2   Zn    Zn3+2 0.499990 0.499980 0.346870 1.143047
O5    O     O_R   0.500000 0.683240 0.614650 -0.577900
O6    O     O_R   0.499990 0.683210 0.385310 -0.568580
O7    O     O_R   0.622860 0.500010 0.614620 -0.561801
O8    O     O_R   0.622850 0.499980 0.385280 -0.570528
C3    C     C_R   0.501485 0.739366 0.498236 0.926085
C4    C     C_R   0.661376 0.496354 0.499757 0.853028
C5    C     C_3   0.061461 0.355988 0.596675 0.358663
C6    C     C_3   0.051298 0.445391 0.357508 -0.549681
C7    C     C_3   0.953564 0.464750 0.342997 0.512780
H1    H     H_    0.082970 0.505884 0.285611 0.272933
H2    H     H_    0.072523 0.352627 0.326041 0.288452
C8    C     C_1   0.750389 0.482545 0.497580 0.073855
C9    C     C_3   0.083546 0.472236 0.501532 -0.247470
C10   C     C_3   0.957755 0.346836 0.591268 0.294496
C11   C     C_3   0.917445 0.468084 0.498466 -0.383696
C12   C     C_3   0.943653 0.595084 0.572270 0.338033
C13   C     C_3   0.039461 0.602582 0.537399 -0.037202
C14   C     C_1   0.825636 0.472070 0.494972 0.283161
C15   C     C_1   0.174847 0.486870 0.495060 0.273153
C16   C     C_1   0.249567 0.496010 0.496166 0.120744
H3    H     H_    0.040772 0.653845 0.443117 0.223155
C17   C     C_R   0.485672 0.061965 0.613604 -0.014434
C18   C     C_R   0.511428 0.128933 0.503531 -0.099144
C19   C     C_R   0.545388 0.065274 0.394242 -0.208985
H4    H     H_    0.570129 0.115086 0.310158 0.226630
C20   C     C_R   0.543510 0.936638 0.389291 0.305223
C21   C     C_R   0.506298 0.871741 0.495232 -0.155722
C22   C     C_R   0.480610 0.936653 0.606941 -0.073607
C23   C     C_3   0.401964 0.937171 0.688689 0.375548
C24   C     C_3   0.415070 0.075502 0.712171 0.404666
C25   C     C_R   0.432489 0.543223 0.069039 0.036870
N1    N     N_R   0.499430 0.499140 0.142800 -0.156644
C26   C     C_R   0.567954 0.454846 0.075307 0.275107
C27   C     C_R   0.567019 0.447169 0.933030 0.375167
N2    N     N_R   0.499430 0.499180 0.857150 -0.153511
C28   C     C_R   0.433602 0.551749 0.928923 0.078629
C29   C     C_3   0.342273 0.520337 0.925666 -0.050139
C30   C     C_3   0.344083 0.504887 0.078430 0.409331
H5    H     H_    0.334630 0.434994 0.868997 0.216964
S1    S     S_3+6 0.926507 0.191892 0.541498 0.170587
O9    O     O_2   0.833131 0.192554 0.519077 -0.263275
O10   O     O_2   0.972295 0.138027 0.425145 -0.158137
O11   O     O_3   0.946370 0.092290 0.670420 -0.383203
H6    H     H_    0.903649 0.029508 0.664401 0.430677
S2    S     S_3+6 0.109858 0.368636 0.764195 0.176486
O12   O     O_2   0.113952 0.244831 0.835495 -0.091371
O13   O     O_2   0.198881 0.405311 0.752275 -0.284453
O14   O     O_3   0.058701 0.468074 0.864691 -0.418438
H7    H     H_    0.093957 0.467947 0.946063 0.429611
N3    N     N_R   0.918375 0.346963 0.725190 0.264934
O15   O     O_R   0.955076 0.289478 0.825901 -0.176534
O16   O     O_R   0.836962 0.345764 0.728789 -0.281328
S3    S     S_3+6 0.882196 0.741686 0.527144 0.129438
O17   O     O_2   0.938699 0.843017 0.489275 -0.137222
O18   O     O_2   0.818797 0.729200 0.418539 -0.261876
O19   O     O_3   0.827625 0.794684 0.659346 -0.448339
H8    H     H_    0.770349 0.764463 0.649434 0.380268
N4    N     N_R   0.576701 0.875356 0.274852 0.213221
O20   O     O_R   0.525944 0.848257 0.179456 -0.269441
O21   O     O_R   0.657113 0.873762 0.252348 -0.282864
S4    S     S_3+6 0.311173 0.907400 0.586338 0.143844
O22   O     O_2   0.318983 0.779603 0.531425 -0.303222
O23   O     O_2   0.233098 0.921198 0.668995 -0.088044
O24   O     O_3   0.303121 0.007436 0.456217 -0.480567
H9    H     H_    0.249261 0.990688 0.412264 0.438557
N5    N     N_R   0.409238 0.859454 0.809757 0.239047
O25   O     O_R   0.347108 0.861320 0.893197 -0.212492
O26   O     O_R   0.481519 0.807659 0.847137 -0.313831
N6    N     N_R   0.341888 0.158119 0.676047 0.228573
O27   O     O_R   0.277533 0.163137 0.754929 -0.189728
O28   O     O_R   0.338086 0.223385 0.566211 -0.371607
S5    S     S_3+6 0.456918 0.113088 0.871749 0.138766
O29   O     O_2   0.459595 0.250727 0.877210 -0.306663
O30   O     O_2   0.401513 0.069396 0.981295 -0.157721
O31   O     O_3   0.554766 0.048466 0.892875 -0.468057
H10   H     H_    0.574419 0.080323 0.978476 0.413232
N7    N     N_R   0.640531 0.412300 0.149605 0.255780
O32   O     O_R   0.708205 0.473979 0.144093 -0.236949
O33   O     O_R   0.641240 0.307484 0.215257 -0.358384
N8    N     N_R   0.105236 0.239750 0.546683 0.242737
O34   O     O_R   0.100382 0.135953 0.613049 -0.154129
O35   O     O_R   0.165651 0.242121 0.460266 -0.307304
S6    S     S_3+6 0.657367 0.370723 0.862172 0.164900
O36   O     O_2   0.714091 0.472412 0.828478 -0.180106
O37   O     O_2   0.702698 0.282203 0.958720 -0.202204
O38   O     O_3   0.637998 0.287425 0.728347 -0.516435
H11   H     H_    0.691627 0.240871 0.708651 0.405064
N9    N     N_R   0.287976 0.624196 0.874458 0.284294
O39   O     O_R   0.219398 0.661618 0.934504 -0.187525
O40   O     O_R   0.299409 0.664089 0.754429 -0.268959
N10   N     N_R   0.290935 0.594055 0.153505 0.242440
O41   O     O_R   0.213466 0.571003 0.180113 -0.338087
O42   O     O_R   0.319876 0.697207 0.193743 -0.277779
S7    S     S_3+6 0.331174 0.345163 0.130373 0.121431
O43   O     O_2   0.283878 0.339200 0.258645 -0.241917
O44   O     O_2   0.281534 0.281607 0.027312 -0.165110
O45   O     O_3   0.425014 0.268178 0.150783 -0.519495
H12   H     H_    0.413280 0.193232 0.204192 0.412354
S8    S     S_3+6 0.912006 0.342925 0.234200 0.181692
O46   O     O_2   0.885163 0.392982 0.099113 -0.080974
O47   O     O_2   0.977606 0.241675 0.206719 -0.201471
O48   O     O_3   0.825044 0.282691 0.293799 -0.467489
H13   H     H_    0.814660 0.212343 0.235681 0.431070
S9    S     S_3+6 0.934114 0.602941 0.230656 0.143665
O49   O     O_2   0.978572 0.575166 0.102354 -0.183952
O50   O     O_2   0.841716 0.620108 0.199692 -0.138169
O51   O     O_3   0.969554 0.739935 0.271329 -0.485277
H14   H     H_    0.950091 0.798038 0.198761 0.437908
N11   N     N_R   0.087506 0.682144 0.622384 0.275665
O52   O     O_R   0.094104 0.798080 0.589332 -0.195386
O53   O     O_R   0.131726 0.636902 0.721547 -0.211369
N12   N     N_R   0.930958 0.590798 0.718249 0.251108
O54   O     O_R   0.856175 0.570047 0.761022 -0.257168
O55   O     O_R   0.971400 0.664965 0.792303 -0.170231

loop_
_geom_bond_atom_site_label_1
_geom_bond_atom_site_label_2
_geom_bond_distance
_ccdc_geom_bond_type
N4    O21   1.300533 A    
C30   N10   1.471506 S    
C6    C9    1.574479 S    
C23   S4    1.818591 S    
S4    O24   1.681670 S    
C26   C27   1.437054 A    
C10   S1    1.854207 S    
C21   C22   1.390230 A    
C23   N5    1.466739 S    
C20   N4    1.430732 S    
N11   O53   1.290813 A    
S9    O50   1.502755 D    
S2    O12   1.504678 D    
N12   O54   1.297930 A    
Zn1   O7    1.995951 S    
C30   S7    1.818440 S    
C7    C11   1.671066 S    
N5    O26   1.301850 A    
C5    S2    1.862057 S    
C22   C23   1.501818 S    
C5    C10   1.660350 S    
C27   S6    1.779160 S    
S5    O31   1.682234 S    
C17   C18   1.387732 A    
O7    C4    1.312261 A    
C11   C14   1.460199 S    
N3    O16   1.297700 A    
O51   H14   0.990885 S    
O14   H7    0.990896 S    
C17   C24   1.506435 S    
S7    O45   1.679026 S    
S4    O23   1.501786 D    
C20   C21   1.415467 A    
C29   H5    1.108239 S    
S3    O18   1.497968 D    
O5    C3    1.309751 A    
O48   H13   0.990867 S    
S7    O43   1.500522 D    
S1    O11   1.686920 S    
C2    C16   1.420708 S    
O31   H10   0.990969 S    
C6    C7    1.564166 S    
C24   S5    1.799892 S    
N9    O40   1.292037 A    
S8    O46   1.504534 D    
Zn1   N2    2.054508 S    
S3    O17   1.501218 D    
N6    O27   1.299099 A    
N6    O28   1.298955 A    
N4    O20   1.301100 A    
C9    C15   1.472671 S    
S8    O47   1.502073 D    
S4    O22   1.499572 D    
O3    Zn1   1.992105 S    
S9    O49   1.504282 D    
N12   O55   1.301475 A    
S2    O13   1.497856 D    
C13   H3    1.090305 S    
C12   N12   1.485033 S    
N5    O25   1.300724 A    
N7    O33   1.300269 A    
O11   H6    0.990541 S    
C4    C8    1.417088 S    
C12   C13   1.573159 S    
S5    O30   1.500991 D    
S6    O36   1.496839 D    
S5    O29   1.494908 D    
N3    O15   1.297527 A    
N7    O32   1.299699 A    
O1    C1    1.305014 A    
C19   C20   1.396237 A    
S3    O19   1.686709 S    
S7    O44   1.502733 D    
N2    C28   1.379538 A    
C23   C24   1.546226 S    
S6    O37   1.503316 D    
N10   O41   1.300121 A    
Zn2   O8    1.992105 S    
N9    O39   1.299814 A    
C6    H1    1.107946 S    
C1    C18   1.427066 S    
C12   S3    1.863515 S    
O3    C2    1.312404 A    
N1    C26   1.358298 A    
N10   O42   1.303106 A    
O8    C4    1.301980 A    
C25   C30   1.492443 S    
S8    O48   1.671808 S    
C27   N2    1.401591 A    
C7    S9    1.866887 S    
C25   N1    1.354755 A    
C28   C29   1.512095 S    
S2    O14   1.674150 S    
Zn1   O5    2.012441 S    
C9    C13   1.589667 S    
S1    O9    1.502219 D    
O1    Zn1   2.028739 S    
C18   C19   1.405404 A    
O2    Zn2   2.012441 S    
N8    O35   1.301355 A    
O24   H9    0.990546 S    
O6    C3    1.301623 A    
C13   N11   1.468968 S    
C10   N3    1.490143 S    
O4    Zn2   1.995950 S    
C3    C21   1.438776 S    
C25   C28   1.412367 A    
C24   N6    1.467934 S    
C26   N7    1.422759 S    
O45   H12   0.990725 S    
C17   C22   1.366264 A    
C19   H4    1.081880 S    
C7    S8    1.878591 S    
O2    C1    1.301083 A    
N11   O52   1.301422 A    
O19   H8    0.991184 S    
S6    O38   1.674275 S    
O4    C2    1.303656 A    
C8    C14   1.197538 T    
C6    H2    1.095183 S    
S1    O10   1.494857 D    
O38   H11   0.990022 S    
C11   C12   1.649495 S    
C29   C30   1.543879 S    
C5    C9    1.620535 S    
N8    O34   1.301123 A    
Zn2   O6    2.028739 S    
C15   C16   1.199294 T    
C10   C11   1.689625 S    
Zn2   N1    2.055308 S    
C29   N9    1.462511 S    
S9    O51   1.673929 S    
C5    N8    1.501513 S    
