data_mof_unit_33920.cif
_audit_creation_date              2012-12-11T16:58:20-0500
_audit_creation_method            fapswitch 2.2
_symmetry_space_group_name_H-M    P1
_symmetry_Int_Tables_number       1
_space_group_crystal_system       triclinic
_cell_length_a                    16.909101
_cell_length_b                    7.297534
_cell_length_c                    16.754889
_cell_angle_alpha                 89.997428
_cell_angle_beta                  100.272846
_cell_angle_gamma                 90.003048
_cell_volume                      2034.3230027

loop_
_atom_site_label
_atom_site_type_symbol
_atom_type_description
_atom_site_fract_x
_atom_site_fract_y
_atom_site_fract_z
_atom_type_partial_charge
O1    O     O_R   0.413450 0.494370 0.415710 -0.531326
O2    O     O_R   0.586550 0.994370 0.584290 -0.531327
O3    O     O_R   0.578420 0.819350 0.429360 -0.539738
O4    O     O_R   0.421580 0.319350 0.570640 -0.539721
C1    C     C_R   0.605829 0.656895 0.415144 0.693979
C2    C     C_R   0.394179 0.156881 0.584865 0.693972
O5    O     O_R   0.413570 0.823780 0.406240 -0.546259
O6    O     O_R   0.586430 0.323780 0.593760 -0.546257
O7    O     O_R   0.420530 0.998740 0.561000 -0.531786
O8    O     O_R   0.579470 0.498740 0.439000 -0.531767
C3    C     C_R   0.386142 0.655558 0.383806 0.733093
C4    C     C_R   0.613861 0.155560 0.616191 0.733191
O9    O     O_3   0.502480 0.662320 0.550800 -0.380864
O10   O     O_3   0.497520 0.162320 0.449200 -0.380857
V1    V     V_3+5 0.499540 0.935370 0.490580 1.422360
V2    V     V_3+5 0.500460 0.435370 0.509420 1.422386
C5    C     C_R   0.695435 0.990873 0.735148 0.074497
C6    C     C_R   0.304598 0.490928 0.264810 0.074504
C7    C     C_R   0.682245 0.147039 0.685481 -0.135136
C8    C     C_R   0.317762 0.647039 0.314511 -0.135090
C9    C     C_R   0.741404 0.285694 0.697354 -0.201149
C10   C     C_R   0.258587 0.785648 0.302658 -0.201125
H1    H     H_    0.737254 0.399406 0.655256 0.160557
H2    H     H_    0.262726 0.899319 0.344773 0.160530
C11   C     C_R   0.810884 0.268305 0.757654 0.360097
C12   C     C_R   0.189109 0.768255 0.242357 0.360135
C13   C     C_R   0.819236 0.121049 0.812852 -0.180526
C14   C     C_R   0.180773 0.621050 0.187139 -0.180559
C15   C     C_R   0.764285 0.976556 0.795945 -0.024799
C16   C     C_R   0.235747 0.476605 0.204015 -0.024772
C17   C     C_3   0.783229 0.791402 0.765394 -0.220492
C18   C     C_3   0.216837 0.291381 0.234527 -0.220591
C19   C     C_3   0.704860 0.799951 0.706010 -0.409393
C20   C     C_3   0.295214 0.299940 0.293900 -0.409374
H3    H     H_    0.786244 0.681027 0.811519 0.150916
H4    H     H_    0.213826 0.181069 0.188378 0.150800
H5    H     H_    0.658234 0.706833 0.722420 0.160672
H6    H     H_    0.341852 0.206921 0.277454 0.160650
H7    H     H_    0.710991 0.791877 0.641046 0.189192
H8    H     H_    0.289100 0.291729 0.358864 0.189262
C21   C     C_R   0.328642 0.159163 0.633775 -0.099052
C22   C     C_R   0.671368 0.659223 0.366232 -0.099075
C23   C     C_R   0.167412 0.111342 0.863068 -0.062003
C24   C     C_R   0.832597 0.611280 0.136946 -0.062073
C25   C     C_R   0.283117 0.955895 0.824799 -0.175537
C26   C     C_R   0.717014 0.455561 0.175352 -0.175614
C27   C     C_R   0.228011 0.976844 0.877277 -0.160698
C28   C     C_R   0.772088 0.476574 0.122843 -0.160676
C29   C     C_R   0.163131 0.225921 0.795099 -0.193554
C30   C     C_R   0.836802 0.726062 0.204830 -0.193548
C31   C     C_R   0.217530 0.202904 0.740959 0.129360
C32   C     C_R   0.782429 0.703025 0.258997 0.129413
C33   C     C_R   0.278109 0.067027 0.755886 0.155484
C34   C     C_R   0.721954 0.566882 0.244185 0.155472
C35   C     C_R   0.332946 0.045447 0.702168 -0.233594
C36   C     C_R   0.667145 0.545255 0.297930 -0.233546
C37   C     C_R   0.265870 0.290704 0.617960 -0.048142
C38   C     C_R   0.734045 0.791052 0.381939 -0.048148
C39   C     C_R   0.211411 0.311582 0.671369 -0.187850
C40   C     C_R   0.788473 0.811964 0.328501 -0.187933
H9    H     H_    0.380776 0.945055 0.715198 0.119133
H10   H     H_    0.619394 0.444631 0.284986 0.119202
H11   H     H_    0.328933 0.850866 0.837547 0.115130
H12   H     H_    0.671274 0.350359 0.162688 0.115146
H13   H     H_    0.164217 0.413748 0.658698 0.147329
H14   H     H_    0.835586 0.914372 0.341081 0.147286
H15   H     H_    0.232141 0.885835 0.928959 0.115995
H16   H     H_    0.768006 0.385441 0.071223 0.116071
H17   H     H_    0.115669 0.327354 0.782648 0.159596
H18   H     H_    0.884188 0.827690 0.217198 0.159566
O11   O     O_R   0.920630 0.775410 0.061150 -0.531550
O12   O     O_R   0.079370 0.275410 0.938850 -0.531539
O13   O     O_R   0.086500 0.441450 0.093690 -0.544729
O14   O     O_R   0.913500 0.941450 0.906310 -0.544727
C41   C     C_R   0.112701 0.610052 0.117328 0.734757
C42   C     C_R   0.887302 0.110052 0.882669 0.734710
O15   O     O_R   0.921670 0.445960 0.070740 -0.539689
O16   O     O_R   0.078330 0.945960 0.929260 -0.539665
O17   O     O_R   0.913380 0.271130 0.915780 -0.516131
O18   O     O_R   0.086620 0.771130 0.084220 -0.516147
C43   C     C_R   0.895915 0.613085 0.085920 0.698024
C44   C     C_R   0.104084 0.113097 0.914081 0.697985
O19   O     O_3   0.997500 0.603030 0.949220 -0.364992
O20   O     O_3   0.002500 0.103030 0.050780 -0.365024
V3    V     V_3+5 0.000470 0.329940 0.009420 1.498942
V4    V     V_3+5 0.999530 0.829940 0.990580 1.498956
Cl1   Cl    Cl    0.895641 0.400672 0.749441 -0.667642
Cl2   Cl    Cl    0.104338 0.900528 0.250589 -0.667518
C45   C     C_1   0.853191 0.800884 0.723569 0.501796
N1    N     N_1   0.907717 0.810888 0.690677 -0.273160
C46   C     C_1   0.146884 0.300731 0.276367 0.501824
N2    N     N_1   0.092365 0.310650 0.309272 -0.272994
C47   C     C_1   0.255095 0.405677 0.546617 0.328828
N3    N     N_1   0.246091 0.498143 0.489612 -0.350094
C48   C     C_1   0.744760 0.906296 0.453201 0.328862
N4    N     N_1   0.753710 0.998982 0.510140 -0.350105

loop_
_geom_bond_atom_site_label_1
_geom_bond_atom_site_label_2
_ccdc_geom_bond_type
C1    C22   S    
C47   N3    T    
C13   C15   A    
C5    C15   A    
C48   N4    T    
O1    C3    A    
C42   O17   A    
O2    C4    A    
C22   C38   A    
C2    O7    A    
O12   V3    S    
O5    C3    A    
C19   H7    S    
O14   C42   A    
C20   H8    S    
C18   H4    S    
C10   H2    S    
C7    C9    A    
C37   C39   A    
C18   C46   S    
C38   C40   A    
C11   Cl1   S    
C25   C27   A    
C21   C35   A    
O18   V4    S    
C32   C40   A    
C22   C36   A    
C17   C45   S    
C2    C21   S    
C30   C32   A    
C17   C19   S    
C6    C16   A    
C41   O18   A    
C36   H10   S    
O16   V4    S    
O5    V1    S    
C40   H14   S    
O6    V2    S    
C37   C47   S    
O13   C41   A    
C5    C19   S    
C27   H15   S    
C32   C34   A    
C26   C28   A    
C33   C35   A    
C34   C36   A    
C3    C8    S    
O20   V3    S    
O4    C2    A    
C24   C43   S    
C46   N2    T    
C23   C29   A    
C29   C31   A    
C25   H11   S    
C19   H5    S    
C26   H12   S    
C31   C33   A    
C18   C20   S    
O4    V2    S    
C38   C48   S    
O11   V4    S    
O16   C44   A    
O15   C43   A    
O6    C4    A    
C26   C34   A    
O1    V2    S    
C28   H16   S    
O2    V1    S    
C6    C20   S    
O13   V3    S    
C8    C10   A    
C9    H1    S    
C17   H3    S    
C31   C39   A    
C13   C42   S    
O14   V4    S    
O17   V3    S    
O3    V1    S    
C24   C30   A    
C9    C11   A    
C20   H6    S    
O3    C1    A    
C11   C13   A    
C12   C14   A    
C14   C16   A    
C30   H18   S    
C21   C37   A    
C1    O8    A    
C15   C17   S    
O8    V2    S    
C39   H13   S    
C16   C18   S    
O15   V3    S    
C35   H9    S    
C4    C7    S    
C5    C7    A    
C6    C8    A    
O7    V1    S    
C25   C33   A    
O19   V4    S    
C12   Cl2   S    
C10   C12   A    
O9    V2    S    
C23   C44   S    
O10   V1    S    
C29   H17   S    
C45   N1    T    
C14   C41   S    
C23   C27   A    
O12   C44   A    
C24   C28   A    
O11   C43   A    
