data_mof_unit_39871.cif
_audit_creation_date              2012-12-10T17:02:58-0500
_audit_creation_method            fapswitch 2.2
_symmetry_space_group_name_H-M    P1
_symmetry_Int_Tables_number       1
_space_group_crystal_system       triclinic
_cell_length_a                    9.936152
_cell_length_b                    11.002643
_cell_length_c                    13.311522
_cell_angle_alpha                 94.706204
_cell_angle_beta                  81.832412
_cell_angle_gamma                 111.388939
_cell_volume                      1340.57183181

loop_
_atom_site_label
_atom_site_type_symbol
_atom_type_description
_atom_site_fract_x
_atom_site_fract_y
_atom_site_fract_z
_atom_type_partial_charge
C1    C     C_R   0.557377 0.745759 0.504682 0.833647
C2    C     C_R   0.435480 0.522166 0.975634 0.031633
C3    C     C_R   0.474355 0.554426 0.872314 0.073737
C4    C     C_R   0.548968 0.562348 0.039618 0.080253
C5    C     C_R   0.683908 0.662749 0.008976 0.015669
C6    C     C_R   0.711993 0.710051 0.909630 -0.027002
C7    C     C_R   0.607627 0.654724 0.842996 -0.239429
C8    C     C_R   0.533527 0.502217 0.131958 -0.235794
C9    C     C_R   0.754617 0.670423 0.178440 0.170093
C10   C     C_R   0.376980 0.488344 0.801119 -0.105575
C11   C     C_2   0.585470 0.886424 0.511032 -0.102977
C12   C     C_R   0.423836 0.492377 0.690816 0.784489
C13   C     C_2   0.532601 0.942685 0.446690 0.010332
C14   C     C_2   0.415804 0.112001 0.482835 -0.187447
C15   C     C_2   0.534136 0.075750 0.471538 -0.201790
C16   C     C_2   0.935278 0.508193 0.483230 0.143115
C17   C     C_2   0.083663 0.517010 0.507758 0.189937
C18   C     C_R   0.443247 0.253521 0.493006 0.825597
C19   C     C_R   0.578706 0.518598 0.309899 0.841127
C20   C     C_R   0.783444 0.717217 0.080470 -0.083652
C21   C     C_R   0.629667 0.558772 0.204055 -0.089206
C22   C     C_R   0.233645 0.411221 0.835465 -0.237783
C23   C     C_R   0.183637 0.401458 0.939000 -0.034683
C24   C     C_R   0.284349 0.456790 0.010641 -0.109161
Cu1   Cu    Cu3+1 0.362000 0.479240 0.482530 1.044947
Cu2   Cu    Cu3+1 0.638000 0.520760 0.517470 0.976302
H1    H     H_    0.880069 0.802478 0.063899 0.202452
H2    H     H_    0.443163 0.412885 0.150801 0.167160
H3    H     H_    0.157897 0.363168 0.780870 0.193404
H4    H     H_    0.630553 0.693712 0.767911 0.173162
H5    H     H_    0.641658 0.147712 0.478251 0.244470
N1    N     N_2   0.845330 0.551960 0.543750 -0.169291
N2    N     N_2   0.154690 0.448120 0.456210 -0.275402
O1    O     O_R   0.426290 0.668220 0.490680 -0.520347
O2    O     O_R   0.659360 0.703290 0.520190 -0.598290
O3    O     O_R   0.326580 0.473880 0.629020 -0.573392
O4    O     O_R   0.559660 0.508940 0.658530 -0.594441
O5    O     O_R   0.340640 0.296710 0.479810 -0.529378
O6    O     O_R   0.573710 0.331780 0.509320 -0.541137
O7    O     O_R   0.440340 0.491060 0.341470 -0.543709
O8    O     O_R   0.673420 0.526120 0.370980 -0.587559
N3    N     N_3   0.847770 0.745445 0.251629 -0.538388
H6    H     H_    0.785420 0.773446 0.312492 0.240215
H7    H     H_    0.897452 0.688180 0.278304 0.288110
C25   C     C_2   0.493870 0.886412 0.343895 0.914913
O9    O     O_2   0.440671 0.940252 0.292411 -0.537200
O10   O     O_R   0.526483 0.778545 0.302588 -0.802160
H8    H     H_    0.505125 0.758200 0.229664 0.363608
C26   C     C_2   0.261996 0.017167 0.486290 0.910540
O11   O     O_2   0.235830 0.900592 0.469322 -0.597971
O12   O     O_R   0.145798 0.061454 0.511550 -0.736540
H9    H     H_    0.047334 0.988411 0.512039 0.329348
N4    N     N_3   0.654285 0.961110 0.595568 -0.552618
H10   H     H_    0.594093 0.916723 0.662347 0.244935
H11   H     H_    0.757922 0.955859 0.591160 0.250788
N5    N     N_3   0.158782 0.616854 0.577418 -0.482807
H12   H     H_    0.136925 0.701290 0.570196 0.265099
H13   H     H_    0.121687 0.583988 0.651272 0.239668
C27   C     C_2   0.901861 0.458187 0.379500 0.844502
O13   O     O_2   0.981434 0.515572 0.306422 -0.602158
O14   O     O_R   0.788546 0.340200 0.364583 -0.735600
H14   H     H_    0.780463 0.315073 0.290067 0.342277
C28   C     C_2   0.075930 0.315945 0.427424 1.040151
O15   O     O_2   0.126281 0.264444 0.354544 -0.515301
O16   O     O_R   0.946773 0.242751 0.485592 -0.776845
H15   H     H_    0.903883 0.149835 0.457874 0.335416
N6    N     N_3   0.873471 0.581338 0.643862 -0.524545
H16   H     H_    0.850500 0.665623 0.666077 0.249622
H17   H     H_    0.800193 0.505120 0.687869 0.265887
C29   C     C_2   0.851181 0.811492 0.869197 0.828455
O17   O     O_2   0.967717 0.808880 0.886449 -0.580682
O18   O     O_R   0.848715 0.906115 0.806158 -0.745665
H18   H     H_    0.949873 0.968187 0.781291 0.356915
C30   C     C_2   0.228981 0.460887 0.119831 0.922716
O19   O     O_2   0.146078 0.361318 0.161196 -0.528042
O20   O     O_R   0.275794 0.578778 0.175675 -0.721573
H19   H     H_    0.244827 0.567814 0.251185 0.376123
C31   C     C_2   0.024262 0.337925 0.968675 0.899112
O21   O     O_2   0.954831 0.239423 0.922358 -0.568579
O22   O     O_R   0.952231 0.393443 0.046268 -0.715564
H20   H     H_    0.843792 0.341942 0.058201 0.339759

loop_
_geom_bond_atom_site_label_1
_geom_bond_atom_site_label_2
_ccdc_geom_bond_type
C28   O16   S    
Cu2   N1    S    
C22   H3    S    
C14   C18   S    
C1    C11   S    
C4    C8    A    
C9    C21   A    
C5    C20   A    
N4    H10   S    
C10   C22   A    
C9    N3    S    
N3    H7    S    
C19   C21   S    
C3    C7    A    
Cu1   O7    S    
C5    C6    A    
C31   O22   S    
Cu2   O6    S    
C14   C26   S    
N5    H12   S    
C12   O4    A    
C16   C17   S    
C26   O12   S    
C23   C24   A    
C29   O17   D    
C12   O3    A    
C11   N4    S    
Cu1   O1    S    
O18   H18   S    
C25   O10   S    
C27   O13   D    
C7    H4    S    
C17   N2    D    
C1    O1    A    
N4    H11   S    
C27   O14   S    
C30   O19   D    
O12   H9    S    
O20   H19   S    
C31   O21   D    
C4    C5    A    
Cu1   Cu2   S    
C25   O9    D    
N6    H16   S    
N6    H17   S    
C16   C27   S    
C2    C4    A    
C18   O6    A    
Cu1   O5    S    
C9    C20   A    
O10   H8    S    
N2    C28   S    
C8    C21   A    
C17   N5    S    
C10   C12   S    
N1    N6    S    
O16   H15   S    
C13   C15   S    
C2    C24   A    
C8    H2    S    
N3    H6    S    
C30   O20   S    
C1    O2    A    
C6    C29   S    
C22   C23   A    
O22   H20   S    
Cu2   O4    S    
C15   H5    S    
C6    C7    A    
C20   H1    S    
C16   N1    D    
C2    C3    A    
C18   O5    A    
C3    C10   A    
C13   C25   S    
C11   C13   D    
C24   C30   S    
N5    H13   S    
C23   C31   S    
O14   H14   S    
C19   O7    A    
Cu1   O3    S    
C28   O15   D    
Cu2   O2    S    
C26   O11   D    
C14   C15   D    
C29   O18   S    
C19   O8    A    
Cu2   O8    S    
Cu1   N2    S    
