data_mof_unit_30030.cif
_audit_creation_date              2012-10-26T20:43:35-0400
_audit_creation_method            fapswitch 2.2
_symmetry_space_group_name_H-M    P1
_symmetry_Int_Tables_number       1
_space_group_crystal_system       triclinic
_cell_length_a                    10.828513
_cell_length_b                    9.489086
_cell_length_c                    23.517003
_cell_angle_alpha                 90.038865
_cell_angle_beta                  90.004613
_cell_angle_gamma                 89.982972
_cell_volume                      2416.43467464

loop_
_atom_site_label
_atom_site_type_symbol
_atom_type_description
_atom_site_fract_x
_atom_site_fract_y
_atom_site_fract_z
_atom_type_partial_charge
C1    C     C_R   0.261976 0.500043 0.500402 0.588376
C2    C     C_R   0.576404 0.400472 0.701612 0.165026
C3    C     C_R   0.438660 0.396838 0.238329 -0.115306
C4    C     C_R   0.564463 0.388770 0.760057 -0.107668
C5    C     C_R   0.518012 0.485656 0.208420 0.135874
C6    C     C_R   0.503824 0.491192 0.792168 0.128440
C7    C     C_R   0.063878 0.371961 0.500174 -0.091004
C8    C     C_R   0.936086 0.628142 0.499475 -0.115943
C9    C     C_R   0.936168 0.371943 0.499747 -0.091281
C10   C     C_R   0.063808 0.628155 0.499921 -0.115616
C11   C     C_R   0.871804 0.500035 0.499481 0.049398
C12   C     C_R   0.738016 0.500019 0.499535 0.589421
C13   C     C_R   0.128171 0.500067 0.500275 0.049903
C14   C     C_R   0.401243 0.074366 0.479343 0.018910
C15   C     C_R   0.598014 0.925579 0.521381 -0.009956
C16   C     C_R   0.598637 0.074338 0.520716 0.039372
C17   C     C_R   0.401815 0.925562 0.478761 -0.006616
C18   C     C_R   0.499684 0.500269 0.390757 0.628222
C19   C     C_R   0.500290 0.500692 0.609309 0.619186
C20   C     C_R   0.611398 0.454800 0.881564 0.416469
C21   C     C_R   0.409463 0.510298 0.119311 0.418123
C22   C     C_R   0.391252 0.465230 0.881633 0.472177
C23   C     C_R   0.589013 0.588022 0.237803 0.307716
C24   C     C_R   0.612908 0.413983 0.119203 0.468566
C25   C     C_R   0.389744 0.462644 0.941323 -0.004467
C26   C     C_R   0.612911 0.409273 0.059600 0.001949
C27   C     C_R   0.501585 0.442369 0.970567 -0.078971
C28   C     C_R   0.503515 0.443303 0.030396 -0.081280
C29   C     C_R   0.612203 0.424496 0.940075 0.030390
C30   C     C_R   0.396671 0.481103 0.060915 0.024948
C31   C     C_R   0.280121 0.481443 0.972277 -0.078606
C32   C     C_R   0.719016 0.372405 0.028722 -0.078320
C33   C     C_R   0.282092 0.489793 0.031764 0.270932
C34   C     C_R   0.449746 0.609129 0.764489 0.327465
C35   C     C_R   0.719808 0.379305 0.969252 0.270141
C36   C     C_3   0.136578 0.385891 0.089621 0.055751
C37   C     C_3   0.087600 0.270947 0.049708 -0.320227
C38   C     C_3   0.036467 0.146792 0.083680 -0.452093
C39   C     C_3   0.812182 0.211903 0.912709 0.042501
C40   C     C_3   0.867260 0.093046 0.948494 -0.307613
C41   C     C_3   0.850065 0.950017 0.919843 -0.425358
C42   C     C_3   0.608354 0.820376 0.333262 0.058939
C43   C     C_3   0.701443 0.911445 0.365667 -0.252203
C44   C     C_3   0.662810 0.065890 0.367404 -0.462232
C45   C     C_R   0.578359 0.596443 0.298056 0.188796
C46   C     C_3   0.390882 0.823525 0.660697 0.065198
C47   C     C_3   0.284874 0.928776 0.668857 -0.235184
C48   C     C_3   0.324216 0.079516 0.655415 -0.447477
C49   C     C_R   0.442312 0.609305 0.703913 0.195047
C50   C     C_R   0.500094 0.501232 0.327809 -0.043157
C51   C     C_R   0.506514 0.503429 0.672270 -0.046357
C52   C     C_R   0.424944 0.406505 0.296881 0.153361
Cu1   Cu    Cu3+1 0.500000 0.640660 0.500000 0.959166
Cu2   Cu    Cu3+1 0.500000 0.359340 0.500000 1.041267
H1    H     H_    0.192538 0.493215 0.950503 0.192950
H2    H     H_    0.676338 0.869885 0.538873 0.125647
H3    H     H_    0.678029 0.129955 0.537138 0.179850
H4    H     H_    0.323564 0.869843 0.461208 0.130514
H5    H     H_    0.061859 0.415444 0.119744 0.216148
H6    H     H_    0.212956 0.342277 0.115924 0.142901
H7    H     H_    0.013989 0.315364 0.022228 0.209314
H8    H     H_    0.163452 0.232156 0.021994 0.161545
H9    H     H_    0.108111 0.104812 0.112943 0.186427
H10   H     H_    0.008399 0.060802 0.054475 0.165194
H11   H     H_    0.954702 0.180252 0.108819 0.188145
H12   H     H_    0.802686 0.341902 0.050630 0.159690
H13   H     H_    0.863216 0.217127 0.871777 0.208061
H14   H     H_    0.714426 0.186268 0.901644 0.127163
H15   H     H_    0.967562 0.112579 0.954390 0.176036
H16   H     H_    0.821786 0.090929 0.990839 0.172798
H17   H     H_    0.750248 0.926509 0.914413 0.190219
H18   H     H_    0.891939 0.866459 0.946685 0.187352
H19   H     H_    0.895943 0.948961 0.877593 0.175763
H20   H     H_    0.827479 0.859127 0.223106 0.365214
H21   H     H_    0.210343 0.836858 0.823978 0.359892
H22   H     H_    0.518766 0.821194 0.356287 0.147575
H23   H     H_    0.383228 0.321954 0.214670 0.167836
H24   H     H_    0.592317 0.868009 0.290865 0.185954
H25   H     H_    0.710800 0.871183 0.409819 0.173734
H26   H     H_    0.793285 0.903935 0.344807 0.218349
H27   H     H_    0.654308 0.108884 0.323651 0.173559
H28   H     H_    0.733106 0.128135 0.390896 0.159621
H29   H     H_    0.573369 0.076659 0.389660 0.201172
H30   H     H_    0.411315 0.824300 0.614683 0.170524
H31   H     H_    0.476314 0.859157 0.682630 0.161006
H32   H     H_    0.207372 0.899041 0.640238 0.165940
H33   H     H_    0.250031 0.924739 0.713144 0.245194
H34   H     H_    0.608264 0.301257 0.781713 0.183271
H35   H     H_    0.391525 0.117021 0.687623 0.199018
H36   H     H_    0.242332 0.149892 0.656769 0.168316
H37   H     H_    0.365875 0.085718 0.612329 0.177548
H38   H     H_    0.391507 0.102558 0.314713 0.335031
H39   H     H_    0.618799 0.076102 0.679209 0.346539
H40   H     H_    0.111972 0.271844 0.500380 0.129901
H41   H     H_    0.887983 0.728261 0.499189 0.121046
H42   H     H_    0.888127 0.271819 0.499726 0.128583
H43   H     H_    0.111847 0.728277 0.499960 0.123785
H44   H     H_    0.322171 0.130031 0.462611 0.178730
N1    N     N_R   0.501688 0.472923 0.853155 -0.375152
N2    N     N_R   0.516061 0.475049 0.147416 -0.375583
N3    N     N_R   0.500000 0.852070 0.500000 -0.253913
N4    N     N_R   0.500000 0.147930 0.500000 -0.244310
O1    O     O_R   0.319640 0.618740 0.500000 -0.522881
O2    O     O_2   0.316808 0.573876 0.147876 -0.424023
O3    O     O_2   0.283952 0.465314 0.852494 -0.428622
O4    O     O_2   0.709936 0.362359 0.148596 -0.462821
O5    O     O_3   0.170771 0.509803 0.059741 -0.512603
O6    O     O_3   0.827310 0.343322 0.940749 -0.532273
O7    O     O_2   0.740181 0.651721 0.147494 -0.223956
O8    O     O_2   0.602487 0.834222 0.183183 -0.305893
O9    O     O_3   0.798593 0.771356 0.241596 -0.477764
O10   O     O_2   0.431753 0.749879 0.865850 -0.268365
O11   O     O_2   0.438728 0.891827 0.780807 -0.340060
O12   O     O_R   0.680360 0.381260 0.500000 -0.504476
O13   O     O_3   0.236848 0.753734 0.801583 -0.459259
O14   O     O_3   0.657400 0.682413 0.328823 -0.511763
O15   O     O_3   0.349999 0.687669 0.677391 -0.528267
O16   O     O_2   0.249550 0.381221 0.377741 -0.254943
O17   O     O_2   0.205049 0.277645 0.285078 -0.257548
O18   O     O_3   0.362233 0.149643 0.349824 -0.550000
O19   O     O_2   0.746909 0.361501 0.619391 -0.259881
O20   O     O_2   0.785783 0.249883 0.710886 -0.266937
O21   O     O_3   0.617447 0.140673 0.646147 -0.562016
O22   O     O_R   0.680360 0.618740 0.500000 -0.521430
O23   O     O_R   0.319640 0.381260 0.500000 -0.504910
O24   O     O_R   0.499960 0.618810 0.417880 -0.492921
O25   O     O_R   0.500040 0.381190 0.582120 -0.437961
O26   O     O_R   0.500040 0.618810 0.582120 -0.512179
O27   O     O_R   0.499960 0.381190 0.417880 -0.453748
O28   O     O_2   0.719308 0.469246 0.853478 -0.428084
S1    S     S_3+6 0.682984 0.712223 0.200194 0.064159
S2    S     S_3+6 0.391964 0.755321 0.804698 0.053439
S3    S     S_3+6 0.305175 0.304949 0.328005 0.023279
S4    S     S_3+6 0.686820 0.288654 0.668803 0.016516

loop_
_geom_bond_atom_site_label_1
_geom_bond_atom_site_label_2
_ccdc_geom_bond_type
C25   C31   A    
C26   C32   A    
C23   C45   A    
O11   S2    D    
C27   C29   A    
C39   H14   S    
C33   O5    S    
C36   H5    S    
C42   H22   S    
C37   H8    S    
Cu1   Cu2   S    
C2    S4    S    
C40   H16   S    
C20   C29   A    
C36   C37   S    
C1    O23   A    
C44   H28   S    
C14   N4    A    
C43   H25   S    
C15   C16   A    
C19   O26   A    
O18   S3    S    
Cu2   O27   S    
C17   N3    A    
O20   S4    D    
C35   O6    S    
C21   O2    S    
C49   O15   S    
Cu1   N3    S    
C49   C51   A    
C22   C25   A    
C12   O22   A    
O7    S1    D    
C50   C52   A    
C5    N2    S    
O19   S4    D    
C1    O1    A    
C12   O12   A    
C17   H4    S    
C41   H17   S    
C46   H31   S    
C44   H29   S    
C34   S2    S    
C10   C13   A    
C48   H36   S    
C36   O5    S    
C52   S3    S    
C14   C17   A    
C8    H41   S    
C14   H44   S    
C38   H10   S    
O13   S2    S    
C39   O6    S    
Cu2   O23   S    
C40   H15   S    
O21   S4    S    
C47   H32   S    
C4    C6    A    
C44   H27   S    
C2    C51   A    
H20   O9    S    
C21   N2    A    
C36   H6    S    
C43   H26   S    
C48   H37   S    
C15   N3    A    
C6    C34   A    
C46   O15   S    
C47   H33   S    
C10   H43   S    
C2    C4    A    
C43   C44   S    
C32   C35   A    
C37   C38   S    
Cu1   O26   S    
C47   C48   S    
C5    C23   A    
C38   H11   S    
C3    C52   A    
C31   C33   A    
C23   S1    S    
O8    S1    D    
O17   S3    D    
O10   S2    D    
C9    C11   A    
C9    H42   S    
O16   S3    D    
C41   H18   S    
C46   H30   S    
O9    S1    S    
C40   C41   S    
C42   H24   S    
C48   H35   S    
C24   O4    S    
C42   C43   S    
C3    H23   S    
C39   C40   S    
C18   C50   S    
C32   H12   S    
C38   H9    S    
Cu2   O25   S    
C42   O14   S    
C7    C9    A    
C7    H40   S    
C46   C47   S    
C34   C49   A    
C22   N1    A    
C30   C33   A    
C24   N2    A    
C39   H13   S    
Cu2   N4    S    
H39   O21   S    
C20   O28   S    
C3    C5    A    
Cu1   O22   S    
C37   H7    S    
C11   C12   S    
C4    H34   S    
C25   C27   A    
C22   O3    S    
C21   C30   A    
C29   C35   A    
C26   C28   A    
C6    N1    S    
C28   C30   A    
H38   O18   S    
C16   N4    A    
C24   C26   A    
C45   O14   S    
C20   N1    A    
C45   C50   A    
Cu1   O1    S    
C8    C11   A    
Cu2   O12   S    
C19   O25   A    
C16   H3    S    
C15   H2    S    
Cu1   O24   S    
C41   H19   S    
C19   C51   S    
C1    C13   S    
C7    C13   A    
H21   O13   S    
C8    C10   A    
C27   C28   A    
C18   O27   A    
C31   H1    S    
C18   O24   A    
