data_mof_unit_22455.cif
_audit_creation_date              2012-12-11T16:05:05-0500
_audit_creation_method            fapswitch 2.2
_symmetry_space_group_name_H-M    P1
_symmetry_Int_Tables_number       1
_space_group_crystal_system       triclinic
_cell_length_a                    10.654029
_cell_length_b                    10.642995
_cell_length_c                    16.930284
_cell_angle_alpha                 98.634809
_cell_angle_beta                  98.403396
_cell_angle_gamma                 61.6551
_cell_volume                      1664.22791799

loop_
_atom_site_label
_atom_site_type_symbol
_atom_type_description
_atom_site_fract_x
_atom_site_fract_y
_atom_site_fract_z
_atom_type_partial_charge
C1    C     C_R   0.354950 0.775552 0.399245 0.544652
C2    C     C_3   0.434551 0.877493 0.289123 -0.089632
C3    C     C_3   0.339319 0.831765 0.324268 0.045872
C4    C     C_R   0.372136 0.347779 0.358372 0.548169
C5    C     C_3   0.203803 0.958906 0.295337 -0.144686
C6    C     C_3   0.197754 0.865729 0.217138 -0.098048
C7    C     C_3   0.334494 0.737722 0.246903 -0.117524
C8    C     C_3   0.427850 0.785070 0.210154 -0.101314
C9    C     C_3   0.291208 0.913153 0.180997 0.038541
C10   C     C_3   0.482836 0.284993 0.794035 -0.117789
C11   C     C_3   0.427016 0.430619 0.759477 -0.149955
C12   C     C_3   0.709159 0.467164 0.264074 -0.105537
C13   C     C_3   0.378933 0.367337 0.680708 0.046711
C14   C     C_3   0.434872 0.222553 0.714434 -0.098642
C15   C     C_3   0.285918 0.275168 0.742916 -0.108306
C16   C     C_R   0.775463 0.376976 0.401243 0.549437
C17   C     C_3   0.229882 0.420484 0.708712 -0.102610
C18   C     C_3   0.277361 0.482808 0.789219 -0.122445
C19   C     C_3   0.334155 0.337291 0.822097 0.052558
C20   C     C_1   0.816858 0.341975 0.709683 -0.043779
C21   C     C_1   0.843485 0.314984 0.778151 -0.044737
C22   C     C_1   0.338057 0.812051 0.709723 -0.045596
C23   C     C_3   0.809338 0.350099 0.319291 0.018277
C24   C     C_1   0.313548 0.839095 0.778570 -0.046870
C25   C     C_R   0.886487 0.314093 0.088765 0.540559
C26   C     C_R   0.319697 0.300452 0.119850 0.529709
C27   C     C_R   0.258555 0.955740 0.099530 0.549436
C28   C     C_R   0.356482 0.771466 0.627198 0.536468
C29   C     C_R   0.884794 0.299445 0.860928 0.540001
C30   C     C_R   0.311159 0.297098 0.894702 0.537999
C31   C     C_R   0.280386 0.884347 0.859103 0.551538
C32   C     C_R   0.408446 0.377833 0.601271 0.558933
C33   C     C_R   0.773646 0.379761 0.629708 0.538062
C34   C     C_3   0.801924 0.233954 0.255795 -0.123124
C35   C     C_1   0.346683 0.338588 0.274558 -0.028038
C36   C     C_1   0.333988 0.328785 0.203345 -0.014093
C37   C     C_3   0.704179 0.350277 0.198719 -0.177969
C38   C     C_3   0.935141 0.222896 0.223710 -0.180093
C39   C     C_3   0.941631 0.339069 0.288588 -0.120692
C40   C     C_3   0.842765 0.454253 0.232708 0.303635
C41   C     C_3   0.837513 0.338932 0.167804 0.029552
C42   C     C_3   0.296973 0.006977 0.258256 -0.150398
Cr1   Cr    Cr6+3 0.608340 0.611040 0.520430 1.040863
Cr2   Cr    Cr6+3 0.287650 0.601120 0.489350 1.056356
Cr3   Cr    Cr6+3 0.604040 0.287870 0.490280 1.021759
Cr4   Cr    Cr6+3 0.054020 0.052700 0.970850 1.024551
Cr5   Cr    Cr6+3 0.059230 0.375120 0.993390 1.088149
Cr6   Cr    Cr6+3 0.374950 0.061200 0.992340 1.053738
H1    H     H_    0.618857 0.566879 0.286811 0.137735
H2    H     H_    0.213236 0.588552 0.821848 0.138855
H3    H     H_    0.606968 0.357363 0.161079 0.123111
H4    H     H_    0.789101 0.141093 0.267727 0.147673
H5    H     H_    0.021487 0.125635 0.197772 0.136021
H6    H     H_    0.039028 0.332118 0.326004 0.128935
H7    H     H_    0.531230 0.881874 0.321034 0.175125
H8    H     H_    0.278692 0.118809 0.260957 0.109836
H9    H     H_    0.114591 0.027358 0.333516 0.125257
H10   H     H_    0.826686 0.802953 0.302295 0.358624
H11   H     H_    0.100126 0.860399 0.187335 0.160522
H12   H     H_    0.350637 0.626098 0.243886 0.122137
H13   H     H_    0.516474 0.714333 0.172224 0.174388
H14   H     H_    0.485845 0.494357 0.764112 0.107051
H15   H     H_    0.586033 0.230236 0.830621 0.132183
H16   H     H_    0.499105 0.115118 0.683431 0.143008
H17   H     H_    0.227181 0.211098 0.737479 0.114442
H18   H     H_    0.126601 0.475291 0.672229 0.142495
O1    O     O_R   0.751220 0.499230 0.435170 -0.488323
O2    O     O_R   0.412990 0.180750 0.091610 -0.521435
O3    O     O_R   0.366620 0.943130 0.065760 -0.476231
O4    O     O_R   0.477220 0.727600 0.436870 -0.503736
O5    O     O_R   0.160510 0.906330 0.879210 -0.507623
O6    O     O_R   0.930190 0.179050 0.889450 -0.500529
O7    O     O_R   0.909140 0.398170 0.896710 -0.503548
O8    O     O_R   0.186190 0.363460 0.918830 -0.502125
O9    O     O_R   0.401670 0.173200 0.913310 -0.516347
O10   O     O_R   0.356120 0.936130 0.900470 -0.486428
O11   O     O_3   0.162740 0.163010 0.985530 -0.292090
O12   O     O_R   0.297880 0.469080 0.560050 -0.498801
O13   O     O_R   0.258650 0.745120 0.411470 -0.501076
O14   O     O_R   0.297070 0.467240 0.395960 -0.470640
O15   O     O_R   0.488830 0.252610 0.387790 -0.515353
O16   O     O_R   0.724400 0.302390 0.420980 -0.507440
O17   O     O_R   0.752100 0.501210 0.612190 -0.506007
O18   O     O_R   0.478040 0.729440 0.600970 -0.499462
O19   O     O_R   0.259530 0.747110 0.588490 -0.513877
O20   O     O_2   0.014779 0.565914 0.212511 -0.275953
O21   O     O_2   0.765065 0.689325 0.156594 -0.297510
O22   O     O_3   0.819707 0.716724 0.311322 -0.542662
O23   O     O_R   0.489720 0.254590 0.564810 -0.515436
O24   O     O_R   0.725220 0.304230 0.585080 -0.512761
O25   O     O_3   0.500010 0.500010 0.500020 -0.291699
O26   O     O_R   0.171830 0.913880 0.057510 -0.517494
O27   O     O_R   0.940690 0.186050 0.054730 -0.528587
O28   O     O_R   0.920470 0.405720 0.075010 -0.442184
O29   O     O_R   0.196690 0.370460 0.084120 -0.461532
S1    S     S_3+6 0.862413 0.609777 0.225366 0.005843

loop_
_geom_bond_atom_site_label_1
_geom_bond_atom_site_label_2
_ccdc_geom_bond_type
C5    C42   S    
O22   S1    S    
C11   C18   S    
C25   O27   A    
C28   O18   A    
C34   C37   S    
Cr1   O17   S    
Cr6   O10   S    
C13   C32   S    
Cr3   O16   S    
Cr6   O3    S    
C11   H14   S    
C6    C9    S    
C12   H1    S    
C7    C8    S    
C15   C19   S    
Cr4   O27   S    
C12   C23   S    
C9    C27   S    
C9    C42   S    
C4    O14   A    
C3    C7    S    
C2    H7    S    
C38   C39   S    
C30   O8    A    
C23   C39   S    
C39   H6    S    
Cr4   O26   S    
C15   H17   S    
C18   C19   S    
C12   C37   S    
C42   H8    S    
C4    O15   A    
C10   H15   S    
C8    C9    S    
Cr3   O23   S    
Cr4   O6    S    
C27   O3    A    
C8    H13   S    
C29   O6    A    
C31   O5    A    
C4    C35   S    
C25   O28   A    
C22   C28   S    
C13   C14   S    
Cr1   O18   S    
Cr6   O9    S    
C40   S1    S    
C2    C8    S    
Cr2   O14   S    
Cr5   O7    S    
C38   C41   S    
C10   C14   S    
C25   C41   S    
C39   C40   S    
C21   C29   S    
Cr1   O25   S    
C1    C3    S    
C35   C36   T    
Cr6   O11   S    
C12   C40   S    
C32   O23   A    
C10   C19   S    
C23   C34   S    
C14   H16   S    
O21   S1    D    
C16   O16   A    
C17   C18   S    
C17   H18   S    
C27   O26   A    
C16   O1    A    
Cr6   O2    S    
Cr3   O24   S    
C33   O17   A    
Cr4   O5    S    
Cr2   O25   S    
O20   S1    D    
C20   C33   S    
C26   C36   S    
C40   C41   S    
Cr1   O4    S    
C1    O13   A    
C22   C24   T    
Cr5   O11   S    
Cr2   O19   S    
C7    H12   S    
C18   H2    S    
C26   O29   A    
C15   C17   S    
C34   C38   S    
C6    H11   S    
Cr2   O13   S    
Cr3   O15   S    
Cr5   O8    S    
C3    C5    S    
H10   O22   S    
Cr4   O11   S    
C6    C7    S    
C5    H9    S    
C16   C23   S    
C34   H4    S    
C1    O4    A    
C13   C17   S    
C26   O2    A    
Cr2   O12   S    
C2    C3    S    
C24   C31   S    
C33   O24   A    
C30   O9    A    
C11   C13   S    
C31   O10   A    
C5    C6    S    
C38   H5    S    
C2    C42   S    
C37   H3    S    
Cr5   O28   S    
C37   C41   S    
Cr3   O25   S    
C10   C11   S    
C32   O12   A    
C29   O7    A    
C20   C21   T    
Cr1   O1    S    
C28   O19   A    
Cr5   O29   S    
C14   C15   S    
C19   C30   S    
