data_mof_unit_6176.cif
_audit_creation_date              2012-12-10T16:52:02-0500
_audit_creation_method            fapswitch 2.2
_symmetry_space_group_name_H-M    P1
_symmetry_Int_Tables_number       1
_space_group_crystal_system       triclinic
_cell_length_a                    7.837216
_cell_length_b                    8.676973
_cell_length_c                    14.989642
_cell_angle_alpha                 93.635007
_cell_angle_beta                  85.975174
_cell_angle_gamma                 93.825631
_cell_volume                      1012.79850778

loop_
_atom_site_label
_atom_site_type_symbol
_atom_type_description
_atom_site_fract_x
_atom_site_fract_y
_atom_site_fract_z
_atom_type_partial_charge
Br1   Br    Br    0.839514 0.905220 0.093950 -0.408037
Br2   Br    Br    0.160488 0.094779 0.906050 -0.408037
Br3   Br    Br    0.780630 0.031549 0.558850 -0.244587
Br4   Br    Br    0.219370 0.968451 0.441150 -0.244586
C1    C     C_R   0.544767 0.794076 0.497542 0.937125
C2    C     C_R   0.572696 0.631377 0.816109 -0.207456
C3    C     C_R   0.496785 0.498207 0.232214 -0.140256
C4    C     C_R   0.503215 0.501793 0.767786 -0.140257
C5    C     C_R   0.579308 0.625429 0.190075 -0.052624
C6    C     C_R   0.420693 0.374570 0.809925 -0.052624
C7    C     C_R   0.591469 0.624252 0.095650 -0.010787
C8    C     C_R   0.408533 0.375747 0.904350 -0.010786
C9    C     C_R   0.501745 0.500541 0.046971 0.064989
C10   C     C_R   0.498257 0.499457 0.953029 0.064989
C11   C     C_R   0.416073 0.376614 0.091899 0.002722
C12   C     C_R   0.455233 0.205924 0.502458 0.937122
C13   C     C_R   0.583929 0.623384 0.908101 0.002721
C14   C     C_R   0.687654 0.739950 0.047122 0.272258
C15   C     C_R   0.312348 0.260048 0.952877 0.272258
C16   C     C_2   0.381556 0.219798 0.227675 0.957890
C17   C     C_2   0.618443 0.780202 0.772325 0.957892
C18   C     C_2   0.646589 0.756897 0.248264 0.958625
C19   C     C_2   0.353412 0.243103 0.751735 0.958625
C20   C     C_2   0.999697 0.452411 0.382986 1.164366
C21   C     C_2   0.000302 0.547590 0.617013 1.164365
C22   C     C_R   0.683074 0.736575 0.955214 -0.231898
C23   C     C_R   0.316929 0.263423 0.044786 -0.231898
C24   C     C_2   0.566554 0.956931 0.507386 0.056319
C25   C     C_2   0.433446 0.043069 0.492614 0.056319
C26   C     C_R   0.502157 0.503736 0.672356 0.892272
C27   C     C_R   0.497843 0.496264 0.327644 0.892271
C28   C     C_R   0.427304 0.368623 0.183891 -0.207456
H1    H     H_    0.761347 0.824052 0.920102 0.218114
H2    H     H_    0.238656 0.175946 0.079898 0.218115
H3    H     H_    0.520523 0.093086 0.134565 0.329808
H4    H     H_    0.479479 0.906913 0.865437 0.329808
H5    H     H_    0.843756 0.852694 0.316413 0.387560
H6    H     H_    0.156244 0.147306 0.683586 0.387559
H7    H     H_    0.993456 0.327562 0.265095 0.346676
H8    H     H_    0.006541 0.672440 0.734904 0.346675
N1    N     N_2   0.950330 0.457950 0.475660 -0.199034
N2    N     N_2   0.049670 0.542050 0.524340 -0.199034
O1    O     O_R   0.389250 0.738570 0.505970 -0.592827
O2    O     O_R   0.436868 0.079796 0.188559 -0.686747
O3    O     O_2   0.704717 0.781489 0.701578 -0.533800
O4    O     O_R   0.563133 0.920204 0.811442 -0.686746
O5    O     O_2   0.550639 0.854873 0.279198 -0.551860
O6    O     O_R   0.814841 0.760465 0.273949 -0.701989
O7    O     O_2   0.449359 0.145124 0.720802 -0.551859
O8    O     O_R   0.185159 0.239536 0.726050 -0.701989
O9    O     O_2   0.047954 0.571238 0.346432 -0.554422
O10   O     O_R   0.967481 0.315039 0.331574 -0.740509
O11   O     O_2   0.952047 0.428764 0.653568 -0.554422
O12   O     O_R   0.610750 0.261430 0.494030 -0.592827
O13   O     O_R   0.032516 0.684963 0.668425 -0.740509
O14   O     O_R   0.678390 0.711620 0.490370 -0.600118
O15   O     O_R   0.321610 0.288380 0.509630 -0.600119
O16   O     O_R   0.355420 0.513510 0.639950 -0.635978
O17   O     O_R   0.644580 0.486490 0.360050 -0.635979
O18   O     O_R   0.644560 0.486560 0.624350 -0.581913
O19   O     O_R   0.355440 0.513440 0.375650 -0.581912
O20   O     O_2   0.295279 0.218512 0.298421 -0.533799
Zn1   Zn    Zn3+2 0.306940 0.517990 0.510420 1.086117
Zn2   Zn    Zn3+2 0.693060 0.482010 0.489580 1.086117

loop_
_geom_bond_atom_site_label_1
_geom_bond_atom_site_label_2
_ccdc_geom_bond_type
C21   N2    S    
C20   O10   S    
C18   O6    S    
O14   Zn2   S    
C7    C14   A    
H4    O4    S    
H6    O8    S    
C6    C19   S    
C1    C24   S    
C15   C23   A    
N1    N2    D    
C27   O19   A    
C22   H1    S    
C11   C23   A    
Br4   C25   S    
C14   C22   A    
O18   Zn2   S    
H8    O13   S    
C4    C26   S    
C20   O9    D    
H7    O10   S    
O17   Zn2   S    
O1    Zn1   S    
C11   C28   A    
C9    C10   A    
H5    O6    S    
H3    O2    S    
C5    C7    A    
C10   C13   A    
C12   C25   S    
Br1   C14   S    
C20   N1    S    
C1    O1    A    
C13   C22   A    
C26   O16   A    
C8    C15   A    
C24   C25   D    
C16   O2    S    
C21   O11   D    
C18   O5    D    
C17   O3    D    
C12   O15   A    
C9    C11   A    
C23   H2    S    
C16   O20   D    
C6    C8    A    
C12   O12   A    
C5    C18   S    
C19   O7    D    
C3    C27   S    
C3    C5    A    
C7    C9    A    
O12   Zn2   S    
C4    C6    A    
C17   O4    S    
C16   C28   S    
C27   O17   A    
O16   Zn1   S    
O19   Zn1   S    
C2    C13   A    
Br3   C24   S    
C19   O8    S    
C2    C4    A    
C3    C28   A    
C1    O14   A    
N1    Zn2   S    
Br2   C15   S    
C2    C17   S    
N2    Zn1   S    
C21   O13   S    
O15   Zn1   S    
C8    C10   A    
C26   O18   A    
