data_mof_unit_37786.cif
_audit_creation_date              2012-12-10T17:58:21-0500
_audit_creation_method            fapswitch 2.2
_symmetry_space_group_name_H-M    P1
_symmetry_Int_Tables_number       1
_space_group_crystal_system       triclinic
_cell_length_a                    9.521262
_cell_length_b                    10.833893
_cell_length_c                    15.477528
_cell_angle_alpha                 89.879769
_cell_angle_beta                  74.47389
_cell_angle_gamma                 90.010583
_cell_volume                      1538.27914506

loop_
_atom_site_label
_atom_site_type_symbol
_atom_type_description
_atom_site_fract_x
_atom_site_fract_y
_atom_site_fract_z
_atom_type_partial_charge
C1    C     C_R   0.999925 0.262077 0.500076 0.792738
C2    C     C_R   0.000066 0.737924 0.499945 0.794310
C3    C     C_R   0.568635 0.410653 0.087254 -0.285876
C4    C     C_R   0.417383 0.529524 0.905099 -0.288488
C5    C     C_R   0.713297 0.389068 0.042248 0.674331
C6    C     C_R   0.272140 0.548851 0.949724 0.675469
C7    C     C_R   0.872231 0.063817 0.500289 -0.167164
C8    C     C_R   0.127738 0.936189 0.499784 -0.167659
C9    C     C_R   0.872301 0.936115 0.500184 -0.172542
C10   C     C_R   0.127668 0.063892 0.499889 -0.172895
C11   C     C_R   0.000048 0.871780 0.499949 -0.020730
C12   C     C_R   0.999928 0.128225 0.500109 -0.020330
C13   C     C_R   0.548601 0.427995 0.559005 -0.016521
C14   C     C_R   0.451392 0.572025 0.441012 -0.016498
C15   C     C_R   0.399787 0.428103 0.559027 -0.011416
C16   C     C_R   0.600206 0.571911 0.440986 -0.014180
C17   C     C_R   0.918286 0.497765 0.672114 0.839516
C18   C     C_R   0.081710 0.500897 0.327792 0.843006
C19   C     C_R   0.872872 0.482104 0.769730 -0.153608
C20   C     C_R   0.126285 0.505439 0.229438 -0.154766
C21   C     C_R   0.913900 0.399266 0.905982 0.760991
C22   C     C_R   0.075870 0.554116 0.088238 0.746190
C23   C     C_R   0.965911 0.429175 0.815484 -0.213238
C24   C     C_R   0.028141 0.539758 0.180881 -0.236410
C25   C     C_R   0.728696 0.508110 0.815448 -0.199550
C26   C     C_R   0.271323 0.480784 0.184361 -0.206307
C27   C     C_R   0.670611 0.473847 0.905650 -0.029885
C28   C     C_R   0.322123 0.490022 0.090493 -0.026808
C29   C     C_R   0.766582 0.420866 0.951792 -0.097266
C30   C     C_R   0.222735 0.530872 0.042373 -0.094617
C31   C     C_R   0.520112 0.490497 0.950730 0.019543
C32   C     C_R   0.470020 0.464171 0.043937 0.022151
Cu1   Cu    Cu3+1 0.140660 0.500020 0.500000 0.956949
Cu2   Cu    Cu3+1 0.859340 0.499980 0.500000 0.955853
H1    H     H_    0.343721 0.458580 0.224819 0.167114
H2    H     H_    0.664318 0.555381 0.778269 0.165603
H3    H     H_    0.915465 0.559839 0.214899 0.178212
H4    H     H_    0.077788 0.407502 0.780637 0.177912
H5    H     H_    0.536601 0.379952 0.155927 0.166855
H6    H     H_    0.444317 0.543192 0.833661 0.163451
H7    H     H_    0.772339 0.111811 0.500501 0.153917
H8    H     H_    0.227631 0.888196 0.499572 0.153865
H9    H     H_    0.772465 0.888064 0.500301 0.153164
H10   H     H_    0.227503 0.111943 0.499773 0.153115
H11   H     H_    0.583983 0.370080 0.606179 0.124676
H12   H     H_    0.416000 0.629965 0.393857 0.124917
H13   H     H_    0.323066 0.370418 0.606244 0.120233
H14   H     H_    0.676923 0.629610 0.393781 0.121050
N1    N     N_R   0.352080 0.500030 0.499980 -0.161202
N2    N     N_R   0.647920 0.499970 0.500020 -0.161035
O1    O     O_R   0.118740 0.319660 0.500000 -0.590964
O2    O     O_R   0.881260 0.680340 0.500000 -0.590130
O3    O     O_R   0.881170 0.319630 0.500010 -0.585390
O4    O     O_R   0.118830 0.680370 0.499990 -0.585147
O5    O     O_R   0.055570 0.500030 0.629830 -0.574162
O6    O     O_R   0.944430 0.499970 0.370170 -0.577281
O7    O     O_R   0.818000 0.500000 0.629840 -0.589800
O8    O     O_R   0.182000 0.500000 0.370160 -0.590259
F1    F     F_    0.800818 0.336617 0.088434 -0.605757
F2    F     F_    0.180847 0.587712 0.901223 -0.615023
F3    F     F_    0.007304 0.345798 0.947496 -0.602942
F4    F     F_    0.978430 0.593706 0.044328 -0.609285

loop_
_geom_bond_atom_site_label_1
_geom_bond_atom_site_label_2
_ccdc_geom_bond_type
Cu1   O5    S    
Cu2   O7    S    
C19   C23   A    
Cu2   O6    S    
Cu1   O8    S    
C18   O6    A    
C22   F4    S    
C23   H4    S    
C9    C11   A    
C17   O5    A    
C21   F3    S    
C31   C32   A    
C13   C15   A    
C15   H13   S    
C3    C5    A    
C16   H14   S    
C28   C30   A    
Cu1   Cu2   S    
C10   H10   S    
C3    H5    S    
C14   H12   S    
C20   C24   A    
C13   H11   S    
C1    O1    A    
C7    C12   A    
C1    C12   S    
C2    O2    A    
C8    C11   A    
C2    C11   S    
C10   C12   A    
C22   C24   A    
C4    C6    A    
C26   C28   A    
C17   C19   S    
C8    H8    S    
C24   H3    S    
C18   C20   S    
C15   N1    A    
C21   C23   A    
C3    C32   A    
C19   C25   A    
C14   C16   A    
C9    H9    S    
C4    C31   A    
Cu2   N2    S    
C5    F1    S    
C25   H2    S    
Cu1   N1    S    
C13   N2    A    
C14   N1    A    
C5    C29   A    
C6    F2    S    
C26   H1    S    
C28   C32   A    
C27   C29   A    
C27   C31   A    
Cu2   O3    S    
C8    C10   A    
C2    O4    A    
C17   O7    A    
Cu1   O4    S    
C7    C9    A    
C1    O3    A    
Cu2   O2    S    
C22   C30   A    
C6    C30   A    
C21   C29   A    
C18   O8    A    
Cu1   O1    S    
C4    H6    S    
C7    H7    S    
C16   N2    A    
C20   C26   A    
C25   C27   A    
