data_mof_unit_61143.cif
_audit_creation_date              2013-03-05T15:47:25-0500
_audit_creation_method            fapswitch 2.2
_symmetry_space_group_name_H-M    P1
_symmetry_Int_Tables_number       1
_space_group_crystal_system       triclinic
_cell_length_a                    10.194313
_cell_length_b                    10.558288
_cell_length_c                    14.149616
_cell_angle_alpha                 90.441439
_cell_angle_beta                  82.319114
_cell_angle_gamma                 94.038762
_cell_volume                      1505.57180668

loop_
_atom_site_label
_atom_site_type_symbol
_atom_site_description
_atom_site_fract_x
_atom_site_fract_y
_atom_site_fract_z
_atom_type_partial_charge
O1    O     O_R   0.431050 0.692470 0.507130 -0.586290
O2    O     O_R   0.568950 0.307530 0.492870 -0.591823
O3    O     O_R   0.651120 0.659650 0.484400 -0.559459
O4    O     O_R   0.348880 0.340350 0.515600 -0.551375
C1    C     C_R   0.554043 0.734086 0.499443 0.947225
C2    C     C_R   0.446126 0.265976 0.510496 0.958635
O5    O     O_R   0.389940 0.516410 0.637650 -0.588924
O6    O     O_R   0.610060 0.483590 0.362350 -0.604386
O7    O     O_R   0.610010 0.483590 0.614920 -0.535550
O8    O     O_R   0.389990 0.516410 0.385080 -0.556871
C3    C     C_R   0.500481 0.500135 0.670717 0.964370
C4    C     C_R   0.499509 0.499923 0.329295 0.869972
Zn1   Zn    Zn3+2 0.353060 0.521920 0.515180 1.078775
Zn2   Zn    Zn3+2 0.646940 0.478080 0.484820 1.071673
H1    H     H_    0.119394 0.604378 0.592627 0.212450
H2    H     H_    0.875327 0.370675 0.426948 0.200237
C5    C     C_1   0.501308 0.500105 0.772129 -0.030082
C6    C     C_1   0.498630 0.500062 0.227901 -0.119470
C7    C     C_1   0.501156 0.500116 0.857389 0.064694
C8    C     C_1   0.498715 0.500114 0.142637 0.042284
C9    C     C_1   0.500337 0.500132 0.957345 0.063323
C10   C     C_1   0.499486 0.500135 0.042678 0.060086
C11   C     C_2   0.579831 0.869064 0.515384 -0.385946
C12   C     C_2   0.420994 0.131376 0.531824 -0.414459
C13   C     C_2   0.495447 0.932014 0.577448 0.253964
C14   C     C_2   0.507155 0.069638 0.576135 0.238409
H3    H     H_    0.337426 0.079966 0.505060 0.188827
H4    H     H_    0.662160 0.919630 0.471224 0.174430
N1    N     N_2   0.842710 0.448890 0.464580 -0.209123
N2    N     N_2   0.157290 0.551110 0.535420 -0.211199
C15   C     C_2   0.930564 0.524357 0.498714 0.241307
C16   C     C_2   0.074967 0.501066 0.481108 0.246159
N3    N     N_R   0.608318 0.134131 0.624344 0.240005
O9    O     O_R   0.720993 0.083962 0.625902 -0.317422
O10   O     O_R   0.577591 0.225677 0.683360 -0.386467
N4    N     N_R   0.396575 0.868853 0.646821 0.238952
O11   O     O_R   0.429036 0.777556 0.698345 -0.377915
O12   O     O_R   0.284838 0.919808 0.672746 -0.327093
N5    N     N_R   0.122427 0.423475 0.402230 0.215579
O13   O     O_R   0.139261 0.304589 0.416611 -0.363397
O14   O     O_R   0.116320 0.461976 0.315937 -0.379367
N6    N     N_R   0.889908 0.632771 0.553495 0.219730
O15   O     O_R   0.934685 0.745744 0.523367 -0.349164
O16   O     O_R   0.836835 0.617908 0.641826 -0.345300

loop_
_geom_bond_atom_site_label_1
_geom_bond_atom_site_label_2
_geom_bond_distance
_ccdc_geom_bond_type
N2    C16   1.295282 D    
O7    Zn2   1.830322 S    
N6    O16   1.299923 A    
C15   N6    1.431827 S    
C14   N3    1.440318 S    
C15   C16   1.497197 S    
C1    C11   1.452281 S    
C12   H3    1.087081 S    
O6    C4    1.299275 A    
C2    C12   1.452942 S    
N4    O12   1.301188 A    
N3    O9    1.301193 A    
H2    N1    1.029878 S    
N1    C15   1.295941 D    
C11   H4    1.087068 S    
O5    C3    1.299146 A    
O7    C3    1.300105 A    
N3    O10   1.299996 A    
O2    C2    1.289681 A    
O3    Zn2   1.914578 S    
O8    C4    1.299828 A    
O1    C1    1.289829 A    
N4    O11   1.300171 A    
C7    C9    1.413246 S    
C12   C14   1.350441 D    
C6    C8    1.206345 T    
C11   C13   1.350022 D    
O2    Zn2   1.914406 S    
O1    Zn1   1.914406 S    
N6    O15   1.300769 A    
C13   N4    1.440528 S    
Zn1   N2    2.022990 S    
O5    Zn1   1.823864 S    
N5    O14   1.300585 A    
H1    N2    1.029938 S    
O4    C2    1.301649 A    
C16   N5    1.431174 S    
C4    C6    1.435927 S    
N5    O13   1.300032 A    
C3    C5    1.436092 S    
O6    Zn2   1.823863 S    
Zn2   N1    2.022988 S    
C5    C7    1.206193 T    
C13   C14   1.449619 S    
C9    C10   1.206299 T    
O4    Zn1   1.914575 S    
C8    C10   1.413352 S    
O3    C1    1.301165 A    
O8    Zn1   1.830324 S    
