data_mof_unit_51956.cif
_audit_creation_date              2012-12-10T20:44:45-0500
_audit_creation_method            fapswitch 2.2
_symmetry_space_group_name_H-M    P1
_symmetry_Int_Tables_number       1
_space_group_crystal_system       triclinic
_cell_length_a                    9.884257
_cell_length_b                    10.736216
_cell_length_c                    16.782452
_cell_angle_alpha                 89.544844
_cell_angle_beta                  95.586019
_cell_angle_gamma                 89.714127
_cell_volume                      1772.40269155

loop_
_atom_site_label
_atom_site_type_symbol
_atom_type_description
_atom_site_fract_x
_atom_site_fract_y
_atom_site_fract_z
_atom_type_partial_charge
C1    C     C_R   0.500584 0.260476 0.503239 0.971680
C2    C     C_R   0.641330 0.539624 0.785126 -0.219238
C3    C     C_R   0.526976 0.396851 0.139953 -0.202675
C4    C     C_R   0.531942 0.396601 0.222686 -0.043415
C5    C     C_R   0.455902 0.490268 0.094192 0.241701
C6    C     C_R   0.466590 0.494113 0.260393 -0.234369
C7    C     C_R   0.388770 0.585414 0.214781 -0.172220
C8    C     C_R   0.382029 0.581504 0.131046 0.063123
C9    C     C_R   0.619752 0.062978 0.532461 0.033013
C10   C     C_R   0.499814 0.129686 0.515371 -0.076248
C11   C     C_R   0.374994 0.068450 0.512259 -0.272432
C12   C     C_R   0.518999 0.497068 0.653223 0.855643
C13   C     C_R   0.370738 0.940004 0.511145 0.006740
C14   C     C_R   0.495213 0.872287 0.513395 -0.186437
C15   C     C_R   0.617213 0.935554 0.530706 0.079207
C16   C     C_3   0.750725 0.930452 0.495062 0.217477
C17   C     C_3   0.753622 0.072579 0.498485 -0.534583
C18   C     C_R   0.078556 0.409673 0.540577 0.187980
C19   C     C_R   0.063618 0.579178 0.452079 -0.061273
C20   C     C_R   0.919756 0.579532 0.452264 -0.095122
C21   C     C_R   0.936369 0.410522 0.541304 0.186325
C22   C     C_3   0.948689 0.383842 0.629513 -0.130378
C23   C     C_R   0.498957 0.740268 0.501858 0.912229
C24   C     C_3   0.102504 0.380200 0.627644 -0.571084
C25   C     C_R   0.480973 0.500598 0.346913 0.923863
C26   C     C_R   0.533544 0.482724 0.739175 -0.023228
C27   C     C_R   0.441811 0.407163 0.775251 -0.294453
C28   C     C_R   0.454521 0.391632 0.857874 0.118432
C29   C     C_R   0.559324 0.453907 0.904127 0.331512
C30   C     C_R   0.654639 0.524350 0.867662 -0.235655
H1    H     H_    0.833617 0.110573 0.542700 0.178547
H2    H     H_    0.745777 0.119438 0.438871 0.231717
H3    H     H_    0.111419 0.643926 0.414105 0.176610
H4    H     H_    0.859184 0.645230 0.414736 0.168363
H5    H     H_    0.903362 0.293223 0.644866 0.161656
H6    H     H_    0.157427 0.455418 0.662282 0.230412
H7    H     H_    0.576764 0.322414 0.110477 0.195746
H8    H     H_    0.146576 0.285453 0.638594 0.182093
H9    H     H_    0.735366 0.571677 0.903561 0.158641
H10   H     H_    0.712399 0.598484 0.757449 0.167386
H11   H     H_    0.361408 0.359291 0.739421 0.150659
H12   H     H_    0.279738 0.119923 0.505064 0.178276
N1    N     N_2   0.564640 0.453522 0.987695 -0.179927
N2    N     N_2   0.456345 0.493211 0.010399 -0.176665
N3    N     N_R   0.142860 0.499130 0.500540 -0.100198
N4    N     N_R   0.857210 0.499170 0.500530 -0.106005
O1    O     O_R   0.614690 0.316790 0.499990 -0.606361
O2    O     O_R   0.385350 0.316760 0.500000 -0.632508
O3    O     O_R   0.627460 0.498860 0.616130 -0.601522
O4    O     O_R   0.398120 0.498820 0.616130 -0.621761
O5    O     O_R   0.614650 0.683240 0.500000 -0.599439
O6    O     O_R   0.385310 0.683210 0.500010 -0.587910
O7    O     O_R   0.601880 0.501180 0.383870 -0.611216
O8    O     O_R   0.372540 0.501140 0.383870 -0.599663
Zn1   Zn    Zn3+2 0.653130 0.500020 0.499990 0.987123
Zn2   Zn    Zn3+2 0.346870 0.499980 0.500010 1.000813
C31   C     C_2   0.602293 0.290528 0.267042 0.930359
O9    O     O_2   0.558627 0.248437 0.327296 -0.646965
O10   O     O_R   0.715838 0.235338 0.237828 -0.798521
H13   H     H_    0.753858 0.163204 0.272585 0.340823
C32   C     C_2   0.234303 0.884661 0.497960 0.932099
O11   O     O_2   0.190277 0.821720 0.550609 -0.652327
O12   O     O_R   0.155432 0.907610 0.425580 -0.766350
H14   H     H_    0.065330 0.862718 0.421813 0.319063
N5    N     N_3   0.857450 0.868631 0.547996 -0.406643
H15   H     H_    0.848935 0.893848 0.607433 0.176779
H16   H     H_    0.950374 0.903605 0.533859 0.211840
N6    N     N_3   0.740688 0.880788 0.413547 -0.431610
H17   H     H_    0.828856 0.905194 0.387627 0.183980
H18   H     H_    0.659551 0.923649 0.378810 0.205778
N7    N     N_3   0.903004 0.487796 0.676261 -0.402160
H19   H     H_    0.948884 0.570783 0.660168 0.212598
H20   H     H_    0.935366 0.470139 0.736486 0.186805
C33   C     C_2   0.318047 0.687913 0.253699 1.006443
O13   O     O_2   0.196474 0.704828 0.236401 -0.551914
O14   O     O_R   0.388242 0.766674 0.309145 -0.767317
H21   H     H_    0.489910 0.751162 0.314905 0.279534
N8    N     N_3   0.361321 0.313714 0.895190 -0.438754
H22   H     H_    0.366909 0.224336 0.871390 0.184846
H23   H     H_    0.263030 0.348058 0.879625 0.187573
N9    N     N_3   0.306165 0.674820 0.083763 -0.416965
H24   H     H_    0.372906 0.722796 0.049986 0.194552
H25   H     H_    0.234208 0.630035 0.044259 0.205472

loop_
_geom_bond_atom_site_label_1
_geom_bond_atom_site_label_2
_ccdc_geom_bond_type
C18   C21   A    
C19   C20   A    
C12   O3    A    
C23   O6    A    
C7    C8    A    
C22   H5    S    
C26   C27   A    
C24   H6    S    
C33   O14   S    
C18   C24   S    
C28   C29   A    
C25   O7    A    
N8    H23   S    
C31   O10   S    
C6    C25   S    
C15   C16   S    
C11   H12   S    
C32   O12   S    
N6    H17   S    
N3    Zn2   S    
C16   C17   S    
N5    H16   S    
N4    Zn1   S    
C24   H8    S    
C16   N6    S    
C28   N8    S    
C9    C10   A    
C20   H4    S    
O10   H13   S    
C21   C22   S    
C29   N1    S    
N9    H25   S    
N9    H24   S    
C7    C33   S    
O7    Zn1   S    
O8    Zn2   S    
C33   O13   D    
C8    N9    S    
C25   O8    A    
C4    C6    A    
C19   H3    S    
N7    H20   S    
N8    H22   S    
C1    O1    A    
O3    Zn1   S    
O4    Zn2   S    
C12   C26   S    
C14   C23   S    
C4    C31   S    
N1    N2    D    
C29   C30   A    
C27   H11   S    
C23   O5    A    
C2    C26   A    
O14   H21   S    
C9    C17   S    
C5    N2    S    
C17   H1    S    
C22   C24   S    
C3    C4    A    
C18   N3    A    
C22   N7    S    
O1    Zn1   S    
C21   N4    A    
O2    Zn2   S    
C1    C10   S    
C3    C5    A    
C5    C8    A    
C12   O4    A    
C19   N3    A    
C1    O2    A    
C6    C7    A    
C2    C30   A    
C9    C15   A    
N7    H19   S    
C11   C13   A    
C31   O9    D    
C30   H9    S    
O5    Zn1   S    
C32   O11   D    
C10   C11   A    
O12   H14   S    
C2    H10   S    
C13   C32   S    
C3    H7    S    
N6    H18   S    
N5    H15   S    
C27   C28   A    
C17   H2    S    
C14   C15   A    
C16   N5    S    
C13   C14   A    
C20   N4    A    
O6    Zn2   S    
