data_mof_unit_5630.cif
_audit_creation_date              2012-12-10T20:46:35-0500
_audit_creation_method            fapswitch 2.2
_symmetry_space_group_name_H-M    P1
_symmetry_Int_Tables_number       1
_space_group_crystal_system       triclinic
_cell_length_a                    10.913277
_cell_length_b                    8.935371
_cell_length_c                    8.114016
_cell_angle_alpha                 90.031832
_cell_angle_beta                  104.952167
_cell_angle_gamma                 89.905922
_cell_volume                      764.440704045

loop_
_atom_site_label
_atom_site_type_symbol
_atom_type_description
_atom_site_fract_x
_atom_site_fract_y
_atom_site_fract_z
_atom_type_partial_charge
C1    C     C_R   0.499959 0.218002 0.499953 0.935769
C2    C     C_1   0.500011 0.934811 0.500049 -0.206587
C3    C     C_3   0.900678 0.681299 0.844259 0.174011
C4    C     C_3   0.008007 0.769875 0.959951 -0.812960
C5    C     C_3   0.098734 0.313858 0.162440 0.168755
C6    C     C_3   0.991260 0.227248 0.044405 -0.812281
C7    C     C_R   0.500032 0.781998 0.500043 0.935071
C8    C     C_R   0.258384 0.496770 0.428106 0.776468
C9    C     C_R   0.741679 0.503731 0.571852 0.776262
C10   C     C_2   0.121137 0.484220 0.384670 0.257912
C11   C     C_2   0.878925 0.518603 0.614740 0.258064
C12   C     C_2   0.066206 0.516919 0.509171 -0.200473
C13   C     C_2   0.933438 0.491050 0.488476 -0.200547
C14   C     C_1   0.499973 0.065189 0.499945 -0.206950
H1    H     H_    0.878214 0.452092 0.364569 0.206263
H2    H     H_    0.938452 0.300290 0.939295 0.291796
H3    H     H_    0.030465 0.130571 0.988631 0.199820
H4    H     H_    0.924823 0.185421 0.116984 0.243110
H5    H     H_    0.121289 0.558457 0.631980 0.205423
H6    H     H_    0.837422 0.640769 0.922270 0.186052
H7    H     H_    0.846959 0.759298 0.743773 0.101116
H8    H     H_    0.069522 0.818327 0.883923 0.241255
H9    H     H_    0.968181 0.861980 0.022150 0.200068
H10   H     H_    0.066245 0.696282 0.060253 0.292779
H11   H     H_    0.147735 0.236427 0.266739 0.101814
H12   H     H_    0.165951 0.348812 0.087641 0.184649
N1    N     N_1   0.500020 0.500000 0.073650 -0.036023
N2    N     N_1   0.499980 0.500000 0.926350 -0.036115
O1    O     O_R   0.499990 0.285340 0.636850 -0.606894
O2    O     O_3   0.048203 0.441941 0.223718 -0.616016
O3    O     O_R   0.500010 0.714660 0.363150 -0.607255
O4    O     O_R   0.500010 0.285340 0.363150 -0.616628
O5    O     O_R   0.499990 0.714660 0.636850 -0.616885
O6    O     O_R   0.317810 0.500000 0.585760 -0.631184
O7    O     O_R   0.682190 0.500000 0.414240 -0.632260
O8    O     O_R   0.317820 0.500000 0.312020 -0.616234
O9    O     O_R   0.682180 0.500000 0.687980 -0.617135
O10   O     O_3   0.952346 0.557465 0.776647 -0.615790
Zn1   Zn    Zn3+2 0.499990 0.500000 0.682780 0.975871
Zn2   Zn    Zn3+2 0.500010 0.500000 0.317220 0.975891

loop_
_geom_bond_atom_site_label_1
_geom_bond_atom_site_label_2
_ccdc_geom_bond_type
C11   O10   S    
C9    C11   S    
C10   O2    S    
C2    C7    S    
N1    Zn2   S    
O1    Zn1   S    
O4    Zn2   S    
O7    Zn2   S    
C3    H6    S    
O9    Zn1   S    
C8    O6    A    
O3    Zn2   S    
C11   C13   D    
O5    Zn1   S    
C10   C12   D    
C4    H10   S    
C6    H4    S    
C12   H5    S    
C1    O1    A    
C5    O2    S    
C13   H1    S    
C5    C6    S    
C2    C14   T    
C5    H11   S    
C3    H7    S    
C7    O3    A    
C7    O5    A    
C6    H2    S    
C5    H12   S    
O8    Zn2   S    
C4    H8    S    
C12   C13   S    
C8    C10   S    
C9    O9    A    
C8    O8    A    
N1    N2    T    
C9    O7    A    
C6    H3    S    
C1    C14   S    
N2    Zn1   S    
C4    H9    S    
C1    O4    A    
C3    C4    S    
O6    Zn1   S    
C3    O10   S    
