data_mof_unit_18761.cif
_audit_creation_date              2012-12-10T16:38:42-0500
_audit_creation_method            fapswitch 2.2
_symmetry_space_group_name_H-M    P1
_symmetry_Int_Tables_number       1
_space_group_crystal_system       triclinic
_cell_length_a                    10.84679
_cell_length_b                    10.845329
_cell_length_c                    17.843814
_cell_angle_alpha                 98.408865
_cell_angle_beta                  72.754885
_cell_angle_gamma                 98.826497
_cell_volume                      1969.66748239

loop_
_atom_site_label
_atom_site_type_symbol
_atom_type_description
_atom_site_fract_x
_atom_site_fract_y
_atom_site_fract_z
_atom_type_partial_charge
C1    C     C_R   0.157201 0.479244 0.517962 0.537909
C2    C     C_R   0.556588 0.360165 0.924386 -0.159012
C3    C     C_R   0.619255 0.301412 0.963917 -0.120017
C4    C     C_R   0.843466 0.521149 0.482197 0.504232
C5    C     C_R   0.607179 0.335975 0.043883 0.051306
C6    C     C_R   0.522204 0.426139 0.086535 -0.012842
C7    C     C_R   0.681042 0.283074 0.081529 0.272395
C8    C     C_R   0.667078 0.316834 0.161968 -0.121223
C9    C     C_R   0.522032 0.466922 0.165219 -0.136752
C10   C     C_2   0.982515 0.530085 0.474317 0.241425
C11   C     C_2   0.021374 0.473854 0.524003 -0.071746
C12   C     C_R   0.311765 0.668434 0.844134 0.270596
C13   C     C_2   0.539752 0.965616 0.472395 0.235427
C14   C     C_2   0.454992 0.036256 0.523789 -0.081543
C15   C     C_R   0.466642 0.168542 0.518297 0.534324
C16   C     C_R   0.529952 0.832897 0.481937 0.500366
C17   C     C_R   0.564572 0.435766 0.287980 0.497757
C18   C     C_R   0.436147 0.563888 0.712630 0.502684
C19   C     C_R   0.401586 0.584880 0.799878 0.013758
C20   C     C_R   0.588900 0.409049 0.203099 -0.026826
C21   C     C_R   0.271404 0.673053 0.926307 -0.113338
C22   C     C_3   0.890543 0.244174 0.026251 -0.143722
C23   C     C_R   0.456192 0.515472 0.839643 -0.171057
C24   C     C_3   0.084985 0.717019 0.432413 -0.115334
C25   C     C_3   0.617452 0.988611 0.341118 0.015675
C26   C     C_3   0.734375 0.041342 0.277696 -0.266696
C27   C     C_3   0.717130 0.002956 0.195313 -0.470331
C28   C     C_3   0.338571 0.854549 0.791555 0.034447
C29   C     C_3   0.296224 0.959438 0.857885 -0.282596
C30   C     C_3   0.373394 0.085845 0.837052 -0.481044
C31   C     C_3   0.201872 0.443951 0.191783 0.013241
C32   C     C_3   0.060640 0.472170 0.214475 -0.241309
C33   C     C_3   0.966889 0.364500 0.253146 -0.461959
C34   C     C_R   0.418461 0.521291 0.922674 0.002285
C35   C     C_R   0.324697 0.601752 0.965642 -0.049763
C36   C     C_R   0.474117 0.452495 0.964076 0.002454
C37   C     C_R   0.445502 0.476040 0.047906 0.029243
C38   C     C_R   0.339635 0.546272 0.089073 0.257042
C39   C     C_R   0.283829 0.610131 0.047651 -0.104668
H1    H     H_    0.207325 0.667081 0.080473 0.122339
H2    H     H_    0.919114 0.269687 0.081947 0.108384
H3    H     H_    0.910106 0.327376 0.992727 0.123426
H4    H     H_    0.952798 0.172993 0.989567 0.140876
H5    H     H_    0.116622 0.742903 0.487156 0.124607
H6    H     H_    0.993007 0.756310 0.439048 0.138562
H7    H     H_    0.160878 0.761019 0.383972 0.143493
H8    H     H_    0.530067 0.030546 0.340737 0.140248
H9    H     H_    0.601573 0.885074 0.326381 0.149251
H10   H     H_    0.746981 0.145360 0.288948 0.159451
H11   H     H_    0.823567 0.005879 0.280576 0.181272
H12   H     H_    0.952693 0.427039 0.572027 0.077688
H13   H     H_    0.708803 0.899186 0.182133 0.154163
H14   H     H_    0.802864 0.044165 0.150862 0.174258
H15   H     H_    0.628517 0.037295 0.190779 0.172818
H16   H     H_    0.328483 0.881356 0.736065 0.168037
H17   H     H_    0.443961 0.845877 0.780606 0.113245
H18   H     H_    0.191072 0.966299 0.868586 0.174835
H19   H     H_    0.311631 0.937506 0.913086 0.155907
H20   H     H_    0.478685 0.081912 0.827742 0.150854
H21   H     H_    0.340187 0.159594 0.886154 0.154825
H22   H     H_    0.358266 0.111624 0.782681 0.150938
H23   H     H_    0.376688 0.997280 0.571039 0.060497
H24   H     H_    0.221801 0.416229 0.244234 0.183708
H25   H     H_    0.216249 0.361577 0.145740 0.110911
H26   H     H_    0.048882 0.558890 0.256435 0.223060
H27   H     H_    0.035811 0.488131 0.160809 0.137998
H28   H     H_    0.974590 0.276992 0.211875 0.121577
H29   H     H_    0.865811 0.388540 0.269233 0.157519
H30   H     H_    0.988512 0.348425 0.307793 0.177137
H31   H     H_    0.473075 0.545112 0.198585 0.181908
H32   H     H_    0.717507 0.271409 0.192216 0.102748
H33   H     H_    0.681211 0.231185 0.930478 0.160562
H34   H     H_    0.198790 0.733904 0.959516 0.115039
H35   H     H_    0.530174 0.459032 0.804123 0.139419
H36   H     H_    0.572388 0.328156 0.862609 0.108463
O1    O     O_3   0.500000 0.500000 0.500000 -0.440390
O2    O     O_R   0.470800 0.371790 0.332500 -0.533160
O3    O     O_R   0.380610 0.619380 0.674980 -0.505010
O4    O     O_R   0.632640 0.524780 0.317540 -0.548771
O5    O     O_R   0.515950 0.484050 0.674980 -0.560458
O6    O     O_3   0.759448 0.191598 0.040956 -0.583245
O7    O     O_3   0.072657 0.586010 0.412217 -0.575488
O8    O     O_3   0.642635 0.019608 0.415286 -0.563059
O9    O     O_3   0.256540 0.740954 0.808006 -0.548433
O10   O     O_3   0.286645 0.553940 0.170022 -0.596067
O11   O     O_R   0.535460 0.243030 0.556410 -0.523070
O12   O     O_R   0.437420 0.784080 0.535340 -0.578717
O13   O     O_R   0.223560 0.397520 0.472140 -0.525631
O14   O     O_R   0.803560 0.575360 0.436110 -0.531735
O15   O     O_R   0.209690 0.568800 0.556400 -0.540432
O16   O     O_R   0.763190 0.458310 0.535350 -0.563160
O17   O     O_R   0.414000 0.207090 0.472140 -0.551191
O18   O     O_R   0.613120 0.765800 0.436110 -0.526867
Zn1   Zn    Zn3+2 0.577310 0.422690 0.565550 0.931636
Zn2   Zn    Zn3+2 0.403760 0.371330 0.445150 0.944988
Zn3   Zn    Zn3+2 0.634990 0.589920 0.423760 0.934299
Zn4   Zn    Zn3+2 0.383940 0.616050 0.565540 0.939149

loop_
_geom_bond_atom_site_label_1
_geom_bond_atom_site_label_2
_ccdc_geom_bond_type
C1    O15   A    
C31   O10   S    
C28   O9    S    
C19   C23   A    
C1    C11   S    
C6    C9    A    
C28   H17   S    
C27   H15   S    
C7    C8    A    
C22   H3    S    
C16   O18   A    
C8    C20   A    
C24   H6    S    
C28   C29   S    
C37   C38   A    
C18   C19   S    
C26   H11   S    
O1    Zn2   S    
C5    C6    A    
C22   H2    S    
C14   H23   S    
C21   H34   S    
C17   O4    A    
C17   C20   S    
C12   O9    S    
C34   C35   A    
C24   O7    S    
O11   Zn1   S    
O1    Zn1   S    
C15   O17   A    
C22   H4    S    
C30   H21   S    
C16   O12   A    
C25   H8    S    
O15   Zn4   S    
C33   H30   S    
C4    O16   A    
C1    O13   A    
O13   Zn2   S    
C13   C14   D    
C28   H16   S    
C38   O10   S    
C22   O6    S    
C31   H24   S    
C9    H31   S    
C26   H10   S    
C39   H1    S    
C5    C7    A    
C25   C26   S    
C12   C21   A    
C10   O7    S    
O17   Zn2   S    
C35   C39   A    
C29   C30   S    
C9    C20   A    
C31   C32   S    
C18   O3    A    
C23   C34   A    
C30   H20   S    
O3    Zn4   S    
C17   O2    A    
C26   C27   S    
C6    C37   A    
C25   H9    S    
C15   O11   A    
C7    O6    S    
C29   H18   S    
O18   Zn3   S    
C24   H5    S    
C30   H22   S    
C23   H35   S    
O5    Zn1   S    
C27   H13   S    
C33   H28   S    
C32   H27   S    
C4    O14   A    
C2    C36   A    
C36   C37   A    
C8    H32   S    
C31   H25   S    
C3    C5    A    
C27   H14   S    
C21   C35   A    
C13   O8    S    
C24   H7    S    
C32   C33   S    
O14   Zn3   S    
C2    C3    A    
O1    Zn4   S    
O4    Zn3   S    
O1    Zn3   S    
O16   Zn1   S    
C38   C39   A    
C12   C19   A    
O2    Zn2   S    
C3    H33   S    
C34   C36   A    
C11   H12   S    
C10   C11   D    
C29   H19   S    
C18   O5    A    
C13   C16   S    
C25   O8    S    
C14   C15   S    
C4    C10   S    
C2    H36   S    
C33   H29   S    
C32   H26   S    
O12   Zn4   S    
