data_mof_unit_24182.cif
_audit_creation_date              2012-12-10T17:31:55-0500
_audit_creation_method            fapswitch 2.2
_symmetry_space_group_name_H-M    P1
_symmetry_Int_Tables_number       1
_space_group_crystal_system       triclinic
_cell_length_a                    12.066355
_cell_length_b                    11.543854
_cell_length_c                    12.808413
_cell_angle_alpha                 91.598419
_cell_angle_beta                  95.77621
_cell_angle_gamma                 84.315018
_cell_volume                      1766.03386437

loop_
_atom_site_label
_atom_site_type_symbol
_atom_type_description
_atom_site_fract_x
_atom_site_fract_y
_atom_site_fract_z
_atom_type_partial_charge
C1    C     C_R   0.475024 0.500614 0.298984 0.942059
C2    C     C_R   0.524976 0.499394 0.701015 0.942116
C3    C     C_R   0.037585 0.645702 0.548135 0.015052
C4    C     C_R   0.962409 0.354315 0.451779 0.015055
C5    C     C_R   0.156108 0.620750 0.563557 0.232915
C6    C     C_R   0.843881 0.379270 0.436396 0.232956
C7    C     C_R   0.145149 0.435990 0.479707 -0.085904
C8    C     C_R   0.854858 0.564005 0.520292 -0.085909
C9    C     C_R   0.027272 0.446498 0.483651 -0.001061
C10   C     C_R   0.972730 0.553500 0.516323 -0.000998
C11   C     C_R   0.501403 0.281882 0.499716 0.917359
C12   C     C_R   0.498597 0.718118 0.500283 0.917373
C13   C     C_1   0.503652 0.161143 0.499584 -0.165008
C14   C     C_1   0.496347 0.838857 0.500414 -0.165006
C15   C     C_1   0.501896 0.059130 0.499795 0.005871
C16   C     C_1   0.498103 0.940870 0.500202 0.005871
C17   C     C_R   0.545869 0.496054 0.814220 -0.254138
C18   C     C_R   0.454133 0.503977 0.185778 -0.254051
C19   C     C_R   0.363282 0.443639 0.018945 0.444617
C20   C     C_R   0.636712 0.556439 0.981043 0.444529
C21   C     C_R   0.365395 0.450483 0.128594 -0.071013
C22   C     C_R   0.634589 0.549587 0.871393 -0.070967
C23   C     C_R   0.529847 0.559111 0.133732 0.395952
C24   C     C_R   0.470166 0.440920 0.866276 0.395923
C25   C     C_R   0.542042 0.529970 0.028969 -0.154804
C26   C     C_R   0.457967 0.470081 0.971033 -0.154911
H1    H     H_    0.811238 0.640069 0.553487 0.154743
H2    H     H_    0.188782 0.359928 0.446525 0.154753
N1    N     N_R   0.792200 0.479100 0.480660 -0.118335
N2    N     N_R   0.207800 0.520900 0.519340 -0.118313
O1    O     O_R   0.578300 0.494420 0.341180 -0.587733
O2    O     O_R   0.421700 0.505580 0.658820 -0.587688
O3    O     O_R   0.390690 0.507830 0.353590 -0.633594
O4    O     O_R   0.609310 0.492170 0.646410 -0.633586
O5    O     O_R   0.593810 0.327740 0.493800 -0.651924
O6    O     O_R   0.406190 0.672260 0.506200 -0.651934
O7    O     O_R   0.406190 0.341150 0.506220 -0.597802
O8    O     O_R   0.593810 0.658850 0.493780 -0.597793
Zn1   Zn    Zn3+2 0.625270 0.491050 0.491710 0.949380
Zn2   Zn    Zn3+2 0.374730 0.508950 0.508290 0.949404
Cl1   Cl    Cl    0.409395 0.319573 0.803412 -0.542025
Cl2   Cl    Cl    0.590618 0.680446 0.196618 -0.542100
C27   C     C_3   0.729633 0.595289 0.819837 -0.329204
C28   C     C_3   0.824559 0.497930 0.806814 -0.279056
C29   C     C_3   0.936298 0.547066 0.799820 -0.842483
H3    H     H_    0.927767 0.613444 0.738179 0.235155
H4    H     H_    0.965116 0.587720 0.876097 0.294466
H5    H     H_    0.000240 0.476015 0.780191 0.279966
H6    H     H_    0.834604 0.438233 0.874486 0.253044
H7    H     H_    0.804307 0.445408 0.734762 0.231980
H8    H     H_    0.700130 0.637109 0.743884 0.180812
H9    H     H_    0.762473 0.668056 0.868258 0.239220
C30   C     C_3   0.270312 0.404841 0.180132 -0.329189
C31   C     C_3   0.175444 0.502261 0.193151 -0.279141
C32   C     C_3   0.063667 0.453216 0.200125 -0.842614
H10   H     H_    0.034884 0.412434 0.123899 0.294430
H11   H     H_    0.072118 0.386966 0.261856 0.235203
H12   H     H_    0.999750 0.524327 0.219608 0.280087
H13   H     H_    0.195723 0.554766 0.265209 0.231982
H14   H     H_    0.165445 0.561962 0.125483 0.253069
H15   H     H_    0.237429 0.332106 0.131694 0.239203
H16   H     H_    0.299780 0.362995 0.256080 0.180831
Cl3   Cl    Cl    0.235481 0.419836 0.943086 -0.624071
Cl4   Cl    Cl    0.764503 0.580323 0.056878 -0.624237
C33   C     C_3   0.778045 0.301716 0.360457 -0.406720
C34   C     C_3   0.812913 0.307271 0.248490 -0.388147
C35   C     C_3   0.735286 0.244928 0.169035 -0.803619
H17   H     H_    0.736761 0.151918 0.189693 0.263039
H18   H     H_    0.648185 0.286985 0.167205 0.256573
H19   H     H_    0.763551 0.249820 0.089527 0.264574
H20   H     H_    0.809704 0.399818 0.225626 0.286525
H21   H     H_    0.899698 0.266896 0.244376 0.224117
H22   H     H_    0.784711 0.210977 0.388342 0.176220
H23   H     H_    0.689450 0.328851 0.353455 0.269625
C36   C     C_3   0.221932 0.698342 0.639468 -0.406639
C37   C     C_3   0.186930 0.693009 0.751405 -0.388290
C38   C     C_3   0.264744 0.755071 0.830899 -0.803771
H24   H     H_    0.351616 0.712409 0.833081 0.256719
H25   H     H_    0.263980 0.847900 0.810015 0.263076
H26   H     H_    0.236146 0.750750 0.910306 0.264554
H27   H     H_    0.100259 0.733727 0.755441 0.224088
H28   H     H_    0.189769 0.600513 0.774300 0.286428
H29   H     H_    0.310513 0.671122 0.646563 0.269718
H30   H     H_    0.215352 0.789035 0.611487 0.176156
C39   C     C_3   0.980649 0.769045 0.563261 -0.474918
C40   C     C_3   0.925818 0.819408 0.458369 -0.305282
C41   C     C_3   0.851696 0.932080 0.475430 -0.861408
H31   H     H_    0.780320 0.914423 0.519078 0.268881
H32   H     H_    0.900315 0.996846 0.520403 0.258478
H33   H     H_    0.818045 0.969383 0.398383 0.257298
H34   H     H_    0.992330 0.837115 0.408570 0.217893
H35   H     H_    0.873498 0.756887 0.414498 0.254162
H36   H     H_    0.918351 0.769014 0.621250 0.194820
H37   H     H_    0.038951 0.831493 0.596326 0.213606
C42   C     C_3   0.019355 0.231003 0.436492 -0.474869
C43   C     C_3   0.074186 0.180472 0.541320 -0.305479
C44   C     C_3   0.148339 0.067873 0.524114 -0.861199
H38   H     H_    0.099742 0.003157 0.479005 0.258479
H39   H     H_    0.219728 0.085670 0.480509 0.268838
H40   H     H_    0.181977 0.030423 0.601130 0.257215
H41   H     H_    0.126479 0.242946 0.585288 0.254148
H42   H     H_    0.007683 0.162634 0.591077 0.217911
H43   H     H_    0.961075 0.168586 0.403312 0.213612
H44   H     H_    0.081653 0.231154 0.378514 0.194800

loop_
_geom_bond_atom_site_label_1
_geom_bond_atom_site_label_2
_ccdc_geom_bond_type
C28   H6    S    
C32   H10   S    
C36   C37   S    
C5    C36   S    
C43   H42   S    
C3    C39   S    
C18   C21   A    
C42   C43   S    
C41   H31   S    
C27   H8    S    
C44   H38   S    
C1    O3    A    
C31   H14   S    
C30   C31   S    
C28   C29   S    
C1    C18   S    
C23   Cl2   S    
C8    N1    A    
C19   C21   A    
C24   C26   A    
O7    Zn2   S    
C40   H34   S    
C39   C40   S    
O8    Zn1   S    
C36   H30   S    
C29   H5    S    
C20   C25   A    
C15   C16   S    
C1    O1    A    
C33   H22   S    
C2    O2    A    
C39   H37   S    
C11   O7    A    
C19   C26   A    
C8    H1    S    
C30   H15   S    
O4    Zn1   S    
C6    C33   S    
C34   H21   S    
C22   C27   S    
C19   Cl3   S    
C12   O6    A    
C9    C10   A    
C2    O4    A    
C29   H4    S    
C34   C35   S    
C7    N2    A    
C43   H41   S    
C2    C17   S    
C24   Cl1   S    
C39   H36   S    
C44   H39   S    
C42   H43   S    
C31   H13   S    
C38   H25   S    
C17   C24   A    
C18   C23   A    
O3    Zn2   S    
O6    Zn2   S    
C37   C38   S    
C4    C6    A    
C37   H28   S    
C40   C41   S    
C25   C26   A    
C38   H24   S    
C33   H23   S    
C35   H17   S    
C35   H18   S    
C6    N1    A    
C20   Cl4   S    
O5    Zn1   S    
C27   C28   S    
C4    C42   S    
C30   H16   S    
C34   H20   S    
C43   C44   S    
N1    Zn1   S    
N2    Zn2   S    
C12   C14   S    
C13   C15   T    
C14   C16   T    
C41   H33   S    
C44   H40   S    
C42   H44   S    
C5    N2    A    
C38   H26   S    
C28   H7    S    
C7    C9    A    
C31   C32   S    
C20   C22   A    
C3    C5    A    
C37   H27   S    
C17   C22   A    
C35   H19   S    
C32   H11   S    
C3    C10   A    
C40   H35   S    
C21   C30   S    
C11   C13   S    
C36   H29   S    
C11   O5    A    
O1    Zn1   S    
O2    Zn2   S    
C12   O8    A    
C27   H9    S    
C7    H2    S    
C29   H3    S    
C23   C25   A    
C8    C10   A    
C33   C34   S    
C32   H12   S    
C41   H32   S    
C4    C9    A    
