data_mof_unit_49644.cif
_audit_creation_date              2012-12-10T17:50:13-0500
_audit_creation_method            fapswitch 2.2
_symmetry_space_group_name_H-M    P1
_symmetry_Int_Tables_number       1
_space_group_crystal_system       triclinic
_cell_length_a                    10.611373
_cell_length_b                    14.683788
_cell_length_c                    14.848227
_cell_angle_alpha                 65.522149
_cell_angle_beta                  103.499169
_cell_angle_gamma                 103.261898
_cell_volume                      2024.32353601

loop_
_atom_site_label
_atom_site_type_symbol
_atom_type_description
_atom_site_fract_x
_atom_site_fract_y
_atom_site_fract_z
_atom_type_partial_charge
C1    C     C_R   0.481273 0.119627 0.313027 0.803276
C2    C     C_R   0.518738 0.880373 0.686974 0.803282
C3    C     C_R   0.525584 0.289050 0.174389 -0.079956
C4    C     C_R   0.474449 0.710947 0.825612 -0.079948
C5    C     C_R   0.475589 0.360756 0.080237 0.039574
C6    C     C_R   0.524445 0.639238 0.919756 0.039574
C7    C     C_R   0.350510 0.331475 0.031643 0.152186
C8    C     C_R   0.649524 0.668517 0.968347 0.152181
C9    C     C_R   0.537583 0.463007 0.036997 0.055667
C10   C     C_R   0.462450 0.536986 0.962997 0.055668
C11   C     C_R   0.327751 0.506447 0.936739 -0.213987
C12   C     C_R   0.672280 0.493546 0.063261 -0.213982
C13   C     C_R   0.276559 0.404987 0.962032 -0.230348
C14   C     C_R   0.723472 0.595006 0.037962 -0.230348
C15   C     C_R   0.733710 0.294858 0.653686 -0.332814
C16   C     C_R   0.266291 0.705142 0.346313 -0.332807
C17   C     C_R   0.693721 0.209499 0.629605 0.082069
C18   C     C_R   0.306279 0.790501 0.370394 0.082073
C19   C     C_R   0.512783 0.281637 0.514470 0.012187
C20   C     C_R   0.487216 0.718362 0.485532 0.012161
C21   C     C_R   0.548404 0.371199 0.535396 -0.032797
C22   C     C_R   0.451596 0.628801 0.464604 -0.032810
C23   C     C_R   0.259615 0.999584 0.500860 0.796381
C24   C     C_R   0.740383 0.000419 0.499134 0.796374
C25   C     C_R   0.662037 0.376052 0.606605 0.165596
C26   C     C_R   0.337965 0.623948 0.393394 0.165591
C27   C     C_R   0.477553 0.455945 0.487652 0.069011
C28   C     C_R   0.522449 0.544055 0.512348 0.069018
C29   C     C_R   0.636335 0.544283 0.584011 -0.250319
C30   C     C_R   0.363669 0.455718 0.415987 -0.250314
C31   C     C_R   0.704197 0.461992 0.629967 -0.210464
C32   C     C_R   0.295806 0.538009 0.370031 -0.210460
C33   C     C_3   0.010333 0.920291 0.480706 -0.196834
C34   C     C_3   0.989665 0.079717 0.519282 -0.196829
C35   C     C_3   0.933451 0.007397 0.409949 0.062215
C36   C     C_3   0.066543 0.992608 0.590040 0.062253
C37   C     C_3   0.876845 0.000387 0.498767 -0.012814
C38   C     C_3   0.123152 0.999620 0.501221 -0.012807
C39   C     C_3   0.952213 0.913131 0.570528 -0.242436
C40   C     C_3   0.047780 0.086877 0.429456 -0.242425
C41   C     C_R   0.459139 0.187824 0.207431 -0.076483
C42   C     C_R   0.540893 0.812173 0.792569 -0.076495
C43   C     C_R   0.294913 0.229694 0.059904 -0.213221
C44   C     C_R   0.705124 0.770299 0.940083 -0.213213
C45   C     C_R   0.351783 0.157702 0.145456 -0.216938
C46   C     C_R   0.648258 0.842293 0.854535 -0.216952
Cu1   Cu    Cu3+1 0.465750 0.918270 0.475680 0.942637
Cu2   Cu    Cu3+1 0.534250 0.081730 0.524320 0.942630
H1    H     H_    0.571000 0.728321 0.539356 0.121553
H2    H     H_    0.428998 0.271678 0.460647 0.121557
H3    H     H_    0.250437 0.852842 0.334678 0.120417
H4    H     H_    0.749564 0.147158 0.665320 0.120420
H5    H     H_    0.820790 0.297684 0.708348 0.133023
H6    H     H_    0.179211 0.702317 0.291650 0.133022
H7    H     H_    0.676356 0.607411 0.606396 0.128832
H8    H     H_    0.323649 0.392591 0.393601 0.128838
H9    H     H_    0.020918 0.855955 0.463507 0.139982
H10   H     H_    0.979080 0.144054 0.536479 0.139962
H11   H     H_    0.908420 0.842264 0.626526 0.120308
H12   H     H_    0.091547 0.157745 0.373435 0.120319
H13   H     H_    0.175548 0.384212 0.932480 0.139360
H14   H     H_    0.824482 0.615780 0.067517 0.139356
H15   H     H_    0.698797 0.919460 0.830237 0.153334
H16   H     H_    0.301243 0.080534 0.169753 0.153335
H17   H     H_    0.202401 0.206689 0.019698 0.136090
H18   H     H_    0.797636 0.793304 0.980288 0.136093
H19   H     H_    0.260217 0.559932 0.895638 0.160046
H20   H     H_    0.739812 0.440061 0.104375 0.160033
H21   H     H_    0.791357 0.465938 0.684316 0.137810
H22   H     H_    0.208646 0.534064 0.315681 0.137812
N1    N     N_R   0.585750 0.204560 0.560800 -0.172332
N2    N     N_R   0.414250 0.795440 0.439200 -0.172326
O1    O     O_R   0.454850 0.022100 0.338110 -0.587540
O2    O     O_R   0.545150 0.977900 0.661890 -0.587541
O3    O     O_R   0.512700 0.160150 0.379180 -0.571411
O4    O     O_R   0.487300 0.839850 0.620820 -0.571407
O5    O     O_R   0.287930 0.931000 0.479440 -0.584469
O6    O     O_R   0.712070 0.069000 0.520560 -0.584481
O7    O     O_R   0.345780 0.069050 0.520520 -0.599248
O8    O     O_R   0.654220 0.930950 0.479480 -0.599250
C47   C     C_R   0.854541 0.010834 0.310385 0.085373
C48   C     C_R   0.875753 0.095067 0.221797 -0.182205
C49   C     C_R   0.799160 0.098229 0.130350 -0.140200
C50   C     C_R   0.701954 0.017043 0.126498 -0.110401
C51   C     C_R   0.681932 0.932144 0.214001 -0.128490
C52   C     C_R   0.758405 0.928695 0.305499 -0.115720
H23   H     H_    0.949991 0.158931 0.223175 0.119362
H24   H     H_    0.814986 0.163796 0.062466 0.125061
H25   H     H_    0.642574 0.019719 0.055691 0.121008
H26   H     H_    0.607221 0.868958 0.210968 0.128950
H27   H     H_    0.742504 0.862014 0.372532 0.134041
C53   C     C_R   0.145418 0.989131 0.689627 0.085386
C54   C     C_R   0.124125 0.904888 0.778188 -0.182190
C55   C     C_R   0.200682 0.901684 0.869659 -0.140235
C56   C     C_R   0.297937 0.982847 0.873562 -0.110384
C57   C     C_R   0.318038 0.067760 0.786090 -0.128500
C58   C     C_R   0.241594 0.071251 0.694566 -0.115748
H28   H     H_    0.049857 0.841036 0.776776 0.119352
H29   H     H_    0.184793 0.836105 0.937519 0.125057
H30   H     H_    0.357291 0.980132 0.944389 0.121004
H31   H     H_    0.392787 0.130929 0.789161 0.128933
H32   H     H_    0.257554 0.137944 0.627559 0.134054
C59   C     C_R   0.368899 0.678265 0.754229 0.120793
C60   C     C_R   0.385862 0.605877 0.720603 -0.102533
C61   C     C_R   0.285279 0.573414 0.655964 -0.127970
C62   C     C_R   0.168408 0.614269 0.622776 -0.113158
C63   C     C_R   0.151634 0.687355 0.654542 -0.131715
C64   C     C_R   0.251686 0.719863 0.719411 -0.149113
H33   H     H_    0.476223 0.573943 0.745420 0.122541
H34   H     H_    0.298001 0.516623 0.631500 0.135237
H35   H     H_    0.090746 0.589134 0.572619 0.120516
H36   H     H_    0.060599 0.718062 0.629673 0.119161
H37   H     H_    0.237721 0.776186 0.743759 0.122330
C65   C     C_R   0.631111 0.321745 0.245782 0.120781
C66   C     C_R   0.748326 0.280142 0.280647 -0.149060
C67   C     C_R   0.848339 0.312650 0.345543 -0.131668
C68   C     C_R   0.831531 0.385753 0.377278 -0.113141
C69   C     C_R   0.714665 0.426620 0.344036 -0.127985
C70   C     C_R   0.614115 0.394149 0.279378 -0.102565
H38   H     H_    0.762320 0.223810 0.256321 0.122282
H39   H     H_    0.939367 0.281926 0.370461 0.119146
H40   H     H_    0.909162 0.410890 0.427454 0.120520
H41   H     H_    0.701917 0.483424 0.368475 0.135240
H42   H     H_    0.523754 0.426088 0.254525 0.122551

loop_
_geom_bond_atom_site_label_1
_geom_bond_atom_site_label_2
_ccdc_geom_bond_type
C25   C31   A    
C38   C40   S    
C61   H34   S    
C26   C32   A    
C54   C55   A    
C40   H12   S    
C34   C37   S    
C63   H36   S    
C19   N1    A    
C56   C57   A    
C65   C66   A    
C35   C47   S    
C70   H42   S    
C12   H20   S    
C33   C39   S    
C34   C40   S    
C15   H5    S    
Cu2   O7    S    
C28   C29   A    
C35   C37   S    
Cu1   O4    S    
C52   H27   S    
C60   H33   S    
C15   C25   A    
C62   C63   A    
C66   C67   A    
C14   H14   S    
C4    C59   S    
C67   C68   A    
C42   C46   A    
Cu2   O6    S    
C69   C70   A    
C44   H18   S    
C24   O8    A    
Cu1   Cu2   S    
C11   H19   S    
C53   C58   A    
C33   H9    S    
C63   C64   A    
C59   C64   A    
C7    C43   A    
C9    C10   A    
C58   H32   S    
C2    O2    A    
C36   C53   S    
C49   H24   S    
C21   C27   A    
C22   C28   A    
C57   H31   S    
C27   C30   A    
C16   C26   A    
Cu2   O3    S    
Cu1   O8    S    
C17   H4    S    
C60   C61   A    
C44   C46   A    
C18   H3    S    
C47   C48   A    
C62   H35   S    
C18   N2    A    
C37   C39   S    
C67   H39   S    
C1    O3    A    
Cu2   O2    S    
C50   C51   A    
Cu1   O1    S    
C4    C6    A    
C5    C7    A    
C56   H30   S    
C32   H22   S    
C29   H7    S    
C51   C52   A    
C30   H8    S    
C64   H37   S    
C68   H40   S    
C5    C9    A    
C20   H1    S    
C49   C50   A    
C7    C13   A    
C43   H17   S    
C39   H11   S    
C57   C58   A    
C24   C37   S    
C47   C52   A    
C23   O5    A    
C43   C45   A    
C24   O6    A    
C12   C14   A    
C17   N1    A    
C50   H25   S    
Cu1   O5    S    
Cu2   N1    S    
C59   C60   A    
C2    O4    A    
C1    C41   S    
C15   C17   A    
C21   C25   A    
C3    C41   A    
C8    C14   A    
C19   C21   A    
C36   C39   S    
C8    C44   A    
C20   C22   A    
C3    C5    A    
C3    C65   S    
C6    C10   A    
C6    C8    A    
C51   H26   S    
C66   H38   S    
C23   C38   S    
C61   C62   A    
C45   H16   S    
C33   C38   S    
C46   H15   S    
C1    O1    A    
C36   C38   S    
C35   C40   S    
C29   C31   A    
C68   C69   A    
C30   C32   A    
C11   C13   A    
C19   H2    S    
C65   C70   A    
C4    C42   A    
C55   H29   S    
C2    C42   S    
C53   C54   A    
C33   C35   S    
C34   C36   S    
C69   H41   S    
C55   C56   A    
C9    C12   A    
C16   H6    S    
Cu1   N2    S    
C10   C11   A    
C31   H21   S    
C13   H13   S    
C16   C18   A    
C48   C49   A    
C22   C26   A    
C27   C28   A    
C34   H10   S    
C41   C45   A    
C20   N2    A    
C23   O7    A    
C54   H28   S    
C48   H23   S    
