data_mof_unit_50422.cif
_audit_creation_date              2012-10-26T21:13:40-0400
_audit_creation_method            fapswitch 2.2
_symmetry_space_group_name_H-M    P1
_symmetry_Int_Tables_number       1
_space_group_crystal_system       triclinic
_cell_length_a                    9.079108
_cell_length_b                    10.827715
_cell_length_c                    9.591583
_cell_angle_alpha                 90.338449
_cell_angle_beta                  90.117186
_cell_angle_gamma                 90.788878
_cell_volume                      942.802145004

loop_
_atom_site_label
_atom_site_type_symbol
_atom_type_description
_atom_site_fract_x
_atom_site_fract_y
_atom_site_fract_z
_atom_type_partial_charge
C1    C     C_R   0.499770 0.262503 0.499711 0.581698
C2    C     C_R   0.592043 0.578056 0.926962 0.116388
C3    C     C_3   0.755608 0.581451 0.916338 -0.238927
C4    C     C_R   0.220804 0.499879 0.499912 0.565633
C5    C     C_3   0.761198 0.563006 0.072422 -0.038016
C6    C     C_R   0.498677 0.737460 0.500207 0.539371
C7    C     C_R   0.779173 0.500079 0.500141 0.569861
C8    C     C_1   0.065552 0.499862 0.499926 -0.013560
C9    C     C_1   0.934400 0.499943 0.500228 -0.016155
C10   C     C_R   0.483079 0.063887 0.624126 0.027551
C11   C     C_R   0.490952 0.129100 0.499049 0.034939
C12   C     C_R   0.479270 0.934622 0.372905 -0.142402
C13   C     C_R   0.481219 0.063221 0.372601 -0.126061
C14   C     C_R   0.487627 0.870491 0.499738 0.014852
C15   C     C_R   0.479425 0.936952 0.624455 0.002502
C16   C     C_3   0.569696 0.929777 0.754419 -0.238572
C17   C     C_3   0.574806 0.070414 0.754188 -0.025080
C18   C     C_R   0.596566 0.573416 0.074089 0.132395
C19   C     C_R   0.402748 0.428544 0.071269 0.196223
C20   C     C_R   0.403139 0.429517 0.923572 0.031047
Cu1   Cu    Cu3+1 0.499990 0.499980 0.640670 0.976342
Cu2   Cu    Cu3+1 0.500010 0.500020 0.359330 1.024784
H1    H     H_    0.797250 0.673799 0.883418 0.104980
H2    H     H_    0.478010 0.886151 0.273787 0.142897
H3    H     H_    0.505475 0.890996 0.842895 0.128985
H4    H     H_    0.677904 0.885589 0.736492 0.162021
H5    H     H_    0.513802 0.111865 0.842900 0.149246
H6    H     H_    0.327614 0.370063 0.866099 0.145592
H7    H     H_    0.481798 0.110234 0.273369 0.169125
H8    H     H_    0.818075 0.639809 0.129060 0.127859
H9    H     H_    0.801573 0.503177 0.856285 0.204272
I1    I     I_    0.836505 0.378756 0.115613 -0.269329
I2    I     I_    0.793925 0.143707 0.724749 -0.334300
I3    I     I_    0.253162 0.299084 0.158871 -0.303077
N1    N     N_R   0.500920 0.500930 0.147930 -0.218167
N2    N     N_R   0.500930 0.500890 0.852020 -0.244163
O1    O     O_R   0.500000 0.319640 0.618810 -0.490688
O2    O     O_R   0.500020 0.319680 0.381230 -0.475668
O3    O     O_R   0.288380 0.499980 0.618770 -0.507348
O4    O     O_R   0.288400 0.500020 0.381190 -0.468985
O5    O     O_R   0.499980 0.680320 0.618770 -0.503725
O6    O     O_R   0.500000 0.680360 0.381190 -0.517335
O7    O     O_R   0.711600 0.499980 0.618810 -0.504547
O8    O     O_R   0.711620 0.500020 0.381230 -0.472461

loop_
_geom_bond_atom_site_label_1
_geom_bond_atom_site_label_2
_ccdc_geom_bond_type
Cu2   O2    S    
C7    O7    A    
C2    C18   A    
C18   N1    A    
C12   H2    S    
C3    H1    S    
C19   C20   A    
Cu1   O3    S    
C4    O3    A    
C1    O1    A    
C4    C8    S    
C5    I1    S    
Cu2   O4    S    
Cu1   Cu2   S    
C2    C3    S    
Cu1   N2    S    
C19   N1    A    
C7    O8    A    
C3    H9    S    
Cu2   N1    S    
C11   C13   A    
Cu2   O6    S    
C17   I2    S    
C1    O2    A    
Cu1   O5    S    
C13   H7    S    
C12   C14   A    
C10   C15   A    
C16   H4    S    
C6    C14   S    
C10   C11   A    
C10   C17   S    
C15   C16   S    
C17   H5    S    
Cu1   O1    S    
C12   C13   A    
C5    H8    S    
C6    O6    A    
C2    N2    A    
C16   H3    S    
C7    C9    S    
C14   C15   A    
C8    C9    T    
C20   N2    A    
C5    C18   S    
C20   H6    S    
Cu1   O7    S    
C6    O5    A    
Cu2   O8    S    
C4    O4    A    
C16   C17   S    
C3    C5    S    
C19   I3    S    
C1    C11   S    
