data_mof_unit_25256.cif
_audit_creation_date              2012-12-10T16:51:28-0500
_audit_creation_method            fapswitch 2.2
_symmetry_space_group_name_H-M    P1
_symmetry_Int_Tables_number       1
_space_group_crystal_system       triclinic
_cell_length_a                    7.814266
_cell_length_b                    8.575316
_cell_length_c                    12.610541
_cell_angle_alpha                 92.456936
_cell_angle_beta                  102.608068
_cell_angle_gamma                 93.929656
_cell_volume                      821.261495096

loop_
_atom_site_label
_atom_site_type_symbol
_atom_type_description
_atom_site_fract_x
_atom_site_fract_y
_atom_site_fract_z
_atom_type_partial_charge
C1    C     C_R   0.044378 0.794596 0.497239 0.957259
C2    C     C_R   0.191041 0.590522 0.820358 -0.130262
C3    C     C_2   0.067585 0.958173 0.495762 -0.378270
C4    C     C_R   0.114863 0.532207 0.706970 0.864565
C5    C     C_2   0.932605 0.041857 0.504604 -0.385050
C6    C     C_R   0.955696 0.205428 0.502900 0.978973
C7    C     C_R   0.889640 0.486956 0.292074 0.875638
C8    C     C_R   0.855095 0.403877 0.995782 -0.185320
C9    C     C_R   0.826129 0.477336 0.176249 -0.053904
C10   C     C_R   0.083884 0.653475 0.884069 -0.217446
C11   C     C_R   0.147401 0.683396 0.995450 -0.119916
C12   C     C_R   0.428551 0.586088 0.981228 0.077816
C13   C     C_R   0.314252 0.642169 0.044963 -0.197059
C14   C     C_R   0.371836 0.580435 0.867386 0.096087
C15   C     C_R   0.596310 0.533014 0.024867 0.078151
C16   C     C_R   0.698658 0.472305 0.954487 0.163518
C17   C     C_R   0.650399 0.492365 0.844416 -0.281363
C18   C     C_R   0.498532 0.562476 0.804552 -0.183634
C19   C     C_R   0.665484 0.537349 0.135641 -0.270558
C20   C     C_R   0.919666 0.407053 0.107173 -0.208119
H1    H     H_    0.043120 0.357570 0.139060 0.162498
H2    H     H_    0.471403 0.366264 0.426465 0.190352
H3    H     H_    0.598692 0.590809 0.192111 0.160787
H4    H     H_    0.484170 0.605155 0.725104 0.171256
H5    H     H_    0.528648 0.640739 0.566075 0.172663
H6    H     H_    0.733960 0.461326 0.790167 0.186176
H7    H     H_    0.930774 0.354250 0.942013 0.152207
H8    H     H_    0.950676 0.678237 0.848033 0.164053
H9    H     H_    0.348800 0.656531 0.132432 0.135077
H10   H     H_    0.062987 0.730117 0.044569 0.155470
H11   H     H_    0.194931 0.009182 0.487357 0.178959
H12   H     H_    0.805275 0.990843 0.513039 0.178281
N1    N     N_2   0.434800 0.456690 0.470850 -0.176178
N2    N     N_2   0.565200 0.543310 0.529150 -0.182914
O1    O     O_R   0.893060 0.738880 0.507150 -0.615737
O2    O     O_R   0.172250 0.711130 0.488470 -0.636575
O3    O     O_R   0.944700 0.520730 0.667600 -0.630631
O4    O     O_R   0.223890 0.492980 0.648920 -0.622835
O5    O     O_R   0.827750 0.288870 0.511530 -0.626283
O6    O     O_R   0.106940 0.261120 0.492850 -0.608965
O7    O     O_R   0.776110 0.507020 0.351080 -0.628480
O8    O     O_R   0.055300 0.479270 0.332400 -0.623275
Zn1   Zn    Zn3+2 0.813580 0.518530 0.512470 0.928356
Zn2   Zn    Zn3+2 0.186420 0.481470 0.487530 0.934631

loop_
_geom_bond_atom_site_label_1
_geom_bond_atom_site_label_2
_ccdc_geom_bond_type
O3    Zn1   S    
C2    C4    S    
O4    Zn2   S    
O1    Zn1   S    
C14   C18   A    
C9    C20   A    
C19   H3    S    
C12   C15   A    
O6    Zn2   S    
H5    N2    S    
C5    H12   S    
N1    N2    D    
C8    C16   A    
C20   H1    S    
C3    H11   S    
C12   C13   A    
O7    Zn1   S    
C8    C20   A    
O8    Zn2   S    
C18   H4    S    
C17   H6    S    
C13   H9    S    
C12   C14   A    
C17   C18   A    
C7    O7    A    
C1    O2    A    
C5    C6    S    
C2    C14   A    
C6    O6    A    
O2    Zn2   S    
C10   C11   A    
C15   C16   A    
C2    C10   A    
C11   C13   A    
C4    O3    A    
C1    O1    A    
C7    O8    A    
C10   H8    S    
C7    C9    S    
H2    N1    S    
C6    O5    A    
C8    H7    S    
O5    Zn1   S    
C3    C5    D    
C15   C19   A    
N1    Zn2   S    
C9    C19   A    
N2    Zn1   S    
C11   H10   S    
C4    O4    A    
C16   C17   A    
C1    C3    S    
