data_mof_unit_7391.cif
_audit_creation_date              2013-03-05T15:40:31-0500
_audit_creation_method            fapswitch 2.2
_symmetry_space_group_name_H-M    P1
_symmetry_Int_Tables_number       1
_space_group_crystal_system       triclinic
_cell_length_a                    12.126145
_cell_length_b                    12.336094
_cell_length_c                    23.421486
_cell_angle_alpha                 90.806465
_cell_angle_beta                  90.976645
_cell_angle_gamma                 90.28281
_cell_volume                      3502.6999336

loop_
_atom_site_label
_atom_site_type_symbol
_atom_site_description
_atom_site_fract_x
_atom_site_fract_y
_atom_site_fract_z
_atom_type_partial_charge
O1    O     O_R   0.621380 0.090460 0.561410 -0.610112
O2    O     O_R   0.378620 0.909540 0.438590 -0.608186
O3    O     O_R   0.617150 0.909540 0.438590 -0.584524
O4    O     O_R   0.382850 0.090460 0.561410 -0.586315
O5    O     O_R   0.619720 0.093230 0.440890 -0.610169
O6    O     O_R   0.380280 0.906770 0.559110 -0.605916
O7    O     O_R   0.618800 0.906770 0.559110 -0.610785
O8    O     O_R   0.381200 0.093230 0.440890 -0.615056
C1    C     C_R   0.655773 0.997304 0.580066 0.939503
C2    C     C_R   0.343914 0.002020 0.420420 0.974891
C3    C     C_R   0.651483 0.001166 0.419682 0.895230
C4    C     C_R   0.349987 0.999289 0.581081 0.927931
Zn1   Zn    Zn3+2 0.501730 0.123520 0.501540 1.106966
Zn2   Zn    Zn3+2 0.498270 0.876480 0.498460 1.112341
C5    C     C_R   0.093223 0.088604 0.335909 -0.140558
C6    C     C_R   0.904839 0.908234 0.666626 -0.146602
C7    C     C_R   0.174249 0.082897 0.379327 -0.081254
C8    C     C_R   0.815266 0.905599 0.627787 -0.074208
C9    C     C_R   0.885739 0.927464 0.327108 -0.047314
C10   C     C_R   0.118784 0.074834 0.675101 -0.062295
C11   C     C_R   0.810424 0.923036 0.369796 -0.048904
C12   C     C_R   0.199971 0.085352 0.635767 -0.023783
C13   C     C_R   0.086886 0.173782 0.201484 -0.004054
C14   C     C_R   0.912386 0.827538 0.799198 -0.011263
C15   C     C_R   0.077872 0.265148 0.166573 -0.086415
C16   C     C_R   0.921556 0.735765 0.833866 -0.082895
C17   C     C_R   0.906746 0.815281 0.207506 0.616092
C18   C     C_R   0.096344 0.183676 0.793728 0.609807
C19   C     C_R   0.909274 0.732668 0.166014 -0.224113
C20   C     C_R   0.092482 0.267158 0.834609 -0.215333
C21   C     C_R   0.076728 0.889201 0.170554 -0.189748
C22   C     C_R   0.922983 0.112994 0.828189 -0.193670
C23   C     C_R   0.079186 0.808952 0.129679 0.717410
C24   C     C_R   0.920276 0.192884 0.869240 0.712152
C25   C     C_R   0.920851 0.095780 0.153588 -0.085401
C26   C     C_R   0.079447 0.904185 0.846701 -0.085467
C27   C     C_R   0.926554 0.178048 0.113192 -0.113274
C28   C     C_R   0.073304 0.822068 0.887105 -0.112694
C29   C     C_R   0.161893 0.917076 0.297096 0.619093
C30   C     C_R   0.844385 0.085983 0.700560 0.614039
C31   C     C_R   0.252789 0.922704 0.333927 -0.150448
C32   C     C_R   0.753118 0.081115 0.663870 -0.145875
C33   C     C_R   0.796582 0.085514 0.285145 -0.011158
C34   C     C_R   0.203861 0.912804 0.715016 -0.004756
C35   C     C_R   0.715565 0.078192 0.328006 -0.070728
C36   C     C_R   0.284675 0.919771 0.672024 -0.079913
C37   C     C_3   0.988650 0.003185 0.246848 -0.069565
C38   C     C_3   0.012820 0.997002 0.753359 -0.070085
C39   C     C_R   0.086107 0.005208 0.292197 -0.162107
C40   C     C_R   0.916463 0.995627 0.707540 -0.150418
C41   C     C_R   0.257029 0.003686 0.376509 -0.259637
C42   C     C_R   0.740712 0.993280 0.625470 -0.261088
C43   C     C_R   0.884283 0.007018 0.284340 0.097797
C44   C     C_R   0.117221 0.992318 0.716160 0.095292
C45   C     C_R   0.725984 0.999966 0.371508 -0.142859
C46   C     C_R   0.278240 0.002277 0.630594 -0.146999
C47   C     C_R   0.997180 0.095671 0.201922 -0.065285
C48   C     C_R   0.002885 0.904941 0.798496 -0.062637
C49   C     C_R   0.999639 0.265396 0.121894 -0.195701
C50   C     C_R   0.000155 0.734921 0.878329 -0.195440
C51   C     C_R   0.990507 0.897473 0.209907 -0.048633
C52   C     C_R   0.011162 0.102883 0.790222 -0.048517
C53   C     C_R   0.992843 0.733824 0.124950 -0.308387
C54   C     C_R   0.007374 0.266983 0.874795 -0.306785
H1    H     H_    0.949084 0.865602 0.327109 0.177306
H2    H     H_    0.057155 0.138220 0.676313 0.189141
H3    H     H_    0.142111 0.948029 0.170231 0.238054
H4    H     H_    0.856897 0.055171 0.827879 0.239269
O9    O     O_R   0.087590 0.627480 0.058790 -0.558863
O10   O     O_R   0.912410 0.372520 0.941210 -0.557624
O11   O     O_R   0.905660 0.383870 0.059980 -0.610172
O12   O     O_R   0.094340 0.616130 0.940020 -0.609573
O13   O     O_R   0.092570 0.390420 0.063230 -0.617299
O14   O     O_R   0.907430 0.609580 0.936770 -0.617539
O15   O     O_R   0.900680 0.620930 0.055550 -0.619528
O16   O     O_R   0.099320 0.379070 0.944450 -0.620074
C55   C     C_R   0.993025 0.657430 0.077293 1.016852
C56   C     C_R   0.006988 0.342836 0.922622 1.014794
C57   C     C_R   0.999385 0.352868 0.080761 0.916364
C58   C     C_R   0.000582 0.647163 0.919269 0.911187
Zn3   Zn    Zn3+2 0.125690 0.504390 0.002180 1.124627
Zn4   Zn    Zn3+2 0.874310 0.495610 0.997820 1.125057
C59   C     C_2   0.166582 0.154641 0.430601 1.004102
O17   O     O_2   0.153740 0.114079 0.477295 -0.599406
O18   O     O_R   0.174342 0.267155 0.425451 -0.731793
H5    H     H_    0.168099 0.306507 0.463539 0.364346
C60   C     C_2   0.799868 0.807335 0.590904 1.004092
O19   O     O_2   0.860757 0.791540 0.550717 -0.572944
O20   O     O_R   0.719291 0.730791 0.604285 -0.723853
H6    H     H_    0.717692 0.666816 0.576633 0.351679
C61   C     C_2   0.197614 0.158248 0.229297 0.919839
O21   O     O_2   0.232369 0.223564 0.265130 -0.536641
O22   O     O_R   0.265823 0.074062 0.211288 -0.792787
H7    H     H_    0.339208 0.073267 0.232681 0.381780
C62   C     C_2   0.801455 0.843139 0.771416 0.917308
O23   O     O_2   0.764670 0.775255 0.737496 -0.530766
O24   O     O_R   0.735339 0.930509 0.787124 -0.795128
H8    H     H_    0.661882 0.930912 0.765784 0.384818
F1    F     F_    0.816494 0.817580 0.240776 -0.634401
F2    F     F_    0.189410 0.178621 0.762649 -0.638674
C63   C     C_2   0.840885 0.005886 0.139511 0.908126
O25   O     O_2   0.855429 0.949581 0.096880 -0.606402
O26   O     O_R   0.747946 0.988011 0.172470 -0.715837
H9    H     H_    0.699844 0.926581 0.156908 0.396992
C64   C     C_2   0.160303 0.993175 0.860700 0.910578
O27   O     O_2   0.145166 0.051090 0.902672 -0.606979
O28   O     O_R   0.255189 0.007725 0.828774 -0.710914
H10   H     H_    0.304047 0.068543 0.844378 0.399106
F3    F     F_    0.147305 0.820919 0.269214 -0.648847
F4    F     F_    0.863540 0.183551 0.726382 -0.651780
C65   C     C_2   0.786644 0.178520 0.245526 0.945259
O29   O     O_2   0.706025 0.185081 0.213652 -0.523830
O30   O     O_R   0.862498 0.263680 0.248409 -0.781559
H11   H     H_    0.844377 0.323408 0.220571 0.369516
C66   C     C_2   0.213021 0.819437 0.754489 0.945247
O31   O     O_2   0.294249 0.811459 0.785831 -0.523656
O32   O     O_R   0.135682 0.735570 0.752129 -0.781770
H12   H     H_    0.153537 0.675457 0.779782 0.370272
C67   C     C_2   0.829430 0.839263 0.413388 0.960012
O33   O     O_2   0.914734 0.841880 0.441951 -0.547818
O34   O     O_R   0.755751 0.752459 0.418082 -0.731232
H13   H     H_    0.780006 0.698774 0.448104 0.366136
C68   C     C_2   0.199119 0.187790 0.603107 1.007349
O35   O     O_2   0.114387 0.216470 0.578731 -0.578298
O36   O     O_R   0.290533 0.257341 0.605751 -0.742904
H14   H     H_    0.278475 0.325981 0.583223 0.350732
C69   C     C_2   0.151001 0.361386 0.176065 1.025272
O37   O     O_2   0.250466 0.354211 0.169168 -0.549668
O38   O     O_R   0.104231 0.461207 0.190514 -0.747227
H15   H     H_    0.161197 0.521360 0.194638 0.374078
C70   C     C_2   0.848143 0.639753 0.824472 1.029249
O39   O     O_2   0.749221 0.646424 0.833173 -0.549168
O40   O     O_R   0.894189 0.540644 0.808125 -0.745795
H16   H     H_    0.837147 0.480511 0.804271 0.373387
C71   C     C_2   0.824772 0.645007 0.167135 1.075077
O41   O     O_2   0.727488 0.667264 0.173339 -0.525844
O42   O     O_R   0.856946 0.536705 0.161901 -0.785543
H17   H     H_    0.792060 0.484653 0.162675 0.350511
C72   C     C_2   0.177441 0.354463 0.833920 1.072456
O43   O     O_2   0.274907 0.331795 0.828887 -0.523438
O44   O     O_R   0.145429 0.462948 0.838259 -0.787893
H18   H     H_    0.210520 0.514794 0.837848 0.351263
F5    F     F_    0.165506 0.808002 0.093513 -0.595077
F6    F     F_    0.833179 0.194165 0.904927 -0.594201
C73   C     C_2   0.858184 0.169762 0.059875 1.027252
O45   O     O_2   0.903365 0.160485 0.013855 -0.546549
O46   O     O_R   0.743148 0.170911 0.062740 -0.730604
H19   H     H_    0.706227 0.164142 0.023684 0.383196
C74   C     C_2   0.140702 0.830637 0.940694 1.026643
O47   O     O_2   0.094599 0.841393 0.986367 -0.546055
O48   O     O_R   0.255781 0.828167 0.938485 -0.730875
H20   H     H_    0.291952 0.835326 0.977707 0.384189
C75   C     C_2   0.343299 0.842568 0.326714 1.044987
O49   O     O_2   0.322184 0.746135 0.319963 -0.507394
O50   O     O_R   0.452991 0.878166 0.327059 -0.763631
H21   H     H_    0.507196 0.816636 0.321892 0.376145
C76   C     C_2   0.667716 0.166927 0.668952 1.049445
O51   O     O_2   0.694351 0.262686 0.670903 -0.514364
O52   O     O_R   0.556481 0.137381 0.672208 -0.760486
H22   H     H_    0.505974 0.202343 0.675454 0.381426
C77   C     C_2   0.619792 0.153506 0.327976 1.002987
O53   O     O_2   0.634905 0.251580 0.330376 -0.557621
O54   O     O_R   0.512577 0.111420 0.325993 -0.765515
H23   H     H_    0.454359 0.170117 0.326438 0.369092
C78   C     C_2   0.378512 0.842242 0.671039 1.002063
O55   O     O_2   0.361078 0.744564 0.668121 -0.555318
O56   O     O_R   0.486688 0.881981 0.672942 -0.768485
H24   H     H_    0.543506 0.822005 0.672157 0.385775
C79   C     C_2   0.015529 0.180927 0.340367 0.988306
O57   O     O_2   0.938179 0.175352 0.373015 -0.617315
O58   O     O_R   0.042470 0.280145 0.316067 -0.685471
H25   H     H_    0.991124 0.340646 0.328038 0.395567
C80   C     C_2   0.982927 0.816137 0.662318 0.975738
O59   O     O_2   0.060936 0.822608 0.630168 -0.581637
O60   O     O_R   0.954796 0.715970 0.685279 -0.714742
H26   H     H_    0.006503 0.655817 0.673249 0.393544

loop_
_geom_bond_atom_site_label_1
_geom_bond_atom_site_label_2
_geom_bond_distance
_ccdc_geom_bond_type
C6    C80   1.486012 S    
O58   H25   1.013876 S    
C19   C53   1.409118 A    
C78   O55   1.223103 D    
C36   C78   1.490307 S    
C20   C54   1.408580 A    
C17   C19   1.399078 A    
C79   O57   1.222509 D    
C21   C51   1.408657 A    
O9    C55   1.286809 A    
C62   O23   1.223477 D    
C60   O19   1.220244 D    
C7    C41   1.406041 A    
O11   C57   1.290551 A    
C77   O53   1.223118 D    
C8    C42   1.414154 A    
C68   O35   1.223147 D    
C29   C31   1.388896 A    
O18   H5    1.013753 S    
C23   F5    1.357693 S    
C38   C44   1.549847 S    
C64   O28   1.395111 S    
C24   F6    1.358027 S    
O22   H7    1.013934 S    
C10   H2    1.084707 S    
C9    C11   1.367069 A    
O16   C56   1.297633 A    
O30   H11   1.013173 S    
C26   C48   1.449606 A    
C74   O48   1.397774 S    
O52   H22   1.013803 S    
C73   O45   1.221597 D    
C68   O36   1.398393 S    
O10   C56   1.286709 A    
C66   O31   1.223548 D    
O26   H9    1.013892 S    
C5    C79   1.485327 S    
C13   C47   1.449900 A    
O4    Zn1   2.071208 S    
C35   C77   1.490825 S    
C17   C51   1.431481 A    
O46   H19   1.013763 S    
C77   O54   1.397347 S    
C74   O47   1.221295 D    
C33   C43   1.441998 A    
C76   O51   1.223135 D    
O54   H23   1.013847 S    
C34   C66   1.490436 S    
C66   O32   1.392839 S    
O28   H10   1.013895 S    
C21   C23   1.368227 A    
C75   O50   1.398549 S    
C71   O41   1.223127 D    
C28   C74   1.488263 S    
O5    Zn1   2.064990 S    
O12   Zn3   2.051095 S    
O42   H17   1.013680 S    
C37   C43   1.553141 S    
O11   Zn4   2.051095 S    
C18   F2    1.354524 S    
C38   C40   1.572813 S    
O48   H20   1.013752 S    
C14   C48   1.451565 A    
C78   O56   1.397874 S    
O14   C58   1.294163 A    
C80   O60   1.397583 S    
C79   O58   1.396678 S    
C1    C42   1.469316 S    
C33   C65   1.489796 S    
O14   Zn4   2.062310 S    
O2    Zn2   2.047019 S    
C2    C41   1.460141 S    
O13   Zn3   2.062311 S    
C73   O46   1.397823 S    
C34   C36   1.420167 A    
O24   H8    1.014011 S    
C31   C75   1.490884 S    
C67   O34   1.397921 S    
C72   O43   1.223128 D    
C63   O25   1.223997 D    
C12   C68   1.486350 S    
O1    C1    1.303123 A    
C10   C44   1.410434 A    
C14   C62   1.498713 S    
C49   C57   1.456619 S    
O56   H24   1.013668 S    
C11   C45   1.400213 A    
C30   F4    1.356586 S    
C25   C63   1.498974 S    
C80   O59   1.222066 D    
O7    Zn2   2.050011 S    
C7    C59   1.486224 S    
C22   C24   1.368033 A    
C76   O52   1.399106 S    
C21   H3    1.072381 S    
C69   O38   1.397935 S    
C61   O22   1.395916 S    
O15   C55   1.298126 A    
C38   C52   1.555956 S    
C59   O17   1.221097 D    
C23   C53   1.396784 A    
C17   F1    1.354433 S    
O7    C1    1.288935 A    
C24   C54   1.396569 A    
O13   C57   1.294618 A    
C65   O30   1.393062 S    
C4    C46   1.461708 S    
C33   C35   1.419993 A    
O34   H13   1.013659 S    
C27   C49   1.402238 A    
O3    Zn2   2.071209 S    
O9    Zn3   2.061130 S    
C28   C50   1.401046 A    
C6    C8    1.404797 A    
C59   O18   1.397762 S    
C10   C12   1.366678 A    
C60   O20   1.397924 S    
O5    C3    1.296103 A    
O36   H14   1.013872 S    
C13   C61   1.496706 S    
C32   C76   1.489536 S    
O4    C4    1.285469 A    
C70   O39   1.223131 D    
O2    C2    1.293076 A    
C61   O21   1.223416 D    
C3    C45   1.457349 S    
C25   C27   1.399450 A    
O38   H15   1.013804 S    
C53   C55   1.450691 S    
C71   O42   1.397987 S    
C62   O24   1.395431 S    
C50   C58   1.456237 S    
C20   C72   1.487163 S    
C65   O29   1.223575 D    
C19   C71   1.486889 S    
C26   C64   1.497417 S    
C54   C56   1.449526 S    
O8    C2    1.293336 A    
C37   C47   1.567137 S    
C14   C16   1.406205 A    
C6    C40   1.437099 A    
C30   C32   1.390096 A    
C70   O40   1.397858 S    
C11   C67   1.479039 S    
O16   Zn3   2.059617 S    
C37   C51   1.555286 S    
C12   C46   1.405613 A    
C67   O33   1.222321 D    
C29   C39   1.431612 A    
O15   Zn4   2.059617 S    
C38   C48   1.568016 S    
C37   C39   1.575287 S    
C64   O27   1.223990 D    
O32   H12   1.013215 S    
C8    C60   1.487725 S    
C22   H4    1.070077 S    
C25   C47   1.450029 A    
C18   C20   1.397797 A    
C15   C69   1.490203 S    
C22   C52   1.407214 A    
O6    Zn2   2.064990 S    
O12   C58   1.290752 A    
O60   H26   1.013850 S    
O44   H18   1.013710 S    
O6    C4    1.302467 A    
C72   O44   1.398086 S    
C9    C43   1.412113 A    
O40   H16   1.013796 S    
C30   C40   1.429316 A    
C26   C28   1.398539 A    
C9    H1    1.085441 S    
C5    C39   1.442375 A    
O10   Zn4   2.061131 S    
O3    C3    1.289483 A    
O8    Zn1   2.050009 S    
C34   C44   1.441200 A    
C29   F3    1.355361 S    
C13   C15   1.405344 A    
O1    Zn1   2.047021 S    
C35   C45   1.417670 A    
C63   O26   1.395235 S    
C36   C46   1.417618 A    
O50   H21   1.013839 S    
C15   C49   1.400463 A    
C27   C73   1.489131 S    
O20   H6    1.013759 S    
C5    C7    1.404662 A    
C16   C50   1.399851 A    
C31   C41   1.401792 A    
C16   C70   1.489732 S    
C69   O37   1.223090 D    
C32   C42   1.404254 A    
C75   O49   1.223128 D    
C18   C52   1.432369 A    
