data_mof_unit_49505.cif
_audit_creation_date              2012-12-10T18:07:29-0500
_audit_creation_method            fapswitch 2.2
_symmetry_space_group_name_H-M    P1
_symmetry_Int_Tables_number       1
_space_group_crystal_system       triclinic
_cell_length_a                    11.546204
_cell_length_b                    12.636628
_cell_length_c                    13.06956
_cell_angle_alpha                 82.12511
_cell_angle_beta                  90.582565
_cell_angle_gamma                 102.744697
_cell_volume                      1841.99710804

loop_
_atom_site_label
_atom_site_type_symbol
_atom_type_description
_atom_site_fract_x
_atom_site_fract_y
_atom_site_fract_z
_atom_type_partial_charge
C1    C     C_R   0.481420 0.438664 0.691435 0.842438
C2    C     C_R   0.377543 0.637844 0.897925 0.195952
C3    C     C_R   0.384873 0.557924 0.835158 -0.225318
C4    C     C_R   0.717833 0.501050 0.500331 0.892470
C5    C     C_R   0.536703 0.536269 0.127573 0.166736
C6    C     C_R   0.453031 0.685761 0.167355 -0.231853
C7    C     C_R   0.463720 0.399538 0.801824 -0.101682
C8    C     C_R   0.321834 0.084868 0.359536 -0.295093
C9    C     C_R   0.634536 0.795115 0.633482 -0.042636
C10   C     C_R   0.657154 0.894731 0.670487 -0.356554
C11   C     C_R   0.606629 0.980006 0.623445 0.491913
C12   C     C_R   0.508776 0.599643 0.199197 -0.105220
C13   C     C_R   0.528427 0.961171 0.538528 -0.095842
C14   C     C_R   0.504615 0.855041 0.507706 0.132472
C15   C     C_R   0.471077 0.040474 0.483656 -0.044380
C16   C     C_R   0.514101 0.561363 0.308584 0.839678
C17   C     C_R   0.381228 0.008030 0.410995 0.142612
C18   C     C_R   0.354870 0.900506 0.388022 0.147546
C19   C     C_R   0.421850 0.828165 0.431523 -0.253908
C20   C     C_R   0.500910 0.152018 0.494905 -0.001130
C21   C     C_R   0.352132 0.192053 0.378817 -0.007431
C22   C     C_R   0.282163 0.498930 0.499807 0.887887
C23   C     C_R   0.487691 0.297928 0.841823 -0.194566
C24   C     C_1   0.838931 0.502679 0.500904 -0.194450
C25   C     C_1   0.940917 0.501360 0.500772 -0.007476
C26   C     C_1   0.059089 0.498559 0.500167 -0.015613
C27   C     C_1   0.161072 0.497250 0.499716 -0.197013
C28   C     C_R   0.415008 0.702183 0.066499 -0.199968
C29   C     C_3   0.146222 0.826992 0.369794 -0.777135
C30   C     C_3   0.738941 0.130754 0.666163 0.060965
C31   C     C_3   0.749059 0.238047 0.709768 -0.827487
C32   C     C_3   0.271659 0.737406 0.761873 -0.762573
C33   C     C_3   0.734894 0.524580 0.078137 -0.787869
C34   C     C_R   0.495269 0.270160 0.947924 -0.164357
C35   C     C_R   0.488523 0.346849 0.013408 -0.131461
C36   C     C_R   0.468972 0.451234 0.973215 0.077808
C37   C     C_R   0.438316 0.469651 0.869450 0.025325
C38   C     C_R   0.476120 0.536714 0.033557 0.011992
C39   C     C_R   0.423338 0.626801 0.998486 0.045992
H1    H     H_    0.434824 0.737703 0.221492 0.148190
H2    H     H_    0.511567 0.191009 0.979128 0.150102
H3    H     H_    0.347127 0.563100 0.759285 0.180330
H4    H     H_    0.306107 0.252021 0.341017 0.141237
H5    H     H_    0.279790 0.809502 0.274168 0.218402
H6    H     H_    0.077950 0.805865 0.311063 0.239511
H7    H     H_    0.123361 0.892078 0.409720 0.248190
H8    H     H_    0.144876 0.752862 0.426853 0.248951
H9    H     H_    0.772445 0.150163 0.584523 0.137357
H10   H     H_    0.796818 0.083752 0.712541 0.151397
H11   H     H_    0.721303 0.221183 0.792581 0.254173
H12   H     H_    0.253279 0.063173 0.304169 0.179112
H13   H     H_    0.842535 0.285411 0.702899 0.215010
H14   H     H_    0.691893 0.288035 0.666692 0.259093
H15   H     H_    0.384827 0.805650 0.872152 0.229848
H16   H     H_    0.232838 0.811016 0.750684 0.239846
H17   H     H_    0.198101 0.664215 0.760690 0.241781
H18   H     H_    0.336215 0.744342 0.697493 0.252114
H19   H     H_    0.657386 0.467336 0.221775 0.239148
H20   H     H_    0.801989 0.474073 0.095287 0.240642
H21   H     H_    0.775197 0.610194 0.090208 0.239092
H22   H     H_    0.710380 0.522843 0.995954 0.256505
H23   H     H_    0.573013 0.187540 0.539869 0.190011
H24   H     H_    0.673449 0.729719 0.670602 0.165832
H25   H     H_    0.710843 0.903954 0.738383 0.157717
H26   H     H_    0.404722 0.749375 0.406568 0.211741
H27   H     H_    0.371561 0.769369 0.045319 0.151917
H28   H     H_    0.503119 0.241229 0.791152 0.189668
H29   H     H_    0.495904 0.322638 0.095383 0.162258
N1    N     N_R   0.440320 0.222190 0.444690 -0.113697
N2    N     N_R   0.559060 0.776980 0.554780 -0.117874
N3    N     N_2   0.261944 0.864707 0.319649 -0.316996
N4    N     N_2   0.330885 0.731896 0.860097 -0.308295
N5    N     N_2   0.632264 0.480842 0.146150 -0.320214
O1    O     O_R   0.471500 0.366730 0.627160 -0.607976
O2    O     O_R   0.509620 0.544830 0.662520 -0.616860
O3    O     O_R   0.646490 0.410960 0.482310 -0.624601
O4    O     O_R   0.684610 0.589050 0.517670 -0.604151
O5    O     O_R   0.490380 0.455170 0.337480 -0.617041
O6    O     O_R   0.528500 0.633270 0.372840 -0.623712
O7    O     O_R   0.315390 0.410950 0.482330 -0.604081
O8    O     O_R   0.353510 0.589040 0.517690 -0.634501
O9    O     O_3   0.618705 0.072684 0.671862 -0.630819
Zn1   Zn    Zn3+2 0.474550 0.381080 0.476390 0.937715
Zn2   Zn    Zn3+2 0.525450 0.618920 0.523610 0.923155

loop_
_geom_bond_atom_site_label_1
_geom_bond_atom_site_label_2
_ccdc_geom_bond_type
C3    H3    S    
C35   C36   A    
C31   H13   S    
C32   N4    S    
C26   C27   T    
C29   H8    S    
C1    O1    A    
C30   H9    S    
C36   C37   A    
C18   C19   A    
C6    C12   A    
O6    Zn2   S    
C4    C24   S    
O2    Zn2   S    
H5    N3    S    
C34   C35   A    
C23   H28   S    
C21   H4    S    
O5    Zn1   S    
C6    C28   A    
C12   C16   S    
N2    Zn2   S    
C9    C10   A    
O1    Zn1   S    
C32   H16   S    
C33   H20   S    
C1    C7    S    
C13   C14   A    
C20   H23   S    
C14   N2    A    
C34   H2    S    
C32   H18   S    
O7    Zn1   S    
C2    N4    S    
C2    C39   A    
O3    Zn1   S    
C8    C21   A    
C11   O9    S    
C15   C20   A    
C1    O2    A    
C22   O8    A    
C38   C39   A    
C24   C25   T    
C5    C12   A    
C28   C39   A    
C25   C26   S    
C21   N1    A    
C30   O9    S    
C28   H27   S    
N1    Zn1   S    
C23   C34   A    
C17   C18   A    
C7    C37   A    
C31   H14   S    
C8    H12   S    
C33   N5    S    
C30   H10   S    
C33   H21   S    
C22   C27   S    
C13   C15   A    
C6    H1    S    
C20   N1    A    
C31   H11   S    
O8    Zn2   S    
C18   N3    S    
C15   C17   A    
C9    H24   S    
C14   C19   A    
C10   H25   S    
C8    C17   A    
O4    Zn2   S    
C29   H7    S    
C16   O6    A    
C36   C38   A    
C2    C3    A    
C22   O7    A    
C4    O4    A    
C11   C13   A    
C30   C31   S    
C35   H29   S    
C7    C23   A    
C19   H26   S    
C16   O5    A    
C5    N5    S    
C4    O3    A    
C10   C11   A    
C9    N2    A    
H15   N4    S    
C3    C37   A    
C33   H22   S    
C29   H6    S    
C5    C38   A    
C32   H17   S    
H19   N5    S    
C29   N3    S    
