data_mof_unit_26311.cif
_audit_creation_date              2013-03-05T16:07:03-0500
_audit_creation_method            fapswitch 2.2
_symmetry_space_group_name_H-M    P1
_symmetry_Int_Tables_number       1
_space_group_crystal_system       triclinic
_cell_length_a                    16.900001
_cell_length_b                    7.243665
_cell_length_c                    16.842064
_cell_angle_alpha                 89.999904
_cell_angle_beta                  100.436457
_cell_angle_gamma                 90.000012
_cell_volume                      2027.66178147

loop_
_atom_site_label
_atom_site_type_symbol
_atom_site_description
_atom_site_fract_x
_atom_site_fract_y
_atom_site_fract_z
_atom_type_partial_charge
O1    O     O_R   0.413450 0.494370 0.415710 -0.592568
O2    O     O_R   0.586550 0.994370 0.584290 -0.592557
O3    O     O_R   0.578420 0.819350 0.429360 -0.580415
O4    O     O_R   0.421580 0.319350 0.570640 -0.580430
C1    C     C_R   0.604921 0.653986 0.413841 0.981487
C2    C     C_R   0.395078 0.153986 0.586159 0.981494
O5    O     O_R   0.413570 0.823780 0.406240 -0.586755
O6    O     O_R   0.586430 0.323780 0.593760 -0.586769
O7    O     O_R   0.420530 0.998740 0.561000 -0.604225
O8    O     O_R   0.579470 0.498740 0.439000 -0.604232
C3    C     C_R   0.386094 0.655426 0.383843 0.975241
C4    C     C_R   0.613906 0.155426 0.616157 0.975251
O9    O     O_3   0.502480 0.662320 0.550800 -0.293576
O10   O     O_3   0.497520 0.162320 0.449200 -0.293571
V1    V     V_3+5 0.499540 0.935370 0.490580 1.198364
V2    V     V_3+5 0.500460 0.435370 0.509420 1.198347
C5    C     C_R   0.747838 0.027331 0.682793 0.135710
C6    C     C_R   0.252165 0.527324 0.317205 0.135728
C7    C     C_R   0.683455 0.148264 0.683641 -0.268784
C8    C     C_R   0.316545 0.648265 0.316359 -0.268786
C9    C     C_R   0.689286 0.270506 0.749429 -0.244997
C10   C     C_R   0.310713 0.770509 0.250571 -0.244974
H1    H     H_    0.641428 0.368977 0.751504 0.159408
H2    H     H_    0.358570 0.868983 0.248497 0.159405
C11   C     C_R   0.753567 0.258575 0.816025 0.380097
C12   C     C_R   0.246433 0.758577 0.183975 0.380090
C13   C     C_R   0.815823 0.125449 0.816478 -0.334696
C14   C     C_R   0.184178 0.625448 0.183522 -0.334711
C15   C     C_R   0.812451 0.017245 0.746892 0.069141
C16   C     C_R   0.187551 0.517236 0.253106 0.069159
C17   C     C_3   0.820710 0.813443 0.737393 -0.535786
C18   C     C_3   0.179300 0.313430 0.262599 -0.535781
C19   C     C_3   0.749097 0.823750 0.667934 0.197703
C20   C     C_3   0.250913 0.323739 0.332057 0.197684
H3    H     H_    0.807285 0.735522 0.789975 0.236430
H4    H     H_    0.192728 0.235524 0.210014 0.236429
H5    H     H_    0.878563 0.776418 0.718806 0.218888
H6    H     H_    0.121448 0.276387 0.281185 0.218886
H7    H     H_    0.694528 0.750056 0.679468 0.083350
H8    H     H_    0.305485 0.250064 0.320520 0.083353
C21   C     C_R   0.332489 0.132815 0.637460 -0.113066
C22   C     C_R   0.667511 0.632816 0.362540 -0.113056
C23   C     C_R   0.166844 0.136563 0.862531 -0.127815
C24   C     C_R   0.833155 0.636562 0.137469 -0.127815
C25   C     C_R   0.270948 0.330446 0.821191 -0.199767
C26   C     C_R   0.729051 0.830443 0.178807 -0.199764
C27   C     C_R   0.217884 0.292240 0.873771 -0.086472
C28   C     C_R   0.782115 0.792238 0.126228 -0.086470
C29   C     C_R   0.171658 0.016516 0.798020 -0.258437
C30   C     C_R   0.828343 0.516517 0.201981 -0.258433
C31   C     C_R   0.224734 0.055280 0.744252 0.198981
C32   C     C_R   0.775266 0.555281 0.255748 0.198975
C33   C     C_R   0.274475 0.214211 0.755599 0.200755
C34   C     C_R   0.725524 0.714210 0.244401 0.200748
C35   C     C_R   0.327490 0.253108 0.701807 -0.256938
C36   C     C_R   0.672509 0.753107 0.298192 -0.256926
C37   C     C_R   0.281707 0.976743 0.626347 -0.050977
C38   C     C_R   0.718294 0.476746 0.373654 -0.050981
C39   C     C_R   0.228442 0.938782 0.678767 -0.204743
C40   C     C_R   0.771560 0.438785 0.321234 -0.204730
H9    H     H_    0.366691 0.372545 0.711727 0.138878
H10   H     H_    0.633307 0.872542 0.288271 0.138877
H11   H     H_    0.283893 0.881556 0.577172 0.164904
H12   H     H_    0.716109 0.381561 0.422830 0.164899
H13   H     H_    0.308672 0.452211 0.831468 0.142423
H14   H     H_    0.691325 0.952207 0.168529 0.142424
H15   H     H_    0.190806 0.816869 0.668536 0.147466
H16   H     H_    0.809197 0.316874 0.331467 0.147467
H17   H     H_    0.216036 0.387090 0.923138 0.150394
H18   H     H_    0.783962 0.887086 0.076859 0.150395
H19   H     H_    0.132352 0.897271 0.788010 0.139337
H20   H     H_    0.867649 0.397274 0.211991 0.139337
O11   O     O_R   0.920630 0.775410 0.061150 -0.601156
O12   O     O_R   0.079370 0.275410 0.938850 -0.601157
O13   O     O_R   0.086500 0.441450 0.093690 -0.580897
O14   O     O_R   0.913500 0.941450 0.906310 -0.580894
C41   C     C_R   0.115075 0.610380 0.115173 0.954667
C42   C     C_R   0.884926 0.110381 0.884826 0.954663
O15   O     O_R   0.921670 0.445960 0.070740 -0.580652
O16   O     O_R   0.078330 0.945960 0.929260 -0.580652
O17   O     O_R   0.913380 0.271130 0.915780 -0.553075
O18   O     O_R   0.086620 0.771130 0.084220 -0.553071
C43   C     C_R   0.895779 0.615617 0.086124 0.982621
C44   C     C_R   0.104221 0.115617 0.913876 0.982623
O19   O     O_3   0.997500 0.603030 0.949220 -0.279601
O20   O     O_3   0.002500 0.103030 0.050780 -0.279599
V3    V     V_3+5 0.000470 0.329940 0.009420 1.230736
V4    V     V_3+5 0.999530 0.829940 0.990580 1.230737
N1    N     N_R   0.748954 0.366591 0.886273 0.223051
O21   O     O_R   0.689754 0.339542 0.924659 -0.404707
O22   O     O_R   0.792690 0.514329 0.901696 -0.420898
N2    N     N_R   0.251047 0.866591 0.113726 0.223048
O23   O     O_R   0.310252 0.839550 0.075346 -0.404708
O24   O     O_R   0.207307 0.014321 0.098298 -0.420899
N3    N     N_R   0.770809 0.775968 0.590235 0.252139
O25   O     O_R   0.786715 0.605028 0.575466 -0.400377
O26   O     O_R   0.767164 0.898092 0.532966 -0.400807
N4    N     N_R   0.229203 0.275929 0.409755 0.252141
O27   O     O_R   0.213334 0.104969 0.424528 -0.400391
O28   O     O_R   0.232797 0.398067 0.467014 -0.400787

loop_
_geom_bond_atom_site_label_1
_geom_bond_atom_site_label_2
_geom_bond_distance
_ccdc_geom_bond_type
O15   C43   1.345339 A    
C1    C22   1.489977 S    
C13   C15   1.402460 A    
C5    C15   1.391438 A    
N3    O25   1.300602 A    
O1    C3    1.331515 A    
O16   C44   1.345339 A    
C24   C43   1.490806 S    
O2    C4    1.331515 A    
C22   C38   1.411195 A    
C2    O7    1.301997 A    
O15   V3    2.011127 S    
O5    C3    1.334779 A    
C19   H7    1.112680 S    
C20   H8    1.112681 S    
C18   H4    1.107760 S    
C10   H2    1.083703 S    
C7    C9    1.407808 A    
O14   C42   1.340970 A    
C26   H14   1.083709 S    
C37   C39   1.397613 A    
C12   N2    1.432302 S    
C25   C27   1.397393 A    
C30   H20   1.084064 S    
C27   H17   1.083400 S    
C32   C40   1.399100 A    
C22   C36   1.405012 A    
C21   C35   1.405012 A    
C29   C31   1.413415 A    
C2    C21   1.489975 S    
C30   C32   1.413414 A    
C17   C19   1.525093 S    
C6    C16   1.391445 A    
C18   H6    1.112086 S    
O12   V3    1.980102 S    
N1    O22   1.299803 A    
O14   V4    2.008247 S    
C36   H10   1.084069 S    
C39   H15   1.083693 S    
C13   C42   1.487894 S    
O5    V1    2.008557 S    
C25   C33   1.398821 A    
O6    V2    2.008557 S    
C23   C44   1.490804 S    
C5    C19   1.496557 S    
C19   N3    1.463183 S    
C32   C34   1.417861 A    
C37   H11   1.083421 S    
C38   C40   1.397614 A    
C26   C28   1.397395 A    
C33   C35   1.413145 A    
C38   H12   1.083421 S    
C34   C36   1.413144 A    
C3    C8    1.480539 S    
O4    C2    1.321417 A    
O12   C44   1.325546 A    
O20   V3    1.783078 S    
C23   C29   1.405445 A    
C17   H5    1.112085 S    
C31   C33   1.417862 A    
C18   C20   1.525085 S    
O4    V2    2.011078 S    
O11   V4    1.980103 S    
C14   C41   1.487896 S    
O13   C41   1.340970 A    
O6    C4    1.334779 A    
C26   C34   1.398822 A    
N2    O24   1.299802 A    
O1    V2    1.998764 S    
O2    V1    1.998766 S    
C6    C20   1.496558 S    
O17   V3    1.998501 S    
O13   V3    2.008250 S    
C8    C10   1.407805 A    
N4    O28   1.301991 A    
C9    H1    1.083702 S    
C25   H13   1.083708 S    
C17   H3    1.107763 S    
C31   C39   1.399098 A    
C5    C7    1.398964 A    
O3    V1    2.011081 S    
O19   V4    1.783080 S    
C24   C30   1.405444 A    
C9    C11   1.415694 A    
C12   C14   1.426193 A    
C28   H18   1.083400 S    
O3    C1    1.321418 A    
N3    O26   1.301977 A    
C11   C13   1.426191 A    
C11   N1    1.432302 S    
C14   C16   1.402461 A    
O7    V1    1.993497 S    
C21   C37   1.411196 A    
C1    O8    1.301996 A    
O16   V4    2.011123 S    
O8    V2    1.993498 S    
C16   C18   1.494176 S    
C42   O17   1.329683 A    
C29   H19   1.084064 S    
C41   O18   1.329684 A    
O18   V4    1.998500 S    
C35   H9    1.084068 S    
C4    C7    1.480538 S    
N2    O23   1.300632 A    
C20   N4    1.463186 S    
C6    C8    1.398963 A    
C40   H16   1.083693 S    
C15   C17   1.494172 S    
N4    O27   1.300609 A    
C10   C12   1.415692 A    
O9    V2    1.783487 S    
O10   V1    1.783484 S    
N1    O21   1.300630 A    
C23   C27   1.411508 A    
O11   C43   1.325546 A    
C24   C28   1.411507 A    
