data_mof_unit_53021.cif
_audit_creation_date              2012-12-10T19:10:06-0500
_audit_creation_method            fapswitch 2.2
_symmetry_space_group_name_H-M    P1
_symmetry_Int_Tables_number       1
_space_group_crystal_system       triclinic
_cell_length_a                    10.792995
_cell_length_b                    10.82547
_cell_length_c                    9.541969
_cell_angle_alpha                 89.813699
_cell_angle_beta                  90.412577
_cell_angle_gamma                 88.853113
_cell_volume                      1114.61776677

loop_
_atom_site_label
_atom_site_type_symbol
_atom_type_description
_atom_site_fract_x
_atom_site_fract_y
_atom_site_fract_z
_atom_type_partial_charge
C1    C     C_R   0.497060 0.262694 0.500071 0.824075
C2    C     C_R   0.193653 0.844818 0.112463 -0.264437
C3    C     C_R   0.929867 0.575803 0.409814 -0.251511
C4    C     C_R   0.871473 0.495369 0.501503 -0.082949
C5    C     C_R   0.941572 0.419567 0.593905 0.024637
C6    C     C_R   0.069891 0.427615 0.593628 -0.208399
C7    C     C_R   0.128434 0.506510 0.499946 -0.073071
C8    C     C_R   0.058141 0.582685 0.408045 0.032344
C9    C     C_R   0.895987 0.324151 0.826099 -0.156120
C10   C     C_R   0.856795 0.224058 0.905932 -0.237032
C11   C     C_R   0.811221 0.119105 0.839855 -0.128408
C12   C     C_R   0.262375 0.504459 0.499561 0.780812
C13   C     C_R   0.802049 0.114244 0.693500 0.425893
C14   C     C_R   0.838438 0.216636 0.613443 -0.248508
C15   C     C_R   0.886509 0.321159 0.679451 0.084679
C16   C     C_R   0.443785 0.064010 0.612397 -0.037447
C17   C     C_R   0.485662 0.130387 0.497141 -0.159280
C18   C     C_R   0.510822 0.067020 0.372275 -0.247077
C19   C     C_R   0.509851 0.938770 0.368414 0.371080
C20   C     C_R   0.489581 0.871581 0.494134 -0.198741
C21   C     C_R   0.450512 0.937186 0.612034 0.049198
C22   C     C_3   0.485537 0.929680 0.763445 0.240602
C23   C     C_R   0.499464 0.737871 0.499033 0.839118
C24   C     C_3   0.472777 0.071509 0.765743 -0.046389
C25   C     C_R   0.608439 0.508643 0.074221 0.243535
C26   C     C_R   0.394779 0.478483 0.073545 -0.074030
C27   C     C_R   0.394677 0.478753 0.925096 -0.034673
C28   C     C_R   0.608246 0.509191 0.926877 0.258878
C29   C     C_3   0.696757 0.612847 0.920944 -0.472692
C30   C     C_3   0.698415 0.611354 0.079921 -0.493275
C31   C     C_R   0.737607 0.495890 0.500589 0.803927
C32   C     C_R   0.196318 0.873579 0.254957 -0.241655
C33   C     C_R   0.155252 0.788807 0.355509 0.181254
C34   C     C_R   0.113474 0.672110 0.310291 0.025832
C35   C     C_R   0.111691 0.644264 0.166648 -0.199315
C36   C     C_R   0.151226 0.729605 0.067287 0.474587
Cu1   Cu    Cu3+1 0.499990 0.499980 0.640670 0.961241
Cu2   Cu    Cu3+1 0.500010 0.500020 0.359330 0.943808
H1    H     H_    0.223019 0.913127 0.037447 0.175393
H2    H     H_    0.782915 0.041149 0.902516 0.148111
H3    H     H_    0.833678 0.213296 0.500032 0.108564
H4    H     H_    0.536521 0.116244 0.278179 0.186955
H5    H     H_    0.581856 0.893667 0.780595 0.118739
H6    H     H_    0.561110 0.118863 0.786238 0.164602
H7    H     H_    0.309268 0.461467 0.127507 0.149651
H8    H     H_    0.228135 0.963658 0.286585 0.156098
H9    H     H_    0.308728 0.462571 0.870277 0.161219
H10   H     H_    0.786976 0.584547 0.874452 0.208051
H11   H     H_    0.654230 0.698414 0.875687 0.211522
H12   H     H_    0.789478 0.580273 0.123590 0.193060
H13   H     H_    0.658800 0.696768 0.127223 0.253575
H14   H     H_    0.077056 0.556233 0.131431 0.137458
H15   H     H_    0.875053 0.636577 0.342186 0.157000
H16   H     H_    0.124820 0.367370 0.662003 0.138133
H17   H     H_    0.935409 0.403086 0.878260 0.141251
H18   H     H_    0.863905 0.226884 0.019086 0.150942
N1    N     N_R   0.500790 0.500930 0.147930 -0.190215
N2    N     N_R   0.500790 0.500890 0.852020 -0.189011
O1    O     O_R   0.500000 0.319640 0.618810 -0.587363
O2    O     O_R   0.500010 0.319680 0.381230 -0.589642
O3    O     O_R   0.319640 0.499990 0.618790 -0.586646
O4    O     O_R   0.319650 0.500030 0.381210 -0.591162
O5    O     O_R   0.499990 0.680320 0.618770 -0.558426
O6    O     O_R   0.500000 0.680360 0.381190 -0.564018
O7    O     O_R   0.680350 0.499970 0.618790 -0.575697
O8    O     O_R   0.680360 0.500010 0.381210 -0.585945
O9    O     O_3   0.758843 0.008214 0.632062 -0.782276
H19   H     H_    0.757669 0.019547 0.528898 0.323829
O10   O     O_3   0.539556 0.882897 0.243797 -0.753825
H20   H     H_    0.464075 0.839650 0.212940 0.333342
O11   O     O_3   0.395330 0.868065 0.840183 -0.738712
H21   H     H_    0.436284 0.840986 0.928792 0.327258
C37   C     C_3   0.363120 0.126925 0.848621 -0.323051
C38   C     C_3   0.394861 0.136944 0.004186 -0.857124
H22   H     H_    0.417211 0.044473 0.049057 0.276099
H23   H     H_    0.475553 0.197741 0.019445 0.249205
H24   H     H_    0.314487 0.177302 0.061240 0.234379
H25   H     H_    0.341502 0.221316 0.808129 0.200631
H26   H     H_    0.278259 0.071571 0.834644 0.231978
C39   C     C_3   0.152696 0.827312 0.507870 -0.431759
C40   C     C_3   0.023613 0.871155 0.552014 -0.737275
H27   H     H_    0.990202 0.947562 0.482548 0.245491
H28   H     H_    0.956982 0.794703 0.547888 0.265207
H29   H     H_    0.027353 0.905817 0.661371 0.250788
H30   H     H_    0.185920 0.750727 0.576887 0.219622
H31   H     H_    0.216179 0.905179 0.524968 0.205569
O12   O     O_3   0.145133 0.698506 0.927379 -0.744308
H32   H     H_    0.171867 0.769886 0.870578 0.352244

loop_
_geom_bond_atom_site_label_1
_geom_bond_atom_site_label_2
_ccdc_geom_bond_type
C31   O8    A    
O12   H32   S    
C16   C21   A    
C11   C13   A    
C37   C38   S    
C19   C20   A    
C30   H13   S    
C40   H27   S    
C7    C8    A    
C29   H11   S    
C25   C28   A    
C26   C27   A    
C39   H30   S    
C38   H23   S    
C28   C29   S    
Cu1   Cu2   S    
C18   C19   A    
C1    O1    A    
C5    C6    A    
C24   C37   S    
C2    C36   A    
C2    C32   A    
C34   C35   A    
C39   H31   S    
C26   H7    S    
C40   H28   S    
C2    H1    S    
Cu2   O8    S    
C16   C17   A    
C38   H24   S    
Cu1   O7    S    
C37   H25   S    
C9    H17   S    
C10   H18   S    
C9    C10   A    
Cu1   N2    S    
C23   O5    A    
C30   H12   S    
C16   C24   S    
C21   C22   S    
O10   H20   S    
C25   N1    A    
C6    H16   S    
Cu1   O5    S    
C33   C34   A    
Cu2   O6    S    
C36   O12   S    
C7    C12   S    
C38   H22   S    
C29   H10   S    
O9    H19   S    
C3    C8    A    
C1    O2    A    
C4    C5    A    
C35   C36   A    
C29   C30   S    
Cu2   N1    S    
C12   O4    A    
C22   H5    S    
C20   C23   S    
C17   C18   A    
C37   H26   S    
C8    C34   S    
Cu1   O1    S    
C14   H3    S    
Cu2   O2    S    
C23   O6    A    
C24   H6    S    
C22   C24   S    
C19   O10   S    
C3    C4    A    
C22   O11   S    
C40   H29   S    
C13   O9    S    
C27   H9    S    
C25   C30   S    
C31   O7    A    
C32   H8    S    
C39   C40   S    
C27   N2    A    
Cu1   O3    S    
C33   C39   S    
C6    C7    A    
C28   N2    A    
C1    C17   S    
C32   C33   A    
C18   H4    S    
C9    C15   A    
O11   H21   S    
C12   O3    A    
C3    H15   S    
C11   H2    S    
C26   N1    A    
C5    C15   S    
C4    C31   S    
C10   C11   A    
C20   C21   A    
C35   H14   S    
C14   C15   A    
C13   C14   A    
Cu2   O4    S    
