data_mof_unit_34087.cif
_audit_creation_date              2012-10-26T19:59:42-0400
_audit_creation_method            fapswitch 2.2
_symmetry_space_group_name_H-M    P1
_symmetry_Int_Tables_number       1
_space_group_crystal_system       triclinic
_cell_length_a                    10.836947
_cell_length_b                    8.685741
_cell_length_c                    7.44535
_cell_angle_alpha                 102.614931
_cell_angle_beta                  95.009136
_cell_angle_gamma                 93.815929
_cell_volume                      678.630768341

loop_
_atom_site_label
_atom_site_type_symbol
_atom_type_description
_atom_site_fract_x
_atom_site_fract_y
_atom_site_fract_z
_atom_type_partial_charge
Br1   Br    Br    0.242482 0.153078 0.611570 -0.457279
Br2   Br    Br    0.154836 0.132100 0.027375 -0.442460
C1    C     C_R   0.503037 0.200469 0.453119 0.584910
C2    C     C_R   0.506867 0.800446 0.546538 0.561738
C3    C     C_R   0.736876 0.490954 0.498701 0.529105
C4    C     C_R   0.125187 0.289219 0.719475 0.175273
C5    C     C_R   0.069787 0.244279 0.865602 0.199471
C6    C     C_R   0.945994 0.267300 0.884533 -0.130609
C7    C     C_R   0.877439 0.332271 0.757768 -0.150660
C8    C     C_R   0.935934 0.399974 0.626034 0.001215
C9    C     C_R   0.065081 0.387504 0.616129 0.015846
C10   C     C_R   0.126502 0.465791 0.495097 0.035445
C11   C     C_R   0.057539 0.532610 0.368705 -0.119726
C12   C     C_R   0.930518 0.533284 0.367773 -0.144398
C13   C     C_R   0.869382 0.473140 0.498294 0.012511
C14   C     C_2   0.505783 0.032871 0.426529 -0.111622
C15   C     C_2   0.514600 0.968574 0.572658 -0.117426
C16   C     C_R   0.261850 0.487186 0.499155 0.603559
Cu1   Cu    Cu3+1 0.513920 0.517380 0.684380 0.998198
Cu2   Cu    Cu3+1 0.486080 0.482620 0.315620 1.021914
H1    H     H_    0.102660 0.589206 0.272621 0.160270
H2    H     H_    0.598611 0.623162 0.051808 0.235353
H3    H     H_    0.899975 0.223309 0.989108 0.151028
H4    H     H_    0.778765 0.323855 0.765721 0.163760
H5    H     H_    0.880478 0.588458 0.269683 0.137745
H6    H     H_    0.496065 0.961696 0.285585 0.144619
H7    H     H_    0.524536 0.039849 0.713585 0.149938
H8    H     H_    0.401433 0.376828 0.948312 0.278741
N1    N     N_2   0.465100 0.456430 0.038520 -0.248281
N2    N     N_2   0.534900 0.543570 0.961480 -0.266990
O1    O     O_R   0.509050 0.286130 0.619770 -0.500204
O2    O     O_R   0.485540 0.256780 0.308360 -0.470637
O3    O     O_R   0.331410 0.514680 0.655740 -0.480446
O4    O     O_R   0.307900 0.485330 0.344330 -0.473952
O5    O     O_R   0.514460 0.743220 0.691640 -0.489439
O6    O     O_R   0.490950 0.713870 0.380230 -0.507985
O7    O     O_R   0.692100 0.514670 0.655670 -0.523983
O8    O     O_R   0.668590 0.485320 0.344260 -0.524539

loop_
_geom_bond_atom_site_label_1
_geom_bond_atom_site_label_2
_ccdc_geom_bond_type
C9    C10   A    
C2    O6    A    
C7    H4    S    
N1    N2    D    
C3    O7    A    
Cu2   O8    S    
C7    C8    A    
Cu1   Cu2   S    
Cu2   N1    S    
Cu1   O1    S    
C2    O5    A    
Cu2   O4    S    
C5    C6    A    
Cu1   O5    S    
C3    O8    A    
C1    O1    A    
C16   O4    A    
C4    C5    A    
C2    C15   S    
H8    N1    S    
C8    C13   A    
C12   H5    S    
C14   H6    S    
C1    O2    A    
C16   O3    A    
C3    C13   S    
Cu1   O7    S    
C8    C9    A    
C11   H1    S    
Br1   C4    S    
C15   H7    S    
C6    H3    S    
C10   C11   A    
Cu2   O2    S    
C10   C16   S    
C4    C9    A    
C12   C13   A    
C6    C7    A    
H2    N2    S    
C11   C12   A    
Cu1   N2    S    
C1    C14   S    
Br2   C5    S    
Cu1   O3    S    
C14   C15   D    
Cu2   O6    S    
