data_mof_unit_46599.cif
_audit_creation_date              2012-12-10T16:55:48-0500
_audit_creation_method            fapswitch 2.2
_symmetry_space_group_name_H-M    P1
_symmetry_Int_Tables_number       1
_space_group_crystal_system       triclinic
_cell_length_a                    7.755573
_cell_length_b                    8.65377
_cell_length_c                    10.518867
_cell_angle_alpha                 91.250676
_cell_angle_beta                  85.75037
_cell_angle_gamma                 93.92056
_cell_volume                      702.284983782

loop_
_atom_site_label
_atom_site_type_symbol
_atom_type_description
_atom_site_fract_x
_atom_site_fract_y
_atom_site_fract_z
_atom_type_partial_charge
C1    C     C_R   0.545760 0.794586 0.504571 0.965555
C2    C     C_3   0.505993 0.501603 0.876515 -0.083089
C3    C     C_3   0.339639 0.526098 0.047031 -0.020518
C4    C     C_3   0.660253 0.471766 0.953006 -0.018263
C5    C     C_2   0.571009 0.957127 0.526927 -0.226235
C6    C     C_2   0.431124 0.045903 0.541062 -0.295368
C7    C     C_2   0.417606 0.796923 0.926720 0.460755
C8    C     C_2   0.582750 0.201287 0.074332 0.455518
C9    C     C_2   0.159093 0.550382 0.101542 0.460211
C10   C     C_2   0.840573 0.447265 0.898091 0.451484
C11   C     C_2   0.753990 0.017812 0.540136 0.508737
C12   C     C_R   0.455198 0.207115 0.516589 0.940052
C13   C     C_2   0.247233 0.988345 0.570058 0.561581
C14   C     C_R   0.502373 0.501084 0.742238 0.922388
C15   C     C_R   0.497522 0.498177 0.257809 0.954815
C16   C     C_3   0.459014 0.638203 0.964053 0.010165
C17   C     C_3   0.540920 0.359689 0.036142 0.010775
C18   C     C_3   0.614583 0.609814 0.041848 -0.323188
C19   C     C_3   0.385363 0.388029 0.958183 -0.319833
C20   C     C_3   0.493872 0.496433 0.123555 -0.094140
H1    H     H_    0.707338 0.699949 0.079402 0.204140
H2    H     H_    0.177975 0.920393 0.499975 0.123739
H3    H     H_    0.292710 0.297903 0.920480 0.212046
H4    H     H_    0.013733 0.382069 0.405083 0.203861
H5    H     H_    0.986272 0.617927 0.594935 0.198156
H6    H     H_    0.382356 0.881290 0.000151 0.093353
H7    H     H_    0.616199 0.115978 0.001199 0.086005
H8    H     H_    0.086705 0.459319 0.155982 0.092005
H9    H     H_    0.913658 0.539027 0.844812 0.095364
H10   H     H_    0.784361 0.098686 0.617001 0.103910
N1    N     N_2   0.950320 0.457950 0.465730 -0.167091
N2    N     N_2   0.049680 0.542050 0.534270 -0.170718
O1    O     O_R   0.389250 0.738570 0.508410 -0.645024
O2    O     O_2   0.579074 0.167145 0.186451 -0.576563
O3    O     O_2   0.092548 0.671302 0.084884 -0.589996
O4    O     O_2   0.906027 0.325288 0.912903 -0.588135
O5    O     O_2   0.870110 0.980966 0.463083 -0.569199
O6    O     O_2   0.171046 0.022765 0.671361 -0.536120
O7    O     O_R   0.610750 0.261430 0.491590 -0.613374
O8    O     O_R   0.678390 0.711620 0.486450 -0.592556
O9    O     O_R   0.321610 0.288380 0.513550 -0.610514
O10   O     O_R   0.355460 0.513510 0.697030 -0.582311
O11   O     O_R   0.644540 0.486490 0.302970 -0.577867
O12   O     O_R   0.644600 0.486560 0.675070 -0.675139
O13   O     O_R   0.355400 0.513440 0.324930 -0.658920
O14   O     O_2   0.423963 0.832462 0.814892 -0.587312
Zn1   Zn    Zn3+2 0.306940 0.517990 0.514670 0.999799
Zn2   Zn    Zn3+2 0.693060 0.482010 0.485330 1.007061

loop_
_geom_bond_atom_site_label_1
_geom_bond_atom_site_label_2
_ccdc_geom_bond_type
C2    C4    S    
C11   O5    D    
C3    C19   S    
C12   O9    A    
C3    C9    S    
C18   H1    S    
C2    C16   S    
O11   Zn2   S    
C19   H3    S    
C8    C17   S    
C14   O10   A    
C4    C18   S    
H5    N2    S    
O9    Zn1   S    
H4    N1    S    
C1    O1    A    
C3    C20   S    
C8    O2    D    
C6    C13   S    
C10   H9    S    
N1    Zn2   S    
C13   O6    D    
C5    C6    D    
C7    H6    S    
C12   O7    A    
C1    C5    S    
C4    C17   S    
C16   C18   S    
C7    C16   S    
C17   C19   S    
C13   H2    S    
C5    C11   S    
C18   C20   S    
O10   Zn1   S    
O13   Zn1   S    
C6    C12   S    
C15   C20   S    
O1    Zn1   S    
N2    Zn1   S    
C15   O13   A    
C15   O11   A    
C7    O14   D    
O12   Zn2   S    
C17   C20   S    
C11   H10   S    
C14   O12   A    
C2    C14   S    
C9    O3    D    
C8    H7    S    
O8    Zn2   S    
C10   O4    D    
C1    O8    A    
C2    C19   S    
C4    C10   S    
C3    C16   S    
N1    N2    D    
C9    H8    S    
O7    Zn2   S    
