data_mof_unit_5028.cif
_audit_creation_date              2012-12-10T17:22:12-0500
_audit_creation_method            fapswitch 2.2
_symmetry_space_group_name_H-M    P1
_symmetry_Int_Tables_number       1
_space_group_crystal_system       triclinic
_cell_length_a                    15.866348
_cell_length_b                    10.767314
_cell_length_c                    9.6455
_cell_angle_alpha                 90.695151
_cell_angle_beta                  90.609486
_cell_angle_gamma                 92.868906
_cell_volume                      1645.52674669

loop_
_atom_site_label
_atom_site_type_symbol
_atom_type_description
_atom_site_fract_x
_atom_site_fract_y
_atom_site_fract_z
_atom_type_partial_charge
C1    C     C_R   0.499077 0.262874 0.499214 0.806971
C2    C     C_3   0.951829 0.472673 0.647918 -0.359434
C3    C     C_3   0.917000 0.494926 0.500036 0.233499
C4    C     C_3   0.955496 0.620392 0.447192 -0.377994
C5    C     C_3   0.053001 0.618441 0.444617 -0.464142
C6    C     C_1   0.824834 0.496946 0.501513 -0.079260
C7    C     C_1   0.175078 0.495313 0.497735 -0.023272
C8    C     C_1   0.250736 0.497769 0.498156 -0.132502
C9    C     C_R   0.354702 0.121363 0.605410 -0.135896
C10   C     C_R   0.285926 0.052824 0.659087 -0.075599
C11   C     C_R   0.285967 0.923710 0.661948 -0.146976
C12   C     C_R   0.340446 0.499419 0.499424 0.799419
C13   C     C_R   0.354769 0.862424 0.611087 -0.156502
C14   C     C_R   0.425433 0.930130 0.557017 0.097399
C15   C     C_R   0.425646 0.061231 0.554316 0.038569
C16   C     C_R   0.495855 0.128455 0.497448 -0.112449
C17   C     C_R   0.563856 0.066681 0.440068 0.157116
C18   C     C_R   0.562176 0.937775 0.442257 -0.198824
C19   C     C_R   0.494912 0.870348 0.501655 -0.121944
C20   C     C_R   0.610497 0.668720 0.147265 -0.121354
C21   C     C_R   0.663887 0.751750 0.077027 -0.205551
C22   C     C_R   0.663804 0.751433 0.934087 -0.200901
C23   C     C_R   0.498520 0.736901 0.500636 0.770528
C24   C     C_R   0.610300 0.668111 0.860399 -0.120895
C25   C     C_R   0.553775 0.583224 0.927425 0.189904
C26   C     C_R   0.553678 0.583534 0.076670 0.175110
C27   C     C_R   0.450044 0.417282 0.069443 0.230112
C28   C     C_R   0.449757 0.420007 0.922139 -0.047165
C29   C     C_R   0.659580 0.500028 0.500567 0.800044
C30   C     C_3   0.049544 0.475990 0.647631 -0.343017
C31   C     C_3   0.043033 0.387042 0.400205 0.348941
C32   C     C_3   0.944975 0.389187 0.403134 -0.402747
C33   C     C_1   0.749274 0.498570 0.501711 -0.173426
C34   C     C_3   0.082733 0.492178 0.497951 0.174508
Cu1   Cu    Cu3+1 0.499990 0.499990 0.640660 0.930894
Cu2   Cu    Cu3+1 0.500010 0.500010 0.359340 0.936014
H1    H     H_    0.927018 0.380961 0.686105 0.199057
H2    H     H_    0.074502 0.554941 0.714227 0.154701
H3    H     H_    0.930348 0.545188 0.720856 0.163458
H4    H     H_    0.931121 0.638486 0.341072 0.174696
H5    H     H_    0.350948 0.221310 0.602714 0.141141
H6    H     H_    0.232081 0.100093 0.697537 0.157859
H7    H     H_    0.232169 0.870718 0.702647 0.133714
H8    H     H_    0.351441 0.761962 0.613071 0.141479
H9    H     H_    0.614336 0.889019 0.399345 0.128524
H10   H     H_    0.072587 0.390325 0.694730 0.227155
H11   H     H_    0.617461 0.674606 0.256697 0.189002
H12   H     H_    0.706330 0.815999 0.134289 0.148312
H13   H     H_    0.706152 0.815446 0.879573 0.152289
H14   H     H_    0.616502 0.673418 0.751147 0.194314
H15   H     H_    0.409706 0.354262 0.862569 0.144256
H16   H     H_    0.063601 0.407697 0.292536 0.075573
H17   H     H_    0.916115 0.298892 0.438583 0.220187
H18   H     H_    0.920549 0.403221 0.296123 0.139880
H19   H     H_    0.080686 0.696338 0.510151 0.194560
H20   H     H_    0.075325 0.634316 0.336940 0.176853
H21   H     H_    0.936505 0.697812 0.515771 0.183444
N1    N     N_R   0.500800 0.501210 0.147910 -0.198149
N2    N     N_R   0.500820 0.501290 0.852040 -0.216364
O1    O     O_R   0.499990 0.319640 0.618810 -0.580801
O2    O     O_R   0.500000 0.319660 0.381240 -0.575626
O3    O     O_R   0.379430 0.499990 0.618840 -0.584925
O4    O     O_R   0.379440 0.500020 0.381260 -0.571530
O5    O     O_R   0.500000 0.680340 0.618760 -0.598059
O6    O     O_R   0.500010 0.680360 0.381190 -0.587511
O7    O     O_R   0.620560 0.499980 0.618740 -0.587446
O8    O     O_R   0.620570 0.500010 0.381160 -0.590441
C35   C     C_3   0.639503 0.136661 0.379660 -0.825187
H22   H     H_    0.688691 0.073036 0.346491 0.222126
H23   H     H_    0.620029 0.189135 0.287333 0.248036
H24   H     H_    0.668334 0.202384 0.458355 0.221618
C36   C     C_3   0.396893 0.313584 0.133477 -0.738037
H25   H     H_    0.355358 0.347052 0.214858 0.263965
H26   H     H_    0.353959 0.266119 0.055586 0.181405
H27   H     H_    0.437727 0.241015 0.172536 0.238607
S1    S     S_3+6 0.076703 0.232436 0.435490 -0.039046
O9    O     O_2   0.042736 0.146137 0.322275 -0.289307
O10   O     O_2   0.171356 0.230747 0.437419 -0.318876
O11   O     O_3   0.039018 0.181859 0.588148 -0.572399
H28   H     H_    0.061484 0.098332 0.599342 0.368313

loop_
_geom_bond_atom_site_label_1
_geom_bond_atom_site_label_2
_ccdc_geom_bond_type
C10   H6    S    
C5    H20   S    
Cu1   Cu2   S    
S1    O11   S    
C31   H16   S    
C3    C6    S    
Cu2   O8    S    
C7    C8    T    
S1    O10   D    
Cu2   N1    S    
C28   H15   S    
C15   C16   A    
C29   C33   S    
C30   H2    S    
Cu1   N2    S    
C18   C19   A    
C29   O8    A    
C2    H3    S    
C4    H4    S    
C16   C17   A    
C4    H21   S    
C35   H22   S    
C11   H7    S    
Cu1   O5    S    
Cu2   O4    S    
C9    C10   A    
C21   H12   S    
C13   C14   A    
C36   H27   S    
C32   H18   S    
C5    H19   S    
C24   H14   S    
C30   C34   S    
S1    O9    D    
C36   H26   S    
C1    O1    A    
C12   O4    A    
Cu2   O6    S    
C36   H25   S    
Cu1   O7    S    
C25   C26   A    
O11   H28   S    
Cu1   O1    S    
C19   C23   S    
C12   O3    A    
C31   C32   S    
C8    C12   S    
C5    C34   S    
C17   C18   A    
C31   C34   S    
C1    C16   S    
C24   C25   A    
C26   N1    A    
C22   H13   S    
C23   O5    A    
C7    C34   S    
C22   C24   A    
C3    C4    S    
C18   H9    S    
C32   H17   S    
C28   N2    A    
C17   C35   S    
C14   C19   A    
C30   H10   S    
C4    C5    S    
C27   N1    A    
C1    O2    A    
C9    H5    S    
C6    C33   T    
C2    C30   S    
C23   O6    A    
C2    C3    S    
C9    C15   A    
C11   C13   A    
C2    H1    S    
C31   S1    S    
C20   C26   A    
C35   H24   S    
Cu1   O3    S    
C3    C32   S    
C20   H11   S    
C10   C11   A    
C29   O7    A    
C20   C21   A    
C35   H23   S    
C27   C28   A    
C14   C15   A    
C25   N2    A    
C21   C22   A    
C13   H8    S    
C27   C36   S    
Cu2   O2    S    
