data_mof_unit_42447.cif
_audit_creation_date              2012-12-10T17:10:26-0500
_audit_creation_method            fapswitch 2.2
_symmetry_space_group_name_H-M    P1
_symmetry_Int_Tables_number       1
_space_group_crystal_system       triclinic
_cell_length_a                    10.82239
_cell_length_b                    12.854422
_cell_length_c                    11.85155
_cell_angle_alpha                 103.74263
_cell_angle_beta                  91.656184
_cell_angle_gamma                 91.462559
_cell_volume                      1599.97619319

loop_
_atom_site_label
_atom_site_type_symbol
_atom_type_description
_atom_site_fract_x
_atom_site_fract_y
_atom_site_fract_z
_atom_type_partial_charge
C1    C     C_R   0.501694 0.298729 0.475552 0.857792
C2    C     C_R   0.497936 0.701309 0.524450 0.854637
C3    C     C_R   0.485043 0.816145 0.540885 -0.125994
C4    C     C_R   0.514054 0.183956 0.459113 -0.122117
C5    C     C_R   0.645304 0.029942 0.429009 -0.065502
C6    C     C_R   0.353658 0.970195 0.571043 -0.058604
C7    C     C_R   0.624229 0.135058 0.419068 0.229389
C8    C     C_R   0.374204 0.864659 0.579680 0.227197
C9    C     C_R   0.425935 0.129889 0.509100 -0.225635
C10   C     C_R   0.573726 0.870783 0.492164 -0.228440
C11   C     C_R   0.443827 0.025220 0.519951 0.056411
C12   C     C_R   0.555464 0.975232 0.480750 0.058263
C13   C     C_R   0.485486 0.361533 0.012093 0.193769
C14   C     C_R   0.521915 0.638194 0.988543 0.179334
C15   C     C_R   0.472081 0.378460 0.133833 0.051712
C16   C     C_R   0.526810 0.621542 0.866203 0.045243
C17   C     C_R   0.487730 0.565671 0.160101 0.117218
C18   C     C_R   0.523542 0.434263 0.840737 0.123311
C19   C     C_R   0.504900 0.551354 0.037830 -0.044432
C20   C     C_R   0.506721 0.448233 0.963274 -0.042709
C21   C     C_R   0.261443 0.488953 0.500483 0.803349
C22   C     C_R   0.737487 0.514004 0.500015 0.833950
C23   C     C_R   0.107002 0.503315 0.718505 -0.209016
C24   C     C_R   0.886703 0.504614 0.282636 -0.172494
C25   C     C_R   0.062771 0.571956 0.821120 -0.082281
C26   C     C_R   0.923685 0.429156 0.182229 -0.187160
C27   C     C_R   0.960724 0.635282 0.811506 0.332894
C28   C     C_R   0.025567 0.365644 0.191976 0.263320
C29   C     C_R   0.897880 0.622290 0.704620 -0.164796
C30   C     C_R   0.094523 0.384314 0.296720 -0.128288
C31   C     C_R   0.943333 0.556297 0.603529 0.027321
C32   C     C_R   0.053625 0.454468 0.397256 0.044928
C33   C     C_R   0.061164 0.514134 0.608578 0.081104
C34   C     C_R   0.936337 0.497592 0.392675 0.007852
C35   C     C_R   0.873847 0.532058 0.497703 -0.175050
C36   C     C_R   0.123673 0.477178 0.503289 -0.131712
Cu1   Cu    Cu3+1 0.509250 0.507730 0.615930 1.012135
Cu2   Cu    Cu3+1 0.490750 0.492270 0.384070 1.009622
H1    H     H_    0.815225 0.666374 0.699607 0.203287
H2    H     H_    0.175232 0.338382 0.302156 0.209079
H3    H     H_    0.654751 0.828228 0.458225 0.204073
H4    H     H_    0.345546 0.173031 0.544031 0.195026
H5    H     H_    0.526343 0.355141 0.784820 0.202519
H6    H     H_    0.488751 0.644836 0.216251 0.195770
N1    N     N_R   0.523180 0.519350 0.790130 -0.261657
N2    N     N_R   0.476820 0.480650 0.209870 -0.254033
O1    O     O_R   0.506570 0.354460 0.582000 -0.579572
O2    O     O_R   0.493430 0.645540 0.418000 -0.584103
O3    O     O_R   0.490940 0.341410 0.386200 -0.574464
O4    O     O_R   0.509060 0.658590 0.613800 -0.577474
O5    O     O_R   0.327470 0.506520 0.597900 -0.577227
O6    O     O_R   0.672530 0.493480 0.402100 -0.571164
O7    O     O_R   0.311840 0.493460 0.402100 -0.573110
O8    O     O_R   0.688160 0.506540 0.597900 -0.561576
Br1   Br    Br    0.079284 0.258358 0.062100 -0.301345
Br2   Br    Br    0.893471 0.729737 0.944722 -0.242652
Br3   Br    Br    0.468996 0.217364 0.911698 -0.324305
Br4   Br    Br    0.538039 0.782754 0.088291 -0.321036
C37   C     C_2   0.171783 0.403219 0.723163 0.974903
O9    O     O_2   0.140593 0.319209 0.654355 -0.523128
O10   O     O_R   0.266543 0.401839 0.804028 -0.693451
H7    H     H_    0.295968 0.476642 0.845125 0.282697
C38   C     C_2   0.815889 0.601032 0.273197 0.955393
O11   O     O_2   0.743455 0.596655 0.191768 -0.527555
O12   O     O_R   0.833719 0.699371 0.354325 -0.741390
H8    H     H_    0.907451 0.702618 0.409664 0.306733
C39   C     C_2   0.119228 0.578555 0.938056 0.878490
O13   O     O_2   0.165185 0.663720 0.994180 -0.516590
O14   O     O_R   0.120354 0.488265 0.984249 -0.709203
H9    H     H_    0.163867 0.503204 0.063662 0.336199
C40   C     C_2   0.854940 0.412208 0.068794 1.000811
O15   O     O_2   0.861288 0.479834 0.012134 -0.492949
O16   O     O_R   0.784042 0.318235 0.024471 -0.688402
H10   H     H_    0.783105 0.268593 0.079320 0.354999
Br5   Br    Br    0.242483 0.780886 0.626208 -0.417235
Br6   Br    Br    0.754023 0.217830 0.368076 -0.394355
C41   C     C_2   0.764262 0.980867 0.390904 0.951756
O17   O     O_2   0.792596 0.967727 0.289472 -0.455808
O18   O     O_R   0.844405 0.951214 0.471618 -0.721944
H11   H     H_    0.923269 0.920022 0.435697 0.374904
C42   C     C_2   0.235443 0.019605 0.611368 0.927212
O19   O     O_2   0.165108 0.048727 0.543160 -0.547866
O20   O     O_R   0.204020 0.031088 0.727156 -0.635828
H12   H     H_    0.121308 0.065646 0.744349 0.382927
C43   C     C_2   0.530702 0.721834 0.828300 0.995280
O21   O     O_2   0.436069 0.771664 0.827557 -0.504323
O22   O     O_R   0.643447 0.765088 0.803548 -0.737898
H13   H     H_    0.634385 0.836371 0.782059 0.355132
C44   C     C_2   0.457072 0.278560 0.171745 0.990891
O23   O     O_2   0.545695 0.221346 0.171533 -0.526454
O24   O     O_R   0.340678 0.244580 0.198665 -0.743193
H14   H     H_    0.342060 0.173056 0.220695 0.356687

loop_
_geom_bond_atom_site_label_1
_geom_bond_atom_site_label_2
_ccdc_geom_bond_type
C21   O7    A    
O22   H13   S    
C38   O12   S    
C27   C29   A    
O16   H10   S    
C19   C20   A    
C25   C39   S    
C42   O19   D    
C22   O8    A    
C21   C36   S    
C41   O17   D    
C23   C37   S    
C22   C35   S    
C6    C11   A    
C9    H4    S    
C32   C36   A    
C24   C26   A    
Cu1   O5    S    
Cu2   O6    S    
C33   C36   A    
C18   C20   A    
C34   C35   A    
C2    O4    A    
C23   C33   A    
C31   C33   A    
Cu1   O1    S    
Cu2   O2    S    
C43   O22   S    
C37   O9    D    
C6    C42   S    
C10   H3    S    
C26   C40   S    
O14   H9    S    
C4    C7    A    
C42   O20   S    
C28   Br1   S    
C5    C7    A    
C41   O18   S    
C14   Br4   S    
C37   O10   S    
C39   O13   D    
C17   N2    A    
C5    C12   A    
C3    C8    A    
O24   H14   S    
Cu2   O3    S    
C27   Br2   S    
C1    O1    A    
C6    C8    A    
C2    O2    A    
C43   O21   D    
C8    Br5   S    
C24   C34   A    
O18   H11   S    
C39   O14   S    
C32   C34   A    
Cu1   Cu2   S    
C15   C44   S    
O20   H12   S    
C29   H1    S    
C30   H2    S    
C9    C11   A    
C10   C12   A    
Cu1   O8    S    
C24   C38   S    
C13   C15   A    
C16   C43   S    
C14   C16   A    
C44   O24   S    
Cu1   N1    S    
C18   N1    A    
C21   O5    A    
C22   O6    A    
C13   C20   A    
C14   C19   A    
C16   N1    A    
C11   C12   A    
C7    Br6   S    
C25   C27   A    
C26   C28   A    
C1    C4    S    
C28   C30   A    
C2    C3    S    
C4    C9    A    
C17   H6    S    
C40   O15   D    
C29   C31   A    
C3    C10   A    
C18   H5    S    
C30   C32   A    
Cu1   O4    S    
Cu2   O7    S    
C1    O3    A    
C17   C19   A    
C31   C35   A    
C23   C25   A    
O10   H7    S    
Cu2   N2    S    
C38   O11   D    
C13   Br3   S    
O12   H8    S    
C40   O16   S    
C15   N2    A    
C44   O23   D    
C5    C41   S    
