data_mof_unit_38030.cif
_audit_creation_date              2013-03-05T15:51:19-0500
_audit_creation_method            fapswitch 2.2
_symmetry_space_group_name_H-M    P1
_symmetry_Int_Tables_number       1
_space_group_crystal_system       triclinic
_cell_length_a                    12.081986
_cell_length_b                    12.765768
_cell_length_c                    15.759017
_cell_angle_alpha                 91.736207
_cell_angle_beta                  85.427737
_cell_angle_gamma                 93.49449
_cell_volume                      2417.57436971

loop_
_atom_site_label
_atom_site_type_symbol
_atom_site_description
_atom_site_fract_x
_atom_site_fract_y
_atom_site_fract_z
_atom_type_partial_charge
O1    O     O_R   0.421700 0.658830 0.504150 -0.624887
O2    O     O_R   0.578300 0.341170 0.495850 -0.629104
O3    O     O_R   0.609310 0.646410 0.494170 -0.620449
O4    O     O_R   0.390690 0.353590 0.505830 -0.604024
C1    C     C_R   0.522038 0.699886 0.505134 0.899694
C2    C     C_R   0.478019 0.300036 0.496386 0.880924
O5    O     O_R   0.406210 0.506220 0.628210 -0.627982
O6    O     O_R   0.593790 0.493780 0.371790 -0.623627
O7    O     O_R   0.593830 0.493800 0.618230 -0.616671
O8    O     O_R   0.406170 0.506200 0.381770 -0.614557
C3    C     C_R   0.499192 0.498530 0.661777 0.884890
C4    C     C_R   0.500620 0.500411 0.338166 0.871282
Zn1   Zn    Zn3+2 0.374730 0.508290 0.506660 0.952979
Zn2   Zn    Zn3+2 0.625270 0.491710 0.493340 0.949469
C5    C     C_3   0.533605 0.589918 0.026355 0.265905
C6    C     C_3   0.462549 0.400848 0.973425 0.277657
C7    C     C_3   0.602841 0.519183 0.963712 -0.383551
C8    C     C_3   0.393334 0.471581 0.036167 -0.373697
H1    H     H_    0.687967 0.538552 0.934403 0.212767
H2    H     H_    0.308200 0.452231 0.065466 0.212258
C9    C     C_1   0.497298 0.495462 0.750350 -0.135428
C10   C     C_1   0.501479 0.499251 0.249494 -0.124141
C11   C     C_3   0.429821 0.565405 0.978301 0.267091
C12   C     C_3   0.566373 0.425317 0.021514 0.266974
C13   C     C_3   0.496539 0.494091 0.915989 -0.098285
C14   C     C_3   0.499682 0.496663 0.083864 -0.101513
C15   C     C_1   0.496339 0.493955 0.825407 0.147486
C16   C     C_1   0.501066 0.498082 0.174433 0.156978
C17   C     C_R   0.464528 0.188448 0.485487 -0.099739
C18   C     C_R   0.535252 0.811617 0.516172 -0.106662
C19   C     C_R   0.555309 0.968171 0.606224 0.154835
C20   C     C_R   0.428675 0.029585 0.401147 0.152327
C21   C     C_R   0.570093 0.859471 0.592293 0.109064
C22   C     C_R   0.424901 0.140118 0.411158 0.095877
C23   C     C_R   0.492125 0.867407 0.454207 -0.292008
C24   C     C_R   0.504893 0.132354 0.548368 -0.301701
C25   C     C_R   0.476862 0.973625 0.464957 0.075884
C26   C     C_R   0.511491 0.024703 0.540737 0.079334
H3    H     H_    0.535598 0.176667 0.601944 0.170221
H4    H     H_    0.469041 0.824097 0.397763 0.174361
N1    N     N_R   0.207800 0.519340 0.515560 -0.115866
N2    N     N_R   0.792200 0.480660 0.484440 -0.116148
C27   C     C_R   0.957719 0.397212 0.424192 -0.298673
C28   C     C_R   0.042331 0.603162 0.575595 -0.295105
C29   C     C_R   0.841524 0.405266 0.430960 0.312795
C30   C     C_R   0.158425 0.594339 0.569505 0.314897
C31   C     C_R   0.857853 0.546003 0.532070 -0.057543
C32   C     C_R   0.142230 0.455243 0.467012 -0.064956
C33   C     C_R   0.974835 0.537948 0.527011 0.053582
C34   C     C_R   0.025250 0.463072 0.472251 0.052791
H5    H     H_    0.181029 0.398489 0.423957 0.137400
H6    H     H_    0.819189 0.604064 0.574252 0.126274
H7    H     H_    0.995166 0.338691 0.381522 0.154975
H8    H     H_    0.004804 0.661105 0.618762 0.155225
N3    N     N_R   0.570951 0.695410 0.053647 0.248877
O9    O     O_R   0.596580 0.766946 0.997239 -0.335533
O10   O     O_R   0.578539 0.718900 0.133917 -0.371551
N4    N     N_R   0.424878 0.295678 0.945648 0.244278
O11   O     O_R   0.400471 0.223310 0.001532 -0.334726
O12   O     O_R   0.413550 0.273951 0.865560 -0.396892
N5    N     N_R   0.640506 0.346235 0.043623 0.247623
O13   O     O_R   0.691576 0.290992 0.983659 -0.328897
O14   O     O_R   0.656107 0.330266 0.122782 -0.386497
N6    N     N_R   0.355539 0.644392 0.956232 0.246890
O15   O     O_R   0.305054 0.700084 0.016196 -0.326934
O16   O     O_R   0.338298 0.659065 0.877182 -0.397892
C35   C     C_3   0.385066 0.207598 0.342388 -0.386138
C36   C     C_3   0.258223 0.204187 0.344650 -0.816615
H9    H     H_    0.223869 0.127718 0.320440 0.266795
H10   H     H_    0.221951 0.217926 0.410737 0.255991
H11   H     H_    0.232575 0.266209 0.303642 0.247215
H12   H     H_    0.414629 0.290780 0.349666 0.193923
H13   H     H_    0.422336 0.185559 0.278251 0.218373
C37   C     C_3   0.621358 0.794130 0.657141 -0.481027
C38   C     C_3   0.538472 0.763618 0.731855 -0.729348
H14   H     H_    0.513897 0.832723 0.771201 0.284697
H15   H     H_    0.462878 0.722582 0.708327 0.245516
H16   H     H_    0.577495 0.710387 0.773561 0.255871
H17   H     H_    0.652785 0.720743 0.628208 0.220614
H18   H     H_    0.697499 0.835092 0.679760 0.209845
C39   C     C_3   0.582310 0.023166 0.690684 -0.457085
C40   C     C_3   0.476511 0.050231 0.745144 -0.686580
H19   H     H_    0.432834 0.112863 0.716867 0.261259
H20   H     H_    0.417864 0.980151 0.752369 0.251478
H21   H     H_    0.498671 0.078191 0.809366 0.298469
H22   H     H_    0.630327 0.976017 0.730419 0.234065
H23   H     H_    0.638132 0.094415 0.679220 0.208496
C41   C     C_3   0.383417 0.971766 0.323222 -0.381114
C42   C     C_3   0.273699 0.908984 0.346479 -0.819444
H24   H     H_    0.286232 0.840436 0.385178 0.252127
H25   H     H_    0.213713 0.959223 0.382796 0.258090
H26   H     H_    0.236772 0.879334 0.287407 0.274665
H27   H     H_    0.367608 0.024432 0.271977 0.233307
H28   H     H_    0.445931 0.920241 0.291709 0.226222
C43   C     C_3   0.222494 0.670113 0.625836 -0.365707
C44   C     C_3   0.223684 0.782914 0.595692 -0.844984
H29   H     H_    0.257184 0.787495 0.528294 0.273927
H30   H     H_    0.138597 0.811971 0.601832 0.253441
H31   H     H_    0.277505 0.834858 0.635068 0.262167
H32   H     H_    0.183547 0.666721 0.692125 0.213603
H33   H     H_    0.308113 0.650531 0.630107 0.257075
C45   C     C_3   0.777052 0.327095 0.376934 -0.354123
C46   C     C_3   0.774434 0.216413 0.411934 -0.839343
H34   H     H_    0.858980 0.186077 0.405817 0.251767
H35   H     H_    0.742920 0.216227 0.480074 0.274491
H36   H     H_    0.718760 0.162766 0.375438 0.260854
H37   H     H_    0.691960 0.347598 0.370332 0.258138
H38   H     H_    0.816988 0.326023 0.310868 0.210405

loop_
_geom_bond_atom_site_label_1
_geom_bond_atom_site_label_2
_geom_bond_distance
_ccdc_geom_bond_type
C28   C33   1.386519 A    
N3    O9    1.300338 A    
C12   N5    1.457433 S    
C43   C44   1.528814 S    
C8    C14   1.551671 S    
O7    Zn2   1.974195 S    
Zn1   N1    2.023764 S    
C39   C40   1.533261 S    
C31   C33   1.419087 A    
O5    C3    1.289513 A    
C17   C24   1.376662 A    
C18   C23   1.378693 A    
O1    C1    1.292137 A    
C23   C25   1.383084 A    
C12   C14   1.534020 S    
N4    O12   1.300095 A    
C20   C41   1.534526 S    
C44   H31   1.111052 S    
C4    C10   1.396223 S    
C35   H12   1.105096 S    
O4    Zn1   1.995469 S    
N5    O14   1.300330 A    
C45   C46   1.529915 S    
C27   H7    1.085010 S    
C32   H5    1.079781 S    
C30   C43   1.513003 S    
C36   H9    1.106368 S    
C44   H30   1.110063 S    
N1    C30   1.390923 A    
C19   C21   1.418146 A    
C45   H38   1.112124 S    
C35   H13   1.108673 S    
C42   H25   1.110148 S    
C39   H22   1.101946 S    
Zn2   N2    2.023764 S    
C5    C11   1.527388 S    
C9    C15   1.182684 T    
C6    C12   1.528031 S    
C37   H18   1.108652 S    
O7    C3    1.289499 A    
O2    C2    1.290284 A    
C28   C30   1.409414 A    
C41   H28   1.109367 S    
C7    C12   1.548398 S    
C37   C38   1.527460 S    
C35   C36   1.528080 S    
O4    C2    1.288228 A    
C43   H32   1.111979 S    
C5    C14   1.534029 S    
N4    O11   1.300276 A    
C17   C22   1.411219 A    
C3    C9    1.395882 S    
C8    C11   1.548619 S    
N2    C29   1.390127 A    
N6    O16   1.300240 A    
C38   H14   1.104678 S    
C25   C26   1.423230 A    
C38   H15   1.109026 S    
O6    C4    1.290166 A    
C44   H29   1.108007 S    
C45   H37   1.089858 S    
C46   H35   1.110365 S    
C6    N4    1.457034 S    
C20   C25   1.431111 A    
C42   H26   1.110499 S    
C27   C29   1.409208 A    
C39   H23   1.109292 S    
O3    Zn2   1.995469 S    
O8    C4    1.289202 A    
C36   H10   1.110408 S    
C11   N6    1.457559 S    
C5    N3    1.457355 S    
C40   H19   1.107619 S    
C40   H20   1.109698 S    
C37   H17   1.104364 S    
N3    O10   1.300248 A    
O1    Zn1   1.971002 S    
C1    C18   1.432420 S    
C6    C13   1.533363 S    
C5    C7    1.547926 S    
C41   H27   1.101728 S    
O6    Zn2   1.983679 S    
C18   C21   1.412138 A    
C24   H3    1.079766 S    
O3    C1    1.288109 A    
O8    Zn1   1.974198 S    
C22   C35   1.529218 S    
C27   C34   1.386526 A    
C31   H6    1.082741 S    
C13   C15   1.427628 S    
C40   H21   1.110420 S    
C14   C16   1.428266 S    
C19   C39   1.534780 S    
C19   C26   1.430011 A    
C7    C13   1.551438 S    
N6    O15   1.300278 A    
C24   C26   1.382462 A    
C23   H4    1.079650 S    
C36   H11   1.110577 S    
C32   C34   1.418625 A    
C7    H1    1.110161 S    
N1    C32   1.364602 A    
C46   H36   1.110823 S    
C8    H2    1.110144 S    
N2    C31   1.365553 A    
C11   C13   1.533594 S    
N5    O13   1.300278 A    
O2    Zn2   1.971000 S    
C38   H16   1.109753 S    
C29   C45   1.512266 S    
C28   H8    1.084757 S    
C21   C37   1.529491 S    
O5    Zn1   1.983676 S    
C2    C17   1.430610 S    
C41   C42   1.531252 S    
C6    C8    1.548680 S    
C33   C34   1.402351 A    
C46   H34   1.110386 S    
C10   C16   1.182937 T    
C42   H24   1.106253 S    
C43   H33   1.086621 S    
C20   C22   1.418159 A    
