data_mof_unit_12672.cif
_audit_creation_date              2013-03-05T16:48:30-0500
_audit_creation_method            fapswitch 2.2
_symmetry_space_group_name_H-M    P1
_symmetry_Int_Tables_number       1
_space_group_crystal_system       triclinic
_cell_length_a                    10.810801
_cell_length_b                    14.659119
_cell_length_c                    14.889783
_cell_angle_alpha                 65.716445
_cell_angle_beta                  103.335542
_cell_angle_gamma                 103.251514
_cell_volume                      2068.74970675

loop_
_atom_site_label
_atom_site_type_symbol
_atom_site_description
_atom_site_fract_x
_atom_site_fract_y
_atom_site_fract_z
_atom_type_partial_charge
O1    O     O_R   0.455540 0.022090 0.338120 -0.607907
O2    O     O_R   0.544460 0.977910 0.661880 -0.607880
O3    O     O_R   0.512510 0.160150 0.379180 -0.532888
O4    O     O_R   0.487490 0.839850 0.620820 -0.532813
C1    C     C_R   0.482336 0.119984 0.313064 0.856673
C2    C     C_R   0.517682 0.880016 0.686937 0.856578
O5    O     O_R   0.291160 0.930970 0.479480 -0.528319
O6    O     O_R   0.708840 0.069030 0.520520 -0.528318
O7    O     O_R   0.348130 0.069020 0.520540 -0.607132
O8    O     O_R   0.651870 0.930980 0.479460 -0.607316
C3    C     C_R   0.262457 0.000780 0.499347 0.866652
C4    C     C_R   0.737542 0.999227 0.500637 0.866877
Cu1   Cu    Cu3+1 0.466270 0.918260 0.475690 1.030889
Cu2   Cu    Cu3+1 0.533730 0.081740 0.524310 1.030922
H1    H     H_    0.454041 0.059918 0.879395 0.157885
H2    H     H_    0.545479 0.937272 0.122019 0.157913
C5    C     C_R   0.324787 0.952598 0.824126 -0.157405
C6    C     C_R   0.674289 0.045433 0.176383 -0.157443
H3    H     H_    0.355248 0.887579 0.887769 0.173736
H4    H     H_    0.643285 0.110107 0.112561 0.173477
C7    C     C_R   0.230110 0.938963 0.747023 0.258354
C8    C     C_R   0.769115 0.059785 0.253103 0.258554
C9    C     C_R   0.190417 0.023851 0.664402 0.021666
C10   C     C_R   0.809499 0.975337 0.335956 0.022266
C11   C     C_R   0.244147 0.121993 0.662060 0.304730
C12   C     C_R   0.756301 0.876913 0.338915 0.304108
C13   C     C_R   0.339701 0.134377 0.739213 -0.142188
C14   C     C_R   0.660618 0.863812 0.262134 -0.141993
H5    H     H_    0.382180 0.209596 0.736990 0.174023
H6    H     H_    0.618555 0.788370 0.264841 0.174161
C15   C     C_R   0.380357 0.049930 0.819730 -0.218360
C16   C     C_R   0.619274 0.947822 0.181388 -0.218291
C17   C     C_R   0.963227 0.006972 0.581742 0.283010
C18   C     C_R   0.036774 0.993047 0.418230 0.282964
C19   C     C_R   0.871136 0.998098 0.500765 -0.147897
C20   C     C_R   0.128863 0.001912 0.499209 -0.147810
C21   C     C_R   0.907107 0.989219 0.419642 -0.015092
C22   C     C_R   0.092878 0.010661 0.580392 -0.014982
C23   C     C_R   0.469297 0.188850 0.207493 -0.137775
C24   C     C_R   0.530749 0.811154 0.792509 -0.138251
C25   C     C_R   0.353436 0.217281 0.041361 -0.124629
C26   C     C_R   0.646573 0.782759 0.958651 -0.124937
C27   C     C_R   0.396427 0.151239 0.135997 -0.240474
C28   C     C_R   0.603591 0.848785 0.864001 -0.240307
C29   C     C_R   0.515911 0.294168 0.179125 0.312902
C30   C     C_R   0.484172 0.705831 0.820890 0.312349
C31   C     C_R   0.483079 0.360878 0.079240 -0.022795
C32   C     C_R   0.516967 0.639147 0.920790 -0.022905
C33   C     C_R   0.387978 0.322219 0.014925 0.028234
C34   C     C_R   0.612042 0.677819 0.985105 0.028296
C35   C     C_R   0.532585 0.466527 0.043803 0.020554
C36   C     C_R   0.467456 0.533503 0.956237 0.020522
C37   C     C_R   0.353652 0.492880 0.908238 -0.079661
C38   C     C_R   0.646382 0.507163 0.091804 -0.079478
C39   C     C_R   0.321930 0.389553 0.929939 0.261846
C40   C     C_R   0.678082 0.610494 0.070103 0.261672
H7    H     H_    0.637678 0.929085 0.844177 0.188944
H8    H     H_    0.362320 0.070943 0.155812 0.188840
H9    H     H_    0.287795 0.185381 0.991240 0.195717
H10   H     H_    0.712193 0.814674 0.008769 0.195761
H11   H     H_    0.287431 0.540358 0.853074 0.231206
H12   H     H_    0.712624 0.459702 0.146960 0.231250
N1    N     N_R   0.584450 0.204570 0.560790 -0.199405
N2    N     N_R   0.415550 0.795430 0.439210 -0.199317
C41   C     C_R   0.711385 0.284977 0.668860 -0.212861
C42   C     C_R   0.288605 0.715017 0.331149 -0.212917
C43   C     C_R   0.677323 0.202782 0.639690 0.101302
C44   C     C_R   0.322661 0.797210 0.360322 0.101543
C45   C     C_R   0.519992 0.285100 0.509557 0.147394
C46   C     C_R   0.480035 0.714913 0.490425 0.146824
C47   C     C_R   0.549650 0.371962 0.535259 -0.023957
C48   C     C_R   0.450367 0.628045 0.464732 -0.024443
C49   C     C_R   0.649851 0.371181 0.616252 0.006874
C50   C     C_R   0.350154 0.628820 0.383748 0.006861
C51   C     C_R   0.482947 0.458094 0.484391 0.027262
C52   C     C_R   0.517065 0.541910 0.515601 0.026973
C53   C     C_R   0.617653 0.537478 0.596065 -0.146674
C54   C     C_R   0.382341 0.462517 0.403939 -0.146749
C55   C     C_R   0.684373 0.455047 0.645037 0.332800
C56   C     C_R   0.315626 0.544951 0.354966 0.332664
H13   H     H_    0.555065 0.721810 0.549691 0.159260
H14   H     H_    0.444985 0.278214 0.450274 0.159228
H15   H     H_    0.275884 0.863424 0.319003 0.171826
H16   H     H_    0.724082 0.136560 0.681019 0.171877
H17   H     H_    0.784186 0.279312 0.733576 0.208606
H18   H     H_    0.215789 0.720674 0.266443 0.208569
H19   H     H_    0.649993 0.598655 0.622044 0.198867
H20   H     H_    0.349982 0.401331 0.377974 0.198680
N3    N     N_R   0.789484 0.459263 0.723135 0.130123
O9    O     O_R   0.777090 0.491704 0.789404 -0.291815
O10   O     O_R   0.903582 0.449555 0.717037 -0.251840
N4    N     N_R   0.210519 0.540739 0.276865 0.129972
O11   O     O_R   0.222935 0.508345 0.210569 -0.292201
O12   O     O_R   0.096412 0.550423 0.282972 -0.251997
Br1   Br    Br    0.153784 0.803693 0.758871 -0.371516
Br2   Br    Br    0.844651 0.195407 0.240424 -0.372857
Br3   Br    Br    0.188281 0.240588 0.555227 -0.431619
Br4   Br    Br    0.813024 0.758881 0.446139 -0.430947
Br5   Br    Br    0.912648 0.005619 0.699009 -0.460337
Br6   Br    Br    0.087345 0.994408 0.300958 -0.460369
Br7   Br    Br    0.177907 0.345376 0.846276 -0.346743
Br8   Br    Br    0.822077 0.654688 0.153773 -0.347387
N5    N     N_R   0.424466 0.665059 0.745622 0.104716
O13   O     O_R   0.480306 0.603612 0.731055 -0.369844
O14   O     O_R   0.312555 0.686144 0.694110 -0.284596
N6    N     N_R   0.575739 0.334898 0.254403 0.104606
O15   O     O_R   0.687649 0.313746 0.305869 -0.284556
O16   O     O_R   0.519982 0.396332 0.269064 -0.370167

loop_
_geom_bond_atom_site_label_1
_geom_bond_atom_site_label_2
_geom_bond_distance
_ccdc_geom_bond_type
O5    Cu1   1.959918 S    
C42   C44   1.388997 A    
C48   C50   1.421137 A    
C13   H5    1.082895 S    
C18   C21   1.394711 A    
C48   C52   1.437622 A    
C31   C33   1.421386 A    
C36   C37   1.409834 A    
C24   C30   1.421618 A    
O1    C1    1.304361 A    
N2    C44   1.353337 A    
C3    C20   1.447671 S    
C19   C21   1.412943 A    
C10   C12   1.411883 A    
C54   C56   1.394394 A    
N6    O15   1.302287 A    
C42   C50   1.408484 A    
C41   C49   1.408486 A    
C29   C31   1.419012 A    
O4    Cu1   1.973003 S    
C45   C47   1.423949 A    
C46   H13   1.073540 S    
C51   C52   1.429835 A    
C45   H14   1.073537 S    
C27   H8    1.083549 S    
C17   C19   1.406324 A    
C37   H11   1.076363 S    
N1    C45   1.360993 A    
C41   C43   1.389000 A    
C18   Br6   1.937792 S    
N2    C46   1.361005 A    
N3    O10   1.301067 A    
C18   C20   1.406310 A    
C23   C29   1.421626 A    
C53   C55   1.394390 A    
C43   H16   1.080144 S    
C50   C56   1.408438 A    
Cu1   Cu2   2.679779 S    
C25   C27   1.385999 A    
O2    C2    1.304356 A    
C26   C28   1.386013 A    
C25   C33   1.402557 A    
N1    C43   1.353340 A    
C37   C39   1.388065 A    
C38   C40   1.388095 A    
C13   C15   1.395922 A    
C35   C36   1.414291 A    
C14   C16   1.395899 A    
C2    C24   1.472329 S    
C52   C53   1.410503 A    
C25   H9    1.081572 S    
O4    C2    1.289507 A    
C26   H10   1.081575 S    
C47   C49   1.421136 A    
C31   C35   1.428818 A    
C7    Br1   1.916594 S    
C33   C39   1.401550 A    
C34   C40   1.401547 A    
C17   Br5   1.937832 S    
C56   N4    1.436895 S    
O5    C3    1.291498 A    
O7    Cu2   1.961894 S    
C24   C28   1.398106 A    
C28   H7    1.083552 S    
O6    C4    1.291535 A    
N4    O12   1.301073 A    
C10   C21   1.486989 S    
C49   C55   1.408439 A    
N5    O14   1.302272 A    
C4    C19   1.447696 S    
C41   H17   1.081272 S    
O7    C3    1.287690 A    
O3    Cu2   1.973003 S    
O8    C4    1.287671 A    
C26   C34   1.402551 A    
C11   Br3   1.918616 S    
C12   Br4   1.918707 S    
C1    C23   1.472331 S    
C11   C13   1.399263 A    
C5    C15   1.396175 A    
C8    C10   1.410036 A    
C6    C16   1.396185 A    
C20   C22   1.412899 A    
C29   N6    1.438811 S    
C54   H20   1.074871 S    
O6    Cu2   1.959920 S    
C6    C8    1.399532 A    
C44   H15   1.080144 S    
C8    Br2   1.916536 S    
O3    C1    1.289504 A    
O8    Cu1   1.961894 S    
C42   H18   1.081271 S    
C23   C27   1.398076 A    
H1    C15   1.082726 S    
H2    C16   1.082759 S    
C9    C22   1.486948 S    
C38   H12   1.076346 S    
C30   N5    1.438830 S    
C39   Br7   1.924056 S    
C12   C14   1.399237 A    
C17   C22   1.394722 A    
C35   C38   1.409870 A    
C7    C9    1.410033 A    
C40   Br8   1.924051 S    
C14   H6    1.082910 S    
C47   C51   1.437626 A    
Cu1   N2    2.013009 S    
N6    O16   1.301266 A    
Cu2   N1    2.013009 S    
C32   C34   1.421344 A    
N4    O11   1.301476 A    
C5    H3    1.082551 S    
C6    H4    1.082567 S    
C9    C11   1.411860 A    
O2    Cu2   1.983168 S    
C51   C54   1.410514 A    
C5    C7    1.399463 A    
C55   N3    1.436901 S    
C30   C32   1.418982 A    
C32   C36   1.428769 A    
O1    Cu1   1.983168 S    
C53   H19   1.074861 S    
N5    O13   1.301248 A    
C46   C48   1.423953 A    
N3    O9    1.301495 A    
