data_mof_unit_22441.cif
_audit_creation_date              2012-12-10T16:59:21-0500
_audit_creation_method            fapswitch 2.2
_symmetry_space_group_name_H-M    P1
_symmetry_Int_Tables_number       1
_space_group_crystal_system       triclinic
_cell_length_a                    7.777858
_cell_length_b                    8.544625
_cell_length_c                    27.718756
_cell_angle_alpha                 91.682081
_cell_angle_beta                  85.411748
_cell_angle_gamma                 93.489288
_cell_volume                      1832.29477022

loop_
_atom_site_label
_atom_site_type_symbol
_atom_type_description
_atom_site_fract_x
_atom_site_fract_y
_atom_site_fract_z
_atom_type_partial_charge
C1    C     C_R   0.545601 0.794654 0.498775 0.960634
C2    C     C_R   0.525978 0.641402 0.128328 -0.022017
C3    C     C_R   0.505854 0.500119 0.646435 -0.037186
C4    C     C_R   0.494147 0.499864 0.353560 -0.037213
C5    C     C_R   0.537170 0.642805 0.026112 0.047764
C6    C     C_R   0.462849 0.357110 0.973890 0.047765
C7    C     C_R   0.456331 0.357929 0.025160 0.048023
C8    C     C_R   0.543684 0.641988 0.974841 0.048025
C9    C     C_R   0.493955 0.500694 0.050907 0.072049
C10   C     C_R   0.506061 0.499223 0.949095 0.072042
C11   C     C_R   0.572301 0.781480 0.053763 -0.227186
C12   C     C_R   0.454399 0.205346 0.501225 0.960649
C13   C     C_R   0.427728 0.218433 0.946238 -0.227195
C14   C     C_R   0.566833 0.780346 0.103795 -0.138951
C15   C     C_R   0.433198 0.219568 0.896206 -0.138947
C16   C     C_R   0.501734 0.500205 0.593887 0.859485
C17   C     C_R   0.498266 0.499795 0.406112 0.859494
C18   C     C_R   0.587106 0.779538 0.948111 -0.226189
C19   C     C_R   0.412905 0.220380 0.051891 -0.226180
C20   C     C_2   0.569804 0.958043 0.498020 -0.364894
C21   C     C_2   0.430196 0.041957 0.501979 -0.364901
C22   C     C_R   0.555413 0.635438 0.822104 0.506430
C23   C     C_R   0.511378 0.498620 0.897844 -0.049474
C24   C     C_R   0.444585 0.364487 0.177898 0.506447
C25   C     C_R   0.477607 0.360981 0.821203 0.507683
C26   C     C_R   0.522418 0.638937 0.178798 0.507744
C27   C     C_R   0.668309 0.500775 0.717315 -0.101680
C28   C     C_R   0.331763 0.500493 0.282691 -0.101822
C29   C     C_R   0.664706 0.501002 0.667308 -0.196081
C30   C     C_R   0.335362 0.500286 0.332699 -0.195907
C31   C     C_R   0.350975 0.499031 0.676190 -0.206531
C32   C     C_R   0.648959 0.499612 0.323790 -0.206363
C33   C     C_R   0.355085 0.498255 0.726148 -0.097604
C34   C     C_R   0.488637 0.501298 0.102157 -0.049465
C35   C     C_R   0.644855 0.500351 0.273830 -0.097776
C36   C     C_R   0.513561 0.499129 0.746595 0.323552
C37   C     C_R   0.486449 0.500795 0.253400 0.323857
C38   C     C_R   0.553464 0.638219 0.872598 -0.021915
C39   C     C_R   0.446546 0.361700 0.127404 -0.021952
C40   C     C_R   0.591519 0.777318 0.898066 -0.142427
C41   C     C_R   0.408491 0.222601 0.101936 -0.142434
C42   C     C_R   0.474043 0.358516 0.871673 -0.021987
H1    H     H_    0.214238 0.500068 0.354902 0.178381
H2    H     H_    0.374975 0.114006 0.120620 0.192443
H3    H     H_    0.209322 0.500819 0.266639 0.136320
H4    H     H_    0.790807 0.501477 0.733375 0.136474
H5    H     H_    0.595626 0.889539 0.123203 0.195696
H6    H     H_    0.404411 0.110374 0.876798 0.195710
H7    H     H_    0.605093 0.894164 0.038206 0.141537
H8    H     H_    0.394945 0.105747 0.961794 0.141537
H9    H     H_    0.619066 0.892140 0.964418 0.141015
H10   H     H_    0.380942 0.107778 0.035584 0.141018
H11   H     H_    0.701809 0.008707 0.494200 0.191190
H12   H     H_    0.785873 0.502299 0.645113 0.178504
H13   H     H_    0.298190 0.991293 0.505799 0.191188
H14   H     H_    0.226936 0.498151 0.660956 0.164964
H15   H     H_    0.772949 0.499432 0.339009 0.164958
H16   H     H_    0.936681 0.302329 0.439054 0.333203
H17   H     H_    0.063319 0.697675 0.560944 0.333206
H18   H     H_    0.235518 0.497159 0.749058 0.137100
H19   H     H_    0.764366 0.500403 0.250908 0.136962
H20   H     H_    0.625034 0.885915 0.879383 0.192451
N1    N     N_R   0.516885 0.498294 0.797785 -0.361564
N2    N     N_R   0.483121 0.501629 0.202214 -0.361615
N3    N     N_2   0.950320 0.457960 0.486880 0.176057
N4    N     N_2   0.049680 0.542040 0.513120 0.176063
O1    O     O_R   0.389250 0.738570 0.503220 -0.633692
O2    O     O_2   0.406155 0.231355 0.202581 -0.531620
O3    O     O_2   0.558035 0.772250 0.204390 -0.529919
O4    O     O_2   0.442041 0.227654 0.795612 -0.529973
O5    O     O_3   0.030594 0.357428 0.456158 -0.665163
O6    O     O_3   0.969406 0.642575 0.543840 -0.665277
O7    O     O_R   0.610750 0.261430 0.496780 -0.633685
O8    O     O_R   0.678390 0.711630 0.494810 -0.577028
O9    O     O_R   0.321610 0.288370 0.505190 -0.577032
O10   O     O_R   0.355440 0.513440 0.575450 -0.643616
O11   O     O_R   0.644560 0.486560 0.424550 -0.643636
O12   O     O_R   0.644590 0.486500 0.567040 -0.580519
O13   O     O_R   0.355410 0.513500 0.432960 -0.580538
O14   O     O_2   0.593801 0.768583 0.797426 -0.531688
Zn1   Zn    Zn3+2 0.306940 0.517990 0.505620 1.041610
Zn2   Zn    Zn3+2 0.693060 0.482010 0.494380 1.041614

loop_
_geom_bond_atom_site_label_1
_geom_bond_atom_site_label_2
_ccdc_geom_bond_type
C27   C29   A    
C33   C36   A    
C39   C41   A    
C23   C42   A    
C1    O8    A    
C28   C37   A    
C35   C37   A    
C5    C11   A    
C11   C14   A    
H16   O5    S    
C29   H12   S    
C22   C38   A    
C17   O13   A    
C24   C39   A    
C40   H20   S    
C25   N1    A    
C3    C29   A    
C18   C40   A    
C26   N2    A    
C22   N1    A    
C14   H5    S    
C19   H10   S    
N4    O6    S    
C31   C33   A    
C31   H14   S    
C36   N1    S    
H17   O6    S    
C2    C34   A    
C24   N2    A    
C12   O7    A    
C32   H15   S    
O8    Zn2   S    
C18   H9    S    
C28   H3    S    
C34   C39   A    
C32   C35   A    
C2    C26   A    
O13   Zn1   S    
O9    Zn1   S    
N3    O5    S    
C12   C21   S    
C8    C18   A    
C25   C42   A    
C5    C9    A    
C11   H7    S    
O12   Zn2   S    
C17   O11   A    
C35   H19   S    
C3    C31   A    
C4    C32   A    
C4    C17   S    
C27   H4    S    
O1    Zn1   S    
C33   H18   S    
C7    C19   A    
C13   C15   A    
C9    C34   A    
C10   C23   A    
C41   H2    S    
C30   H1    S    
O7    Zn2   S    
C37   N2    S    
C21   H13   S    
C7    C9    A    
C1    C20   S    
C16   O10   A    
C15   H6    S    
C15   C42   A    
C20   H11   S    
O10   Zn1   S    
C6    C10   A    
C5    C8    A    
C6    C7    A    
C27   C36   A    
C23   C38   A    
C28   C30   A    
C22   O14   S    
C6    C13   A    
C38   C40   A    
N3    Zn2   S    
O11   Zn2   S    
C1    O1    A    
C16   O12   A    
C2    C14   A    
C24   O2    S    
C13   H8    S    
C20   C21   D    
C8    C10   A    
N3    N4    D    
C12   O9    A    
C26   O3    S    
C25   O4    S    
C4    C30   A    
C3    C16   S    
C19   C41   A    
N4    Zn1   S    
