data_mof_unit_23849.cif
_audit_creation_date              2012-12-10T16:53:09-0500
_audit_creation_method            fapswitch 2.2
_symmetry_space_group_name_H-M    P1
_symmetry_Int_Tables_number       1
_space_group_crystal_system       triclinic
_cell_length_a                    10.947559
_cell_length_b                    10.891268
_cell_length_c                    9.70216
_cell_angle_alpha                 92.891324
_cell_angle_beta                  89.188502
_cell_angle_gamma                 90.572214
_cell_volume                      1155.17739606

loop_
_atom_site_label
_atom_site_type_symbol
_atom_type_description
_atom_site_fract_x
_atom_site_fract_y
_atom_site_fract_z
_atom_type_partial_charge
C1    C     C_R   0.500354 0.265617 0.496508 0.821690
C2    C     C_R   0.056654 0.472101 0.626393 0.060747
C3    C     C_R   0.126406 0.489585 0.502579 -0.210039
C4    C     C_R   0.063748 0.486193 0.374743 0.183553
C5    C     C_R   0.937449 0.497084 0.374055 0.211315
C6    C     C_R   0.869832 0.475502 0.494838 -0.199770
C7    C     C_2   0.575118 0.934226 0.409467 -0.080503
C8    C     C_2   0.537597 0.867255 0.516902 -0.274597
C9    C     C_2   0.593450 0.068395 0.428726 0.253190
C10   C     C_2   0.499987 0.133637 0.485746 -0.356182
C11   C     C_2   0.445569 0.416932 0.918652 -0.165390
C12   C     C_R   0.261586 0.497813 0.501187 0.817329
C13   C     C_2   0.468071 0.405405 0.070374 0.315686
C14   C     C_R   0.509773 0.735058 0.503474 0.818318
C15   C     C_R   0.736943 0.491503 0.498333 0.808356
C16   C     C_R   0.104420 0.478161 0.761936 -0.207204
C17   C     C_R   0.038842 0.430630 0.871546 -0.197961
C18   C     C_R   0.925592 0.374638 0.849670 0.316959
C19   C     C_R   0.871471 0.381774 0.721412 -0.186122
C20   C     C_R   0.931488 0.442414 0.613898 0.009929
Cu1   Cu    Cu3+1 0.500020 0.500020 0.638630 0.940678
Cu2   Cu    Cu3+1 0.499980 0.499980 0.361370 0.969095
H1    H     H_    0.417083 0.088242 0.520519 0.118737
H2    H     H_    0.391133 0.346170 0.865230 0.170135
H3    H     H_    0.559528 0.557366 0.897025 0.204557
H4    H     H_    0.500597 0.583673 0.111436 0.186771
H5    H     H_    0.188742 0.523385 0.789746 0.188346
H6    H     H_    0.076753 0.437237 0.973366 0.167629
H7    H     H_    0.783560 0.337272 0.706037 0.155663
N1    N     N_2   0.498640 0.498660 0.846910 -0.295466
N2    N     N_2   0.498610 0.498630 0.153040 -0.282610
O1    O     O_R   0.500020 0.321960 0.617040 -0.577580
O2    O     O_R   0.499980 0.321920 0.382900 -0.540527
O3    O     O_R   0.319670 0.500020 0.617100 -0.589515
O4    O     O_R   0.319630 0.499980 0.382950 -0.567825
O5    O     O_R   0.500020 0.678080 0.617100 -0.564237
O6    O     O_R   0.499980 0.678040 0.382960 -0.573664
O7    O     O_R   0.680370 0.500020 0.617050 -0.589851
O8    O     O_R   0.680330 0.499980 0.382900 -0.538451
N3    N     N_2   0.122609 0.460726 0.244982 -0.434835
H8    H     H_    0.181993 0.525865 0.208422 0.272006
C21   C     C_3   0.151970 0.332536 0.216336 -0.667778
H9    H     H_    0.068765 0.274498 0.227703 0.226024
H10   H     H_    0.186999 0.318902 0.109178 0.198197
H11   H     H_    0.222348 0.301969 0.287985 0.244775
N4    N     N_2   0.455415 0.286168 0.121657 -0.379163
H12   H     H_    0.379617 0.239429 0.084206 0.217993
C22   C     C_3   0.563523 0.212203 0.099820 -0.600005
H13   H     H_    0.548750 0.121816 0.145394 0.238506
H14   H     H_    0.643294 0.258500 0.150138 0.247282
H15   H     H_    0.582758 0.195898 0.987585 0.209980
N5    N     N_2   0.862778 0.318210 0.959095 -0.452274
H16   H     H_    0.769049 0.323221 0.953097 0.252771
C23   C     C_3   0.903426 0.195328 0.982988 -0.711415
H17   H     H_    0.858431 0.162693 0.077871 0.244489
H18   H     H_    0.003856 0.194163 0.997199 0.233756
H19   H     H_    0.878905 0.131714 0.894280 0.233320
N6    N     N_2   0.878842 0.524867 0.249216 -0.391126
H20   H     H_    0.908932 0.474222 0.163232 0.295608
C24   C     C_3   0.873480 0.654805 0.226008 -0.636375
H21   H     H_    0.967046 0.692966 0.211422 0.206028
H22   H     H_    0.827692 0.704898 0.314713 0.226236
H23   H     H_    0.820073 0.668777 0.131729 0.237693
C25   C     C_1   0.594415 0.881200 0.270942 0.285042
N7    N     N_1   0.609940 0.839493 0.160059 -0.307492
C26   C     C_1   0.537281 0.921879 0.657258 0.271624
N8    N     N_1   0.537168 0.965112 0.768733 -0.288125
N9    N     N_2   0.704134 0.125485 0.381353 -0.428192
H24   H     H_    0.710589 0.219634 0.396049 0.250343
C27   C     C_3   0.816796 0.065178 0.413160 -0.701067
H25   H     H_    0.895522 0.117492 0.371487 0.219514
H26   H     H_    0.819470 0.970628 0.364970 0.235740
H27   H     H_    0.826398 0.061836 0.526800 0.229730

loop_
_geom_bond_atom_site_label_1
_geom_bond_atom_site_label_2
_ccdc_geom_bond_type
C8    C14   S    
C15   O7    A    
C8    C26   S    
C27   H25   S    
Cu1   O3    S    
C10   H1    S    
C6    C20   A    
C9    C10   D    
Cu1   N1    S    
C19   C20   A    
C25   N7    T    
N3    H8    S    
C27   H27   S    
C22   H14   S    
C17   C18   A    
C6    C15   S    
C9    N9    S    
C18   N5    S    
H4    N2    S    
Cu1   O5    S    
Cu1   Cu2   S    
C12   O4    A    
Cu2   O4    S    
C11   C13   S    
C15   O8    A    
C5    C6    A    
C21   H10   S    
C5    N6    S    
C16   H5    S    
C24   H23   S    
Cu2   O8    S    
H3    N1    S    
N3    C21   S    
C22   H13   S    
N5    C23   S    
C2    C3    A    
C23   H18   S    
C22   H15   S    
C14   O5    A    
C13   N4    S    
Cu1   O1    S    
N4    C22   S    
C7    C25   S    
C16   C17   A    
Cu2   N2    S    
C1    O2    A    
C21   H11   S    
N6    C24   S    
C3    C4    A    
C19   H7    S    
C11   H2    S    
C7    C8    D    
C2    C16   A    
N5    H16   S    
C24   H21   S    
C24   H22   S    
C18   C19   A    
C21   H9    S    
C26   N8    T    
C7    C9    S    
N9    C27   S    
C23   H17   S    
C4    C5    A    
C27   H26   S    
C3    C12   S    
C12   O3    A    
C17   H6    S    
N6    H20   S    
N4    H12   S    
Cu2   O6    S    
C2    C20   A    
C1    C10   S    
C13   N2    D    
C1    O1    A    
Cu1   O7    S    
C4    N3    S    
C11   N1    D    
N9    H24   S    
C14   O6    A    
C23   H19   S    
Cu2   O2    S    
