data_mof_unit_32082.cif
_audit_creation_date              2012-12-11T15:52:17-0500
_audit_creation_method            fapswitch 2.2
_symmetry_space_group_name_H-M    P1
_symmetry_Int_Tables_number       1
_space_group_crystal_system       triclinic
_cell_length_a                    11.306867
_cell_length_b                    11.479435
_cell_length_c                    18.790775
_cell_angle_alpha                 89.174852
_cell_angle_beta                  90.068924
_cell_angle_gamma                 119.23365
_cell_volume                      2128.06841059

loop_
_atom_site_label
_atom_site_type_symbol
_atom_type_description
_atom_site_fract_x
_atom_site_fract_y
_atom_site_fract_z
_atom_type_partial_charge
C1    C     C_R   0.521399 0.455451 0.147505 0.525107
C2    C     C_R   0.544259 0.065718 0.147367 0.526415
C3    C     C_R   0.934708 0.478808 0.147601 0.529637
C4    C     C_R   0.452306 0.521516 0.853428 0.534407
C5    C     C_R   0.075456 0.550656 0.855297 0.526103
C6    C     C_R   0.475571 0.925946 0.855208 0.538428
C7    C     C_3   0.735720 0.052963 0.563481 0.320362
C8    C     C_3   0.017446 0.739194 0.531621 0.300227
C9    C     C_3   0.282636 0.276142 0.548548 0.302345
C10   C     C_3   0.024761 0.741280 0.450256 0.325417
C11   C     C_3   0.749490 0.055272 0.482417 0.271200
C12   C     C_3   0.295107 0.251784 0.467624 0.313829
C13   C     C_R   0.514021 0.456516 0.350234 0.590010
C14   C     C_R   0.544801 0.060474 0.352537 0.556971
C15   C     C_R   0.929634 0.477924 0.355142 0.547140
C16   C     C_R   0.448789 0.527653 0.642204 0.519531
C17   C     C_R   0.062624 0.546324 0.647325 0.516707
C18   C     C_R   0.455087 0.875432 0.639673 0.565996
C19   C     C_R   0.485858 0.956695 0.930909 0.021469
C20   C     C_R   0.046909 0.531018 0.931195 0.020939
C21   C     C_R   0.474511 0.499957 0.927187 0.025341
C22   C     C_R   0.002011 0.500362 0.078872 0.015913
C23   C     C_R   0.499937 0.999867 0.078865 0.015618
C24   C     C_R   0.505688 0.491391 0.075305 0.018399
C25   C     C_R   0.402486 0.998826 0.963129 0.001571
C26   C     C_R   0.999862 0.406316 0.963642 0.002934
C27   C     C_R   0.602206 0.541954 0.956014 -0.009611
C28   C     C_R   0.975799 0.390892 0.036220 0.011086
C29   C     C_R   0.411079 0.022124 0.035726 0.006855
C30   C     C_R   0.617151 0.537697 0.028790 0.020958
C31   C     C_R   0.566556 0.936539 0.048636 -0.162951
C32   C     C_R   0.071609 0.628764 0.048367 -0.170293
C33   C     C_R   0.375815 0.437428 0.046225 -0.164940
C34   C     C_R   0.093290 0.643925 0.974930 -0.154131
C35   C     C_R   0.560189 0.916076 0.975368 -0.148366
C36   C     C_R   0.360366 0.441653 0.972981 -0.145704
C37   C     C_3   0.389414 0.119383 0.946163 -0.275357
C38   C     C_3   0.875306 0.278204 0.947664 -0.282621
C39   C     C_3   0.733054 0.668180 0.946637 -0.280763
C40   C     C_3   0.848085 0.261062 0.027169 -0.237962
C41   C     C_3   0.399388 0.145434 0.025430 -0.243285
C42   C     C_3   0.747785 0.666528 0.027040 -0.259834
C43   C     C_R   0.476142 0.917386 0.566111 0.014703
C44   C     C_R   0.013553 0.527245 0.574481 0.072334
C45   C     C_R   0.467882 0.520294 0.564904 -0.043539
C46   C     C_R   0.965570 0.495547 0.430251 0.024326
C47   C     C_R   0.521644 0.002777 0.424194 0.092977
C48   C     C_R   0.471360 0.495981 0.414497 -0.011230
C49   C     C_R   0.596691 0.032365 0.546775 -0.065098
C50   C     C_R   0.069624 0.640378 0.530521 -0.036547
C51   C     C_R   0.368302 0.416574 0.529022 -0.056134
C52   C     C_R   0.052564 0.624425 0.456474 -0.089290
C53   C     C_R   0.624537 0.072067 0.474748 -0.004261
C54   C     C_R   0.365235 0.401462 0.456519 -0.046421
C55   C     C_R   0.420660 0.872054 0.441218 -0.073659
C56   C     C_R   0.866953 0.406646 0.478916 -0.013912
C57   C     C_R   0.557173 0.614960 0.447098 -0.087999
C58   C     C_R   0.889424 0.425615 0.551902 -0.038818
C59   C     C_R   0.397493 0.829973 0.512633 -0.086662
C60   C     C_R   0.569051 0.616024 0.521272 -0.041837
Cr1   Cr    Cr6+3 0.769160 0.541570 0.250690 1.013189
Cr2   Cr    Cr6+3 0.458430 0.227590 0.250690 0.988307
Cr3   Cr    Cr6+3 0.772410 0.230840 0.250690 1.012765
Cr4   Cr    Cr6+3 0.541570 0.769160 0.749310 0.999841
Cr5   Cr    Cr6+3 0.227590 0.458430 0.749310 1.039133
Cr6   Cr    Cr6+3 0.230840 0.772410 0.749310 1.043415
H1    H     H_    0.632640 0.913205 0.080279 0.127092
H2    H     H_    0.098549 0.716399 0.079916 0.133176
H3    H     H_    0.286397 0.391470 0.080006 0.133116
H4    H     H_    0.142225 0.743997 0.952276 0.150463
H5    H     H_    0.616910 0.871903 0.953376 0.135397
H6    H     H_    0.258796 0.404666 0.952614 0.150247
H7    H     H_    0.288318 0.092894 0.924005 0.149154
H8    H     H_    0.899465 0.203069 0.925323 0.142160
H9    H     H_    0.721082 0.752799 0.926179 0.147643
H10   H     H_    0.755896 0.266197 0.042773 0.147362
H11   H     H_    0.493563 0.237367 0.040247 0.150312
H12   H     H_    0.834688 0.653431 0.043873 0.164157
H13   H     H_    0.477232 0.196696 0.915207 0.135353
H14   H     H_    0.798865 0.292894 0.917377 0.129952
H15   H     H_    0.809296 0.651962 0.917591 0.144209
H16   H     H_    0.855889 0.175603 0.050554 0.148816
H17   H     H_    0.304374 0.134829 0.048906 0.148665
H18   H     H_    0.740052 0.748334 0.053839 0.126969
H19   H     H_    0.362255 0.802830 0.400327 0.089399
H20   H     H_    0.771024 0.328617 0.460166 0.167996
H21   H     H_    0.637268 0.689904 0.416581 0.186678
H22   H     H_    0.807072 0.373872 0.588768 0.120882
H23   H     H_    0.322864 0.728773 0.526180 0.114921
H24   H     H_    0.669079 0.665446 0.539919 0.258540
O1    O     O_R   0.911480 0.572650 0.170990 -0.534775
O2    O     O_R   0.427350 0.338830 0.170990 -0.543488
O3    O     O_R   0.661170 0.088520 0.170990 -0.540826
O4    O     O_R   0.572650 0.911480 0.829010 -0.541701
O5    O     O_R   0.338830 0.427350 0.829010 -0.516677
O6    O     O_R   0.088520 0.661170 0.829010 -0.538578
O7    O     O_R   0.640340 0.528970 0.175680 -0.513645
O8    O     O_R   0.471030 0.111370 0.175680 -0.518206
O9    O     O_R   0.888630 0.359660 0.175680 -0.511116
O10   O     O_R   0.528970 0.640340 0.824320 -0.516207
O11   O     O_R   0.111370 0.471030 0.824320 -0.511432
O12   O     O_R   0.359660 0.888630 0.824320 -0.498385
O13   O     O_R   0.909980 0.572450 0.331530 -0.500860
O14   O     O_R   0.427550 0.337530 0.331530 -0.541667
O15   O     O_R   0.662470 0.090020 0.331530 -0.533186
O16   O     O_R   0.572450 0.909980 0.668470 -0.534865
O17   O     O_R   0.337530 0.427550 0.668470 -0.468227
O18   O     O_R   0.090020 0.662470 0.668470 -0.530612
O19   O     O_R   0.638950 0.528780 0.324500 -0.489570
O20   O     O_R   0.471220 0.110170 0.324500 -0.488446
O21   O     O_R   0.889830 0.361050 0.324500 -0.456184
O22   O     O_R   0.528780 0.638950 0.675500 -0.496584
O23   O     O_R   0.110170 0.471220 0.675500 -0.489723
O24   O     O_R   0.361050 0.889830 0.675500 -0.435472
O25   O     O_3   0.666667 0.333333 0.250560 -0.264262
O26   O     O_3   0.333333 0.666667 0.749440 -0.309572
C61   C     C_2   0.772458 0.953839 0.596343 0.738640
O27   O     O_2   0.694933 0.837346 0.591748 -0.539177
O28   O     O_R   0.883753 0.995455 0.640896 -0.674140
H25   H     H_    0.884137 0.919999 0.669089 0.306314
C62   C     C_2   0.100705 0.873732 0.560029 0.656412
O29   O     O_2   0.193274 0.899472 0.600380 -0.497361
O30   O     O_R   0.058723 0.965534 0.545950 -0.575084
H26   H     H_    0.095350 0.034868 0.583321 0.399782
C63   C     C_2   0.157943 0.274493 0.579569 0.738357
O31   O     O_2   0.111959 0.341308 0.552299 -0.517465
O32   O     O_R   0.110683 0.215146 0.646608 -0.614640
H27   H     H_    0.039008 0.233666 0.666963 0.368129
C64   C     C_2   0.893964 0.717286 0.417867 0.678748
O33   O     O_2   0.790591 0.617871 0.436554 -0.509630
O34   O     O_R   0.897866 0.781925 0.353597 -0.751576
H28   H     H_    0.810066 0.743775 0.326876 0.325368
C65   C     C_2   0.893676 0.150464 0.468679 0.638817
O35   O     O_2   0.968237 0.118001 0.497526 -0.405371
O36   O     O_R   0.941481 0.243062 0.414022 -0.716409
H29   H     H_    0.043593 0.300530 0.413673 0.352007
C66   C     C_2   0.383700 0.190134 0.459166 0.620627
O37   O     O_2   0.505278 0.256414 0.447120 -0.558148
O38   O     O_R   0.327778 0.058347 0.478387 -0.607179
H30   H     H_    0.376583 0.051512 0.521247 0.343699
O39   O     O_3   0.814995 0.178153 0.596281 -0.604603
C67   C     C_3   0.772866 0.180319 0.667419 -0.116759
H31   H     H_    0.839662 0.279979 0.689931 0.110434
H32   H     H_    0.783703 0.108922 0.703410 0.182697
H33   H     H_    0.668158 0.164571 0.669534 0.114261
O40   O     O_3   0.880425 0.680661 0.557444 -0.598451
C68   C     C_3   0.862081 0.674862 0.632416 -0.097669
H34   H     H_    0.944734 0.757599 0.661640 0.145861
H35   H     H_    0.840977 0.576413 0.654092 0.104215
H36   H     H_    0.769852 0.680559 0.644785 0.155471
O41   O     O_3   0.330552 0.210218 0.597124 -0.555200
C69   C     C_3   0.471480 0.271058 0.610939 -0.106291
H37   H     H_    0.494854 0.323716 0.662280 0.140152
H38   H     H_    0.538163 0.338309 0.568282 0.129703
H39   H     H_    0.497955 0.190773 0.617648 0.137254
O42   O     O_3   0.137846 0.856359 0.420177 -0.527793
C70   C     C_3   0.165918 0.838773 0.348499 -0.060074
H40   H     H_    0.272309 0.907830 0.336834 0.131312
H41   H     H_    0.112219 0.868989 0.309603 0.159083
H42   H     H_    0.151723 0.738353 0.337229 0.098784
O43   O     O_3   0.714657 0.927596 0.454557 -0.599656
C71   C     C_3   0.776515 0.936989 0.387597 -0.092135
H43   H     H_    0.871350 0.938558 0.400094 0.224912
H44   H     H_    0.814231 0.030228 0.356816 0.165843
H45   H     H_    0.706129 0.859268 0.351183 0.093274
O44   O     O_3   0.167551 0.177581 0.435384 -0.524158
C72   C     C_3   0.168812 0.163507 0.361142 -0.033121
H46   H     H_    0.065394 0.090655 0.344137 0.118791
H47   H     H_    0.233741 0.120932 0.344705 0.170806
H48   H     H_    0.192542 0.258480 0.333377 0.113261

loop_
_geom_bond_atom_site_label_1
_geom_bond_atom_site_label_2
_ccdc_geom_bond_type
C38   C40   S    
C45   C60   A    
C70   H40   S    
Cr4   O26   S    
C65   O35   D    
C55   C59   A    
C61   O27   D    
Cr6   O12   S    
C44   C58   A    
C68   H34   S    
C9    C51   S    
Cr5   O11   S    
Cr1   O19   S    
C18   O24   A    
O43   C71   S    
C17   O23   A    
O30   H26   S    
C72   H47   S    
C5    C20   S    
C2    O8    A    
C31   H1    S    
C6    C19   S    
C37   H13   S    
Cr6   O26   S    
C23   C29   A    
Cr6   O6    S    
O42   C70   S    
Cr1   O13   S    
Cr1   O1    S    
C71   H43   S    
C11   C65   S    
C12   O44   S    
C8    C62   S    
Cr4   O22   S    
C45   C51   A    
C36   H6    S    
C41   H17   S    
C3    O9    A    
C46   C52   A    
C11   O43   S    
C33   C36   A    
C3    O1    A    
C59   H23   S    
Cr3   O9    S    
C7    C61   S    
C13   O19   A    
C16   O17   A    
C25   C37   S    
Cr2   O8    S    
C14   O15   A    
C27   C39   S    
C6    O4    A    
Cr2   O2    S    
Cr1   O25   S    
C50   C52   A    
O41   C69   S    
C39   H9    S    
C39   C42   S    
C10   C64   S    
C34   H4    S    
Cr2   O14   S    
C11   C53   S    
C33   H3    S    
C47   C53   A    
Cr3   O25   S    
O36   H29   S    
C21   C27   A    
C35   H5    S    
C70   H41   S    
C22   C28   A    
C27   C30   A    
C37   C41   S    
C67   H33   S    
C72   H48   S    
C71   H44   S    
C25   C29   A    
C8    O40   S    
C40   H16   S    
C48   C54   A    
C48   C57   A    
C68   H36   S    
C42   H18   S    
C7    C49   S    
C17   O18   A    
C10   O42   S    
C72   H46   S    
C21   C36   A    
C43   C49   A    
C57   C60   A    
C9    C63   S    
C57   H21   S    
C23   C31   A    
C55   H19   S    
C7    C11   S    
C18   O16   A    
C15   O21   A    
C71   H45   S    
C66   O38   S    
C10   C52   S    
C56   H20   S    
Cr2   O20   S    
C69   H39   S    
Cr5   O5    S    
O28   H25   S    
C13   O14   A    
C39   H15   S    
C62   O29   D    
C22   C32   A    
C69   H38   S    
C42   H12   S    
C70   H42   S    
C60   H24   S    
C4    O10   A    
O44   C72   S    
Cr5   O26   S    
C31   C35   A    
Cr3   O15   S    
C4    O5    A    
C1    O7    A    
O34   H28   S    
C8    C50   S    
C7    O39   S    
C5    O6    A    
C16   O22   A    
C47   C55   A    
O40   C68   S    
C38   H8    S    
C44   C50   A    
C14   O20   A    
C37   H7    S    
C9    O41   S    
Cr6   O24   S    
C68   H35   S    
C12   C66   S    
Cr5   O23   S    
C2    O3    A    
Cr1   O7    S    
Cr6   O18   S    
C58   H22   S    
C16   C45   S    
C13   C48   S    
O38   H30   S    
Cr4   O16   S    
C14   C47   S    
C43   C59   A    
C1    O2    A    
C66   O37   D    
Cr3   O3    S    
C26   C28   A    
C24   C33   A    
C5    O11   A    
C32   H2    S    
C51   C54   A    
C26   C38   S    
C61   O28   S    
C64   O33   D    
C17   C44   S    
C20   C34   A    
Cr2   O25   S    
C19   C35   A    
O39   C67   S    
C41   H11   S    
C4    C21   S    
C63   O31   D    
C29   C41   S    
C20   C26   A    
C49   C53   A    
C56   C58   A    
C67   H32   S    
C6    O12   A    
Cr3   O21   S    
C19   C25   A    
C9    C12   S    
C24   C30   A    
C62   O30   S    
Cr4   O4    S    
C40   H10   S    
Cr4   O10   S    
C69   H37   S    
C38   H14   S    
C1    C24   S    
C8    C10   S    
C46   C56   A    
C2    C23   S    
C63   O32   S    
C65   O36   S    
C28   C40   S    
C67   H31   S    
C30   C42   S    
C3    C22   S    
C15   C46   S    
C15   O13   A    
C18   C43   S    
Cr5   O17   S    
C12   C54   S    
O32   H27   S    
C32   C34   A    
C64   O34   S    
