data_mof_unit_66226.cif
_audit_creation_date              2012-12-11T14:22:49-0500
_audit_creation_method            fapswitch 2.2
_symmetry_space_group_name_H-M    P1
_symmetry_Int_Tables_number       1
_space_group_crystal_system       triclinic
_cell_length_a                    16.891775
_cell_length_b                    6.952451
_cell_length_c                    15.32804
_cell_angle_alpha                 89.999974
_cell_angle_beta                  93.688376
_cell_angle_gamma                 90.0
_cell_volume                      1796.38474448

loop_
_atom_site_label
_atom_site_type_symbol
_atom_type_description
_atom_site_fract_x
_atom_site_fract_y
_atom_site_fract_z
_atom_type_partial_charge
O1    O     O_R   0.414560 0.494300 0.417030 -0.535907
O2    O     O_R   0.585440 0.994300 0.582970 -0.535907
O3    O     O_R   0.577160 0.822630 0.413790 -0.534676
O4    O     O_R   0.422840 0.322630 0.586210 -0.534676
C1    C     C_R   0.604241 0.655199 0.393260 0.728126
C2    C     C_R   0.395759 0.155199 0.606740 0.728126
O5    O     O_R   0.414660 0.823920 0.406630 -0.546231
O6    O     O_R   0.585340 0.323920 0.593370 -0.546231
O7    O     O_R   0.421790 0.995650 0.575760 -0.535802
O8    O     O_R   0.578210 0.495650 0.424240 -0.535802
C3    C     C_R   0.388949 0.654334 0.382386 0.628165
C4    C     C_R   0.611051 0.154334 0.617614 0.628165
O9    O     O_3   0.502530 0.661260 0.555500 -0.368090
O10   O     O_3   0.497470 0.161260 0.444500 -0.368090
V1    V     V_3+5 0.499530 0.935570 0.489700 1.461637
V2    V     V_3+5 0.500470 0.435570 0.510300 1.461637
C5    C     C_2   0.784764 0.273552 0.786009 0.522070
C6    C     C_2   0.215236 0.773552 0.213991 0.522070
C7    C     C_2   0.827024 0.114048 0.809361 0.393105
C8    C     C_2   0.172976 0.614048 0.190638 0.393105
C9    C     C_2   0.724658 0.277550 0.710469 -0.155072
C10   C     C_2   0.275342 0.777550 0.289531 -0.155072
C11   C     C_2   0.669873 0.138718 0.693911 0.210831
C12   C     C_2   0.330127 0.638718 0.306088 0.210831
H1    H     H_    0.723232 0.405686 0.669828 0.125757
H2    H     H_    0.276768 0.905686 0.330172 0.125757
C13   C     C_1   0.166440 0.119216 0.831361 -0.173096
C14   C     C_1   0.833560 0.619216 0.168638 -0.173096
C15   C     C_1   0.218933 0.127496 0.780113 0.021961
C16   C     C_1   0.781067 0.627496 0.219887 0.021961
C17   C     C_1   0.280897 0.137427 0.719959 0.020778
C18   C     C_1   0.719103 0.637427 0.280041 0.020778
C19   C     C_1   0.333385 0.145735 0.668705 -0.183184
C20   C     C_1   0.666615 0.645735 0.331294 -0.183184
O11   O     O_R   0.921850 0.770730 0.075840 -0.541204
O12   O     O_R   0.078150 0.270730 0.924160 -0.541204
O13   O     O_R   0.085350 0.439650 0.093390 -0.506808
O14   O     O_R   0.914650 0.939650 0.906610 -0.506809
C21   C     C_R   0.111920 0.608715 0.116763 0.656380
C22   C     C_R   0.888080 0.108715 0.883236 0.656379
O15   O     O_R   0.922860 0.441090 0.086230 -0.540485
O16   O     O_R   0.077140 0.941090 0.913770 -0.540485
O17   O     O_R   0.914540 0.269530 0.917020 -0.528218
O18   O     O_R   0.085460 0.769530 0.082980 -0.528218
C23   C     C_R   0.895943 0.609821 0.106682 0.726666
C24   C     C_R   0.104057 0.109821 0.893318 0.726667
O19   O     O_3   0.997510 0.602520 0.944550 -0.363274
O20   O     O_3   0.002490 0.102520 0.055450 -0.363274
V3    V     V_3+5 0.000460 0.328160 0.010290 1.591714
V4    V     V_3+5 0.999540 0.828160 0.989710 1.591714
F1    F     F_    0.799546 0.442699 0.828600 -0.659204
F2    F     F_    0.200454 0.942699 0.171400 -0.659204
F3    F     F_    0.817754 0.950864 0.760661 -0.631718
F4    F     F_    0.182246 0.450864 0.239339 -0.631718
O21   O     O_3   0.666285 0.985628 0.751297 -0.591171
H3    H     H_    0.619442 0.905458 0.733769 0.306950
O22   O     O_3   0.333715 0.485628 0.248703 -0.591170
H4    H     H_    0.380558 0.405458 0.266230 0.306949

loop_
_geom_bond_atom_site_label_1
_geom_bond_atom_site_label_2
_ccdc_geom_bond_type
O4    V2    S    
O14   C22   A    
O21   H3    S    
C17   C19   T    
C14   C16   T    
C11   O21   S    
C21   O18   A    
O14   V4    S    
C13   C15   T    
C6    C10   S    
O13   V3    S    
O15   C23   A    
O1    C3    A    
C2    C19   S    
O6    C4    A    
O2    C4    A    
C1    C20   S    
C5    F1    S    
C2    O7    A    
O20   V4    S    
O7    V1    S    
C6    F2    S    
C1    O8    A    
O6    V2    S    
O1    V2    S    
O8    V2    S    
O19   V3    S    
O5    C3    A    
O2    V1    S    
C4    C11   S    
C7    F3    S    
O22   H4    S    
O11   V4    S    
C13   C24   S    
O15   V3    S    
O20   V3    S    
C5    C7    D    
O16   V4    S    
O19   V4    S    
C6    C8    D    
C9    C11   D    
O9    V1    S    
C10   H2    S    
O13   C21   A    
O10   V2    S    
C14   C23   S    
O9    V2    S    
O4    C2    A    
C7    C22   S    
C16   C18   S    
C3    C12   S    
O3    V1    S    
C8    F4    S    
O16   C24   A    
C10   C12   D    
O18   V4    S    
C8    C21   S    
C9    H1    S    
O10   V1    S    
O17   V3    S    
O12   C24   A    
O5    V1    S    
C15   C17   S    
C22   O17   A    
C5    C9    S    
O12   V3    S    
C18   C20   T    
C12   O22   S    
O3    C1    A    
O11   C23   A    
