data_mof_unit_12199.cif
_audit_creation_date              2012-12-11T14:40:30-0500
_audit_creation_method            fapswitch 2.2
_symmetry_space_group_name_H-M    P1
_symmetry_Int_Tables_number       1
_space_group_crystal_system       triclinic
_cell_length_a                    19.573615
_cell_length_b                    10.959306
_cell_length_c                    19.441151
_cell_angle_alpha                 89.525782
_cell_angle_beta                  97.333261
_cell_angle_gamma                 90.025698
_cell_volume                      4136.1301637

loop_
_atom_site_label
_atom_site_type_symbol
_atom_type_description
_atom_site_fract_x
_atom_site_fract_y
_atom_site_fract_z
_atom_type_partial_charge
C1    C     C_R   0.706240 0.000996 0.365801 0.567582
C2    C     C_R   0.293628 0.004000 0.633898 0.553497
C3    C     C_R   0.206240 0.500995 0.365801 0.567580
C4    C     C_R   0.793629 0.504003 0.633898 0.553494
C5    C     C_3   0.713400 0.364881 0.490416 -0.147102
C6    C     C_3   0.220054 0.329500 0.513192 -0.123391
C7    C     C_3   0.213389 0.864883 0.490415 -0.147113
C8    C     C_3   0.720054 0.829503 0.513192 -0.123390
C9    C     C_3   0.752578 0.409243 0.431894 0.058607
C10   C     C_3   0.247862 0.419632 0.570469 0.055413
C11   C     C_3   0.252574 0.909233 0.431897 0.058607
C12   C     C_3   0.747860 0.919634 0.570469 0.055409
C13   C     C_3   0.745415 0.541512 0.453453 -0.032048
C14   C     C_3   0.300684 0.467698 0.524818 -0.015828
C15   C     C_3   0.245420 0.041505 0.453454 -0.032036
C16   C     C_3   0.800683 0.967702 0.524820 -0.015822
C17   C     C_3   0.816261 0.531000 0.499914 -0.147519
C18   C     C_3   0.248039 0.564901 0.494434 -0.148960
C19   C     C_3   0.316262 0.030976 0.499919 -0.147517
C20   C     C_3   0.748038 0.064906 0.494436 -0.148960
C21   C     C_3   0.821944 0.397382 0.477530 0.003893
C22   C     C_3   0.195097 0.514980 0.540661 -0.017475
C23   C     C_3   0.321937 0.897355 0.477537 0.003879
C24   C     C_3   0.695095 0.014983 0.540662 -0.017484
C25   C     C_3   0.783225 0.352145 0.536365 -0.109152
C26   C     C_3   0.166872 0.425561 0.483314 -0.118447
C27   C     C_3   0.283210 0.852132 0.536370 -0.109128
C28   C     C_3   0.666872 0.925564 0.483314 -0.118448
C29   C     C_3   0.777430 0.483795 0.559323 0.034839
C30   C     C_3   0.220595 0.473002 0.438947 0.039196
C31   C     C_3   0.277425 0.983785 0.559325 0.034848
C32   C     C_3   0.720595 0.973006 0.438947 0.039198
C33   C     C_3   0.528114 0.270591 0.976120 -0.126242
C34   C     C_3   0.469343 0.266240 0.022059 -0.130492
C35   C     C_3   0.028114 0.770591 0.976120 -0.126241
C36   C     C_3   0.969344 0.766241 0.022059 -0.130492
C37   C     C_3   0.568327 0.172580 0.022196 -0.114506
C38   C     C_3   0.434200 0.162348 0.977656 -0.115501
C39   C     C_3   0.068327 0.672580 0.022196 -0.114505
C40   C     C_3   0.934200 0.662349 0.977656 -0.115504
C41   C     C_3   0.508991 0.168953 0.067561 0.050176
C42   C     C_3   0.493408 0.167413 0.931964 0.053592
C43   C     C_3   0.008991 0.668953 0.067561 0.050176
C44   C     C_3   0.993408 0.667413 0.931964 0.053590
C45   C     C_R   0.534995 0.180324 0.337577 0.533162
C46   C     C_R   0.439639 0.183928 0.652050 0.534669
C47   C     C_R   0.034995 0.680324 0.337577 0.533161
C48   C     C_R   0.939640 0.683928 0.652050 0.534676
C49   C     C_3   0.474856 0.064734 0.024057 0.008903
C50   C     C_3   0.532712 0.069036 0.977196 0.008970
C51   C     C_3   0.974855 0.564735 0.024057 0.008902
C52   C     C_3   0.032711 0.569036 0.977196 0.008970
C53   C     C_1   0.762335 0.424574 0.903961 -0.022232
C54   C     C_1   0.242887 0.409719 0.100452 -0.032907
C55   C     C_1   0.262335 0.924574 0.903962 -0.022226
C56   C     C_1   0.742887 0.909719 0.100451 -0.032906
C57   C     C_1   0.747256 0.408218 0.034555 -0.063239
C58   C     C_1   0.265928 0.359297 0.974439 -0.062653
C59   C     C_1   0.247256 0.908218 0.034555 -0.063240
C60   C     C_1   0.765928 0.859297 0.974439 -0.062653
C61   C     C_1   0.753653 0.414863 0.963678 -0.064781
C62   C     C_1   0.255491 0.383665 0.043376 -0.061583
C63   C     C_1   0.253653 0.914864 0.963678 -0.064779
C64   C     C_1   0.755491 0.883665 0.043376 -0.061582
C65   C     C_1   0.742777 0.395400 0.095090 -0.022079
C66   C     C_1   0.272202 0.339104 0.914789 -0.026765
C67   C     C_1   0.242778 0.895401 0.095090 -0.022081
C68   C     C_1   0.772202 0.839104 0.914789 -0.026766
C69   C     C_R   0.738906 0.359437 0.362890 0.540587
C70   C     C_R   0.259998 0.366107 0.639203 0.530367
C71   C     C_R   0.238904 0.859431 0.362892 0.540590
C72   C     C_R   0.759999 0.866105 0.639202 0.530340
C73   C     C_R   0.722659 0.951235 0.164476 0.544829
C74   C     C_R   0.277796 0.952099 0.836057 0.541265
C75   C     C_R   0.222660 0.451235 0.164476 0.544831
C76   C     C_R   0.777796 0.452099 0.836057 0.541278
C77   C     C_R   0.529644 0.178592 0.141222 0.541931
C78   C     C_R   0.471005 0.177964 0.858461 0.539435
C79   C     C_R   0.029644 0.678592 0.141223 0.541932
C80   C     C_R   0.971005 0.677964 0.858461 0.539451
C81   C     C_R   0.736125 0.360992 0.164565 0.539216
C82   C     C_R   0.277671 0.310735 0.843915 0.560546
C83   C     C_R   0.236125 0.860991 0.164565 0.539218
C84   C     C_R   0.777671 0.810735 0.843915 0.560543
C85   C     C_1   0.463730 0.178604 0.586334 -0.018358
C86   C     C_1   0.510427 0.175123 0.403060 -0.039016
C87   C     C_1   0.963732 0.678601 0.586334 -0.018358
C88   C     C_1   0.010428 0.675123 0.403061 -0.039025
C89   C     C_1   0.495604 0.176097 0.460906 -0.096856
C90   C     C_1   0.479925 0.176968 0.529037 -0.079430
C91   C     C_1   0.995606 0.676093 0.460907 -0.096852
C92   C     C_1   0.979927 0.676964 0.529038 -0.079422
C93   C     C_3   0.706702 0.497108 0.513797 -0.123623
C94   C     C_3   0.273530 0.377289 0.467837 -0.110055
C95   C     C_3   0.206699 0.997113 0.513796 -0.123650
C96   C     C_3   0.773530 0.877293 0.467838 -0.110056
Cr1   Cr    Cr6+3 0.765830 0.160660 0.268180 0.994470
Cr2   Cr    Cr6+3 0.234170 0.160660 0.731820 0.984434
Cr3   Cr    Cr6+3 0.265830 0.660660 0.268180 0.994478
Cr4   Cr    Cr6+3 0.734170 0.660660 0.731820 0.984447
Cr5   Cr    Cr6+3 0.612110 0.009150 0.248770 0.971457
Cr6   Cr    Cr6+3 0.387890 0.009150 0.751230 0.979208
Cr7   Cr    Cr6+3 0.112110 0.509150 0.248770 0.971455
Cr8   Cr    Cr6+3 0.887890 0.509150 0.751230 0.979222
Cr9   Cr    Cr6+3 0.615930 0.324050 0.248450 1.004259
Cr10  Cr    Cr6+3 0.384070 0.324050 0.751550 1.005592
Cr11  Cr    Cr6+3 0.115930 0.824050 0.248450 1.004257
Cr12  Cr    Cr6+3 0.884070 0.824050 0.751550 1.005598
H1    H     H_    0.670413 0.298787 0.482695 0.105606
H2    H     H_    0.206684 0.234178 0.523267 0.127756
H3    H     H_    0.170397 0.798800 0.482687 0.105602
H4    H     H_    0.706683 0.734180 0.523266 0.127754
H5    H     H_    0.659934 0.537673 0.531038 0.101364
H6    H     H_    0.305403 0.321214 0.437116 0.113856
H7    H     H_    0.159933 0.037688 0.531035 0.101351
H8    H     H_    0.805404 0.821220 0.437117 0.113851
H9    H     H_    0.354529 0.104644 0.502295 0.101895
H10   H     H_    0.761666 0.154174 0.475217 0.111276
H11   H     H_    0.854521 0.604679 0.502288 0.101898
H12   H     H_    0.261661 0.654172 0.475214 0.111275
H13   H     H_    0.801402 0.274413 0.570332 0.119788
H14   H     H_    0.111845 0.408099 0.464385 0.117978
H15   H     H_    0.301371 0.774399 0.570343 0.119815
H16   H     H_    0.611845 0.908102 0.464384 0.117974
H17   H     H_    0.624033 0.177063 0.042288 0.119095
H18   H     H_    0.378520 0.156877 0.957793 0.104790
H19   H     H_    0.124033 0.677062 0.042288 0.119095
H20   H     H_    0.878520 0.656878 0.957793 0.104789
H21   H     H_    0.551307 0.353814 0.955839 0.128030
H22   H     H_    0.442251 0.345604 0.041212 0.127800
H23   H     H_    0.051308 0.853813 0.955839 0.128031
H24   H     H_    0.942251 0.845605 0.041212 0.127800
O1    O     O_R   0.783230 0.287800 0.346510 -0.544254
O2    O     O_R   0.216770 0.287800 0.653490 -0.531635
O3    O     O_R   0.283230 0.787800 0.346510 -0.544265
O4    O     O_R   0.716770 0.787800 0.653490 -0.531637
O5    O     O_R   0.554500 0.081650 0.170370 -0.513027
O6    O     O_R   0.445500 0.081650 0.829630 -0.513457
O7    O     O_R   0.054500 0.581650 0.170370 -0.513028
O8    O     O_R   0.945500 0.581650 0.829630 -0.513454
O9    O     O_R   0.545430 0.285140 0.163100 -0.514542
O10   O     O_R   0.454570 0.285140 0.836900 -0.517269
O11   O     O_R   0.045430 0.785140 0.163100 -0.514542
O12   O     O_R   0.954570 0.785140 0.836900 -0.517269
O13   O     O_R   0.677850 0.374730 0.185500 -0.492275
O14   O     O_R   0.322150 0.374730 0.814500 -0.487982
O15   O     O_R   0.177850 0.874730 0.185500 -0.492274
O16   O     O_R   0.822150 0.874730 0.814500 -0.487985
O17   O     O_3   0.664630 0.164620 0.255130 -0.264667
O18   O     O_3   0.335370 0.164620 0.744870 -0.297657
O19   O     O_3   0.164630 0.664620 0.255130 -0.264668
O20   O     O_3   0.835370 0.664620 0.744870 -0.297666
O21   O     O_R   0.760130 0.037060 0.338610 -0.506904
O22   O     O_R   0.239870 0.037060 0.661390 -0.507213
O23   O     O_R   0.260130 0.537060 0.338610 -0.506904
O24   O     O_R   0.739870 0.537060 0.661390 -0.507181
O25   O     O_R   0.666620 0.921370 0.332440 -0.509665
O26   O     O_R   0.333380 0.921370 0.667560 -0.526723
O27   O     O_R   0.166620 0.421370 0.332440 -0.509662
O28   O     O_R   0.833380 0.421370 0.667560 -0.526737
O29   O     O_R   0.557170 0.082420 0.312350 -0.523518
O30   O     O_R   0.442830 0.082420 0.687650 -0.516238
O31   O     O_R   0.057170 0.582420 0.312350 -0.523517
O32   O     O_R   0.942830 0.582420 0.687650 -0.516212
O33   O     O_R   0.548310 0.285980 0.316250 -0.512368
O34   O     O_R   0.451690 0.285980 0.683750 -0.497393
O35   O     O_R   0.048310 0.785980 0.316250 -0.512368
O36   O     O_R   0.951690 0.785980 0.683750 -0.497393
O37   O     O_R   0.680520 0.375500 0.327470 -0.494102
O38   O     O_R   0.319480 0.375500 0.672530 -0.511817
O39   O     O_R   0.180520 0.875500 0.327470 -0.494102
O40   O     O_R   0.819480 0.875500 0.672530 -0.511819
O41   O     O_R   0.780350 0.286970 0.193350 -0.519652
O42   O     O_R   0.219650 0.286970 0.806650 -0.521786
O43   O     O_R   0.280350 0.786970 0.193350 -0.519650
O44   O     O_R   0.719650 0.786970 0.806650 -0.521786
O45   O     O_R   0.757460 0.036290 0.196640 -0.485026
O46   O     O_R   0.242540 0.036290 0.803360 -0.506920
O47   O     O_R   0.257460 0.536290 0.196640 -0.485025
O48   O     O_R   0.742540 0.536290 0.803360 -0.506917
O49   O     O_R   0.663740 0.920540 0.179290 -0.538148
O50   O     O_R   0.336260 0.920540 0.820710 -0.511210
O51   O     O_R   0.163740 0.420540 0.179290 -0.538148
O52   O     O_R   0.836260 0.420540 0.820710 -0.511212
C97   C     C_R   0.718700 0.621896 0.392830 0.024307
C98   C     C_R   0.647039 0.634251 0.375488 -0.059330
C99   C     C_R   0.619207 0.662645 0.307452 -0.061737
C100  C     C_R   0.662612 0.681509 0.256717 -0.030999
C101  C     C_R   0.734056 0.677995 0.274538 -0.069183
C102  C     C_R   0.762117 0.647934 0.342301 -0.097727
H25   H     H_    0.612421 0.611070 0.412759 0.081934
H26   H     H_    0.563942 0.665418 0.293389 0.070055
H27   H     H_    0.640728 0.698041 0.203525 0.109499
H28   H     H_    0.767607 0.693114 0.235147 0.092885
H29   H     H_    0.817262 0.635064 0.353961 0.087900
C103  C     C_R   0.374907 0.501608 0.546435 0.033533
C104  C     C_R   0.426275 0.467483 0.506030 -0.090710
C105  C     C_R   0.494549 0.504049 0.524638 -0.116482
C106  C     C_R   0.511992 0.575772 0.583333 -0.112550
C107  C     C_R   0.461123 0.611318 0.623356 -0.102448
C108  C     C_R   0.392826 0.574922 0.604861 -0.066843
H30   H     H_    0.413765 0.413843 0.459708 0.111933
H31   H     H_    0.533824 0.477124 0.493313 0.108053
H32   H     H_    0.564787 0.604341 0.597653 0.113552
H33   H     H_    0.474545 0.667558 0.668571 0.105574
H34   H     H_    0.353982 0.603871 0.636164 0.107086
C109  C     C_R   0.218713 0.121892 0.392830 0.024302
C110  C     C_R   0.147054 0.134259 0.375482 -0.059319
C111  C     C_R   0.119228 0.162653 0.307445 -0.061708
C112  C     C_R   0.162637 0.181505 0.256713 -0.031002
C113  C     C_R   0.234081 0.177981 0.274539 -0.069210
C114  C     C_R   0.262135 0.147919 0.342304 -0.097737
H35   H     H_    0.112432 0.111086 0.412751 0.081932
H36   H     H_    0.063963 0.165434 0.293379 0.070054
H37   H     H_    0.140758 0.198035 0.203520 0.109505
H38   H     H_    0.267635 0.193092 0.235151 0.092886
H39   H     H_    0.317280 0.135040 0.353967 0.087909
C115  C     C_R   0.874904 0.001616 0.546442 0.033537
C116  C     C_R   0.926277 0.967484 0.506046 -0.090710
C117  C     C_R   0.994549 0.004053 0.524661 -0.116472
C118  C     C_R   0.011985 0.075785 0.583353 -0.112533
C119  C     C_R   0.961110 0.111338 0.623367 -0.102445
C120  C     C_R   0.892814 0.074939 0.604867 -0.066848
H40   H     H_    0.913772 0.913837 0.459726 0.111930
H41   H     H_    0.033829 0.977122 0.493343 0.108045
H42   H     H_    0.064780 0.104355 0.597678 0.113553
H43   H     H_    0.974526 0.167585 0.668581 0.105577
H44   H     H_    0.853965 0.103892 0.636162 0.107099
C121  C     C_3   0.886537 0.325740 0.465000 -0.233898
C122  C     C_3   0.924970 0.383923 0.409531 -0.282169
C123  C     C_3   0.976396 0.295066 0.384810 -0.446570
H45   H     H_    0.012562 0.260683 0.429443 0.142320
H46   H     H_    0.948906 0.216653 0.358067 0.153324
H47   H     H_    0.006450 0.342457 0.347880 0.158446
H48   H     H_    0.889114 0.416815 0.364366 0.184618
H49   H     H_    0.953628 0.462542 0.432820 0.165123
H50   H     H_    0.921841 0.320271 0.514492 0.143922
H51   H     H_    0.871267 0.230921 0.450340 0.173193
C124  C     C_3   0.147835 0.587793 0.582139 -0.260229
C125  C     C_3   0.185905 0.642011 0.648764 -0.300038
C126  C     C_3   0.141613 0.736205 0.679884 -0.408813
H52   H     H_    0.093960 0.692782 0.693866 0.175248
H53   H     H_    0.170832 0.774624 0.727528 0.158292
H54   H     H_    0.127672 0.812021 0.642389 0.170770
H55   H     H_    0.199412 0.568292 0.687643 0.174602
H56   H     H_    0.234160 0.686429 0.638200 0.168290
H57   H     H_    0.123349 0.661236 0.548288 0.152772
H58   H     H_    0.106423 0.526469 0.596108 0.157527
C127  C     C_3   0.386528 0.825704 0.465014 -0.233906
C128  C     C_3   0.424977 0.883901 0.409561 -0.282159
C129  C     C_3   0.476442 0.795067 0.384875 -0.446562
H59   H     H_    0.512601 0.760720 0.429527 0.142318
H60   H     H_    0.448980 0.716625 0.358127 0.153289
H61   H     H_    0.506505 0.842467 0.347956 0.158471
H62   H     H_    0.389128 0.916760 0.364377 0.184622
H63   H     H_    0.453607 0.962550 0.432860 0.165124
H64   H     H_    0.421823 0.820213 0.514511 0.143942
H65   H     H_    0.371255 0.730893 0.450338 0.173199
C130  C     C_3   0.647826 0.087782 0.582139 -0.260234
C131  C     C_3   0.685888 0.142027 0.648759 -0.299948
C132  C     C_3   0.641504 0.236015 0.679956 -0.408679
H66   H     H_    0.593919 0.192358 0.693997 0.175203
H67   H     H_    0.670731 0.274499 0.727579 0.158244
H68   H     H_    0.627416 0.311841 0.642482 0.170747
H69   H     H_    0.699508 0.068276 0.687610 0.174571
H70   H     H_    0.734091 0.186655 0.638162 0.168304
H71   H     H_    0.623332 0.161219 0.548287 0.152762
H72   H     H_    0.606423 0.026440 0.596112 0.157544
C133  C     C_3   0.436374 0.956393 0.051602 -0.250156
C134  C     C_3   0.483885 0.852386 0.081688 -0.302589
C135  C     C_3   0.446996 0.767132 0.127304 -0.436332
H73   H     H_    0.432431 0.817142 0.172745 0.162049
H74   H     H_    0.399924 0.728796 0.097164 0.174176
H75   H     H_    0.481804 0.690790 0.146471 0.129782
H76   H     H_    0.500396 0.798163 0.038882 0.155603
H77   H     H_    0.530770 0.888088 0.112787 0.209865
H78   H     H_    0.405897 0.991467 0.091724 0.145331
H79   H     H_    0.399691 0.919624 0.008490 0.149411
C136  C     C_3   0.576009 0.963039 0.955342 -0.259885
C137  C     C_3   0.534427 0.875185 0.905101 -0.285689
C138  C     C_3   0.569470 0.750784 0.904907 -0.450972
H80   H     H_    0.622321 0.760925 0.890785 0.190283
H81   H     H_    0.572345 0.706609 0.956809 0.145004
H82   H     H_    0.539472 0.690864 0.866360 0.145973
H83   H     H_    0.481615 0.862459 0.919138 0.182131
H84   H     H_    0.530264 0.913543 0.851740 0.187767
H85   H     H_    0.619582 0.000516 0.930315 0.145029
H86   H     H_    0.598280 0.913759 0.003145 0.154429
C139  C     C_3   0.936374 0.456394 0.051602 -0.250156
C140  C     C_3   0.983885 0.352387 0.081689 -0.302588
C141  C     C_3   0.946997 0.267137 0.127308 -0.436332
H87   H     H_    0.932434 0.317151 0.172749 0.162045
H88   H     H_    0.899923 0.228801 0.097170 0.174177
H89   H     H_    0.981805 0.190795 0.146476 0.129782
H90   H     H_    0.000393 0.298161 0.038883 0.155602
H91   H     H_    0.030771 0.388089 0.112785 0.209866
H92   H     H_    0.905897 0.491468 0.091724 0.145332
H93   H     H_    0.899690 0.419624 0.008491 0.149410
C142  C     C_3   0.076008 0.463038 0.955343 -0.259883
C143  C     C_3   0.034426 0.375184 0.905102 -0.285689
C144  C     C_3   0.069469 0.250782 0.904908 -0.450972
H94   H     H_    0.122319 0.260923 0.890785 0.190284
H95   H     H_    0.072345 0.206608 0.956810 0.145004
H96   H     H_    0.039471 0.190862 0.866361 0.145973
H97   H     H_    0.981615 0.362458 0.919140 0.182129
H98   H     H_    0.030262 0.413541 0.851741 0.187773
H99   H     H_    0.119582 0.500514 0.930315 0.145032
H100  H     H_    0.098279 0.413758 0.003145 0.154427

loop_
_geom_bond_atom_site_label_1
_geom_bond_atom_site_label_2
_ccdc_geom_bond_type
C79   O7    A    
C141  H87   S    
C20   H10   S    
C97   C102  A    
Cr11  O39   S    
C144  H94   S    
C138  H82   S    
Cr9   O37   S    
Cr7   O51   S    
Cr10  O34   S    
C52   C142  S    
C143  H98   S    
C135  H73   S    
C40   H20   S    
C9    C13   S    
C137  H83   S    
C55   C74   S    
C11   C15   S    
C101  H28   S    
C12   C16   S    
C6    C94   S    
C108  H34   S    
C122  H49   S    
C75   O47   A    
C106  C107  A    
C41   C49   S    
Cr10  O10   S    
C25   C29   S    
Cr11  O35   S    
Cr1   O41   S    
C27   C31   S    
C51   C52   S    
Cr6   O50   S    
C28   C32   S    
C57   C65   T    
Cr5   O5    S    
C17   C21   S    
Cr8   O8    S    
C124  H58   S    
C35   C36   S    
C19   C23   S    
C121  C122  S    
C66   C82   S    
C73   O49   A    
C74   O46   A    
C16   C20   S    
C48   C87   S    
C5    C25   S    
C106  H32   S    
C8    C28   S    
C121  H50   S    
C72   O40   A    
Cr12  O12   S    
C143  C144  S    
C22   C124  S    
Cr2   O18   S    
C144  H96   S    
C56   C73   S    
C77   O5    A    
C103  C104  A    
Cr8   O32   S    
C85   C90   T    
C57   C61   S    
C48   O32   A    
C59   C63   S    
C60   C64   S    
C139  H92   S    
Cr8   O20   S    
C8    H4    S    
C30   C94   S    
C37   C50   S    
C9    C21   S    
C119  H43   S    
C11   C23   S    
C123  H47   S    
Cr9   O9    S    
C77   O9    A    
C70   O2    A    
C100  C101  A    
C98   C99   A    
C25   H13   S    
C136  H85   S    
Cr12  O16   S    
C143  H97   S    
C29   C93   S    
Cr2   O22   S    
C67   C83   S    
C110  H35   S    
Cr10  O18   S    
Cr1   O1    S    
C127  H65   S    
C142  H99   S    
Cr6   O26   S    
C115  C120  A    
Cr4   O20   S    
C127  C128  S    
C140  H91   S    
C33   C42   S    
C141  H88   S    
C51   C139  S    
C36   H24   S    
C132  H66   S    
C112  H37   S    
C126  H52   S    
C45   O29   A    
C130  H72   S    
C59   C67   T    
C116  H40   S    
C53   C61   T    
C79   O11   A    
C7    H3    S    
C80   O12   A    
C55   C63   T    
C56   C64   T    
C16   C115  S    
Cr2   O46   S    
Cr11  O19   S    
C44   C52   S    
C113  H38   S    
Cr12  O36   S    
C2    O22   A    
C3    O27   A    
Cr10  O38   S    
C101  C102  A    
C117  C118  A    
C38   H18   S    
C139  C140  S    
C128  H63   S    
C16   C96   S    
C82   O42   A    
C130  H71   S    
C137  C138  S    
C10   C14   S    
C91   C92   S    
C129  H61   S    
C81   O41   A    
C5    C9    S    
C118  C119  A    
C88   C91   T    
C8    C12   S    
C111  C112  A    
C133  H78   S    
C104  H30   S    
C69   O37   A    
C60   C68   T    
C99   H26   S    
C102  H29   S    
C42   C50   S    
C100  H27   S    
C26   C30   S    
Cr12  O40   S    
C71   O39   A    
Cr4   O48   S    
Cr5   O49   S    
C20   C32   S    
C21   C25   S    
C18   C22   S    
C134  H76   S    
C96   H8    S    
C24   C28   S    
C131  C132  S    
C125  H55   S    
C132  H68   S    
C28   H16   S    
C74   O50   A    
C138  H81   S    
C40   C51   S    
C12   C24   S    
C13   C17   S    
C126  H54   S    
C45   C86   S    
C89   C90   S    
C6    C26   S    
C125  C126  S    
C37   C41   S    
C104  C105  A    
C137  H84   S    
C54   C75   S    
C40   C44   S    
Cr3   O43   S    
C49   C50   S    
Cr1   O17   S    
C103  C108  A    
C133  C134  S    
C15   C109  S    
Cr4   O4    S    
C58   C62   S    
C135  H75   S    
C107  H33   S    
C17   C29   S    
C124  C125  S    
C19   C31   S    
C129  H59   S    
C38   C49   S    
C10   C22   S    
C15   C19   S    
C9    C69   S    
C78   O10   A    
C15   C95   S    
C11   C71   S    
C114  H39   S    
C7    C27   S    
C124  H57   S    
C140  C141  S    
C98   H25   S    
Cr12  O20   S    
C110  C111  A    
Cr3   O23   S    
Cr4   O44   S    
C136  C137  S    
Cr1   O21   S    
C4    C29   S    
Cr7   O19   S    
C46   C85   S    
C47   O31   A    
Cr4   O24   S    
C84   O16   A    
C12   C72   S    
Cr5   O25   S    
C87   C92   T    
C125  H56   S    
C34   C41   S    
Cr8   O28   S    
C82   O14   A    
C144  H95   S    
C109  C110  A    
C68   C84   S    
C44   C80   S    
C13   C97   S    
C116  C117  A    
C54   C62   T    
C128  C129  S    
C80   O8    A    
C118  H42   S    
C33   C37   S    
C13   C93   S    
C35   C39   S    
C142  C143  S    
Cr3   O47   S    
Cr11  O15   S    
C65   C81   S    
C113  C114  A    
Cr6   O30   S    
Cr9   O13   S    
C3    O23   A    
Cr3   O3    S    
C122  H48   S    
C123  H46   S    
C93   H5    S    
C1    O21   A    
Cr6   O18   S    
C10   C70   S    
Cr8   O52   S    
C53   C76   S    
C35   H23   S    
Cr9   O17   S    
C33   H21   S    
C46   O34   A    
C127  H64   S    
C76   O48   A    
C86   C89   T    
C6    C10   S    
C111  H36   S    
C70   O38   A    
C99   C100  A    
C23   C127  S    
C47   C88   S    
C41   C77   S    
C43   C51   S    
C97   C98   A    
C5    H1    S    
C31   C95   S    
Cr5   O29   S    
Cr9   O33   S    
C122  C123  S    
C129  H60   S    
C17   H11   S    
C131  H69   S    
C19   H9    S    
C22   C26   S    
C105  H31   S    
C134  C135  S    
C36   C43   S    
C26   H14   S    
C121  H51   S    
C84   O44   A    
C45   O33   A    
C14   C94   S    
C83   O43   A    
C14   C18   S    
C8    C96   S    
C75   O51   A    
C94   H6    S    
C7    C11   S    
C24   C130  S    
C139  H93   S    
C38   C42   S    
C71   O3    A    
Cr2   O42   S    
C142  H100  S    
C72   O4    A    
C43   C79   S    
Cr6   O6    S    
Cr1   O45   S    
C58   C66   T    
C20   C24   S    
C95   H7    S    
C107  C108  A    
C133  H79   S    
C105  C106  A    
C18   C30   S    
C23   C27   S    
C2    O26   A    
C73   O45   A    
C39   C52   S    
C21   C121  S    
C6    H2    S    
C78   O6    A    
C37   H17   S    
C39   H19   S    
C140  H90   S    
C134  H77   S    
C36   C40   S    
C141  H89   S    
C132  H67   S    
C27   H15   S    
C120  H44   S    
C39   C43   S    
C138  H80   S    
Cr3   O19   S    
C50   C136  S    
C1    C32   S    
C2    C31   S    
C126  H53   S    
C3    C30   S    
Cr7   O7    S    
C47   O35   A    
C48   O36   A    
C33   C34   S    
C35   C44   S    
C83   O15   A    
C32   C96   S    
C42   C78   S    
C81   O13   A    
C109  C114  A    
C131  H70   S    
C130  C131  S    
C18   H12   S    
C128  H62   S    
C135  H74   S    
C14   C103  S    
C69   O1    A    
C4    O24   A    
C34   C38   S    
C5    C93   S    
C7    C95   S    
Cr2   O2    S    
Cr7   O31   S    
Cr10  O14   S    
C136  H86   S    
C1    O25   A    
Cr7   O27   S    
C115  C116  A    
C4    O28   A    
Cr5   O17   S    
C117  H41   S    
C119  C120  A    
C34   H22   S    
C112  C113  A    
C46   O30   A    
C123  H45   S    
C76   O52   A    
Cr11  O11   S    
C49   C133  S    
