data_mof_unit_41488.cif
_audit_creation_date              2012-12-10T17:52:32-0500
_audit_creation_method            fapswitch 2.2
_symmetry_space_group_name_H-M    P1
_symmetry_Int_Tables_number       1
_space_group_crystal_system       triclinic
_cell_length_a                    15.067938
_cell_length_b                    14.891501
_cell_length_c                    23.462927
_cell_angle_alpha                 70.225444
_cell_angle_beta                  101.823078
_cell_angle_gamma                 116.394487
_cell_volume                      4428.51541838

loop_
_atom_site_label
_atom_site_type_symbol
_atom_type_description
_atom_site_fract_x
_atom_site_fract_y
_atom_site_fract_z
_atom_type_partial_charge
C1    C     C_R   0.881066 0.312272 0.506448 0.809130
C2    C     C_R   0.118563 0.687260 0.494505 0.799977
C3    C     C_R   0.073593 0.478896 0.774962 -0.095053
C4    C     C_R   0.065589 0.471433 0.253597 -0.103998
C5    C     C_R   0.073042 0.478375 0.715623 -0.215803
C6    C     C_R   0.066637 0.472252 0.312885 -0.172537
C7    C     C_R   0.001827 0.501224 0.671324 -0.034289
C8    C     C_R   0.997643 0.498029 0.328768 -0.041071
C9    C     C_R   0.931632 0.525133 0.687418 -0.181596
C10   C     C_R   0.927214 0.522222 0.284318 -0.215967
C11   C     C_R   0.932438 0.525689 0.746729 -0.104313
C12   C     C_R   0.926356 0.521339 0.225020 -0.093593
C13   C     C_R   0.003220 0.502363 0.790674 0.353774
C14   C     C_R   0.995669 0.496218 0.209475 0.349703
C15   C     C_R   0.812513 0.202600 0.506626 -0.133225
C16   C     C_R   0.185826 0.795920 0.496921 -0.135311
C17   C     C_R   0.771816 0.016987 0.540106 -0.167703
C18   C     C_R   0.225859 0.981195 0.464769 -0.167296
C19   C     C_R   0.843393 0.120075 0.523776 -0.007342
C20   C     C_R   0.154338 0.877995 0.479811 -0.000550
C21   C     C_R   0.711442 0.179797 0.490080 -0.149245
C22   C     C_R   0.286116 0.818469 0.516025 -0.224331
C23   C     C_R   0.000527 0.500125 0.608709 0.806014
C24   C     C_R   0.999297 0.499604 0.391328 0.807095
C25   C     C_R   0.637915 0.076667 0.504547 0.099022
C26   C     C_R   0.359696 0.921685 0.502124 0.074638
C27   C     C_R   0.670310 0.995263 0.532790 0.166335
C28   C     C_R   0.327385 0.003060 0.473304 0.163614
C29   C     C_R   0.533779 0.052213 0.493497 0.080919
C30   C     C_R   0.463826 0.946188 0.513521 0.070370
C31   C     C_R   0.500464 0.868313 0.543413 -0.138699
C32   C     C_R   0.497163 0.130061 0.463418 -0.140464
C33   C     C_R   0.601443 0.892370 0.551629 -0.151526
C34   C     C_R   0.396228 0.105964 0.454754 -0.167886
C35   C     C_R   0.742440 0.698497 0.412641 -0.216110
C36   C     C_R   0.260146 0.303379 0.588196 -0.216732
C37   C     C_R   0.809687 0.654454 0.420575 -0.001836
C38   C     C_R   0.191710 0.346236 0.579987 -0.011828
C39   C     C_R   0.707453 0.500276 0.491992 0.451848
C40   C     C_R   0.292540 0.500499 0.507678 0.530472
C41   C     C_R   0.628677 0.536205 0.476451 -0.147371
C42   C     C_R   0.372158 0.465725 0.523306 -0.140782
C43   C     C_R   0.654368 0.642878 0.443424 -0.029239
C44   C     C_R   0.347388 0.359332 0.556644 -0.055378
C45   C     C_R   0.022392 0.590069 0.103682 0.542677
C46   C     C_R   0.976526 0.408487 0.896446 0.542876
C47   C     C_R   0.528968 0.475607 0.497409 0.018749
C48   C     C_R   0.471884 0.526830 0.502050 0.039329
C49   C     C_R   0.517668 0.636726 0.485992 -0.184318
C50   C     C_R   0.482927 0.365935 0.512856 -0.151951
C51   C     C_R   0.595537 0.692867 0.446881 0.414142
C52   C     C_R   0.406113 0.309728 0.552550 0.449229
C53   C     C_R   0.970380 0.404644 0.135942 0.536350
C54   C     C_R   0.028255 0.593872 0.864163 0.535280
C55   C     C_R   0.971445 0.403666 0.076562 -0.015406
C56   C     C_R   0.027233 0.594854 0.923546 -0.015061
C57   C     C_R   0.998553 0.498772 0.030100 -0.016807
C58   C     C_R   0.000178 0.499752 0.970013 -0.016766
C59   C     C_R   0.024092 0.592911 0.043585 -0.018215
C60   C     C_R   0.974709 0.405621 0.956534 -0.018691
C61   C     C_R   0.946102 0.310238 0.062616 -0.152412
C62   C     C_R   0.052581 0.688281 0.937491 -0.152764
C63   C     C_R   0.947736 0.311209 0.003194 -0.152106
C64   C     C_R   0.051043 0.687322 0.996922 -0.152426
Cu1   Cu    Cu3+1 0.081740 0.475680 0.515360 1.009613
Cu2   Cu    Cu3+1 0.918260 0.524320 0.484640 1.006458
H1    H     H_    0.924987 0.236128 0.097529 0.194181
H2    H     H_    0.073663 0.762387 0.902574 0.193970
H3    H     H_    0.794945 0.952999 0.556569 0.126003
H4    H     H_    0.202602 0.045056 0.448039 0.126209
H5    H     H_    0.453252 0.787150 0.561125 0.150094
H6    H     H_    0.544274 0.211191 0.445620 0.144584
H7    H     H_    0.122970 0.300311 0.602534 0.156437
H8    H     H_    0.878865 0.700040 0.398482 0.153632
H9    H     H_    0.764603 0.778643 0.385589 0.214015
H10   H     H_    0.240017 0.223796 0.616161 0.213817
H11   H     H_    0.489898 0.679167 0.500910 0.219979
H12   H     H_    0.509088 0.323652 0.496580 0.195896
H13   H     H_    0.927788 0.237810 0.993973 0.194050
H14   H     H_    0.071032 0.760728 0.006145 0.193845
H15   H     H_    0.128641 0.461052 0.808812 0.147676
H16   H     H_    0.119527 0.452218 0.241757 0.148690
H17   H     H_    0.128128 0.459828 0.704587 0.166682
H18   H     H_    0.121705 0.453093 0.346090 0.181927
H19   H     H_    0.875813 0.543022 0.654364 0.161965
H20   H     H_    0.873020 0.542174 0.295192 0.167671
H21   H     H_    0.877674 0.543591 0.758724 0.143550
H22   H     H_    0.871940 0.540278 0.191057 0.148716
H23   H     H_    0.625884 0.829608 0.573425 0.125073
H24   H     H_    0.371807 0.168668 0.432596 0.131437
H25   H     H_    0.304722 0.753066 0.539980 0.191451
H26   H     H_    0.692498 0.244855 0.466160 0.174128
N1    N     N_R   0.995811 0.496925 0.148304 -0.470058
N2    N     N_R   0.002988 0.501617 0.851826 -0.470636
N3    N     N_R   0.795430 0.560810 0.461550 -0.229440
N4    N     N_R   0.204570 0.439190 0.538450 -0.237016
O1    O     O_R   0.977900 0.338110 0.520250 -0.590380
O2    O     O_R   0.022100 0.661890 0.479750 -0.590457
O3    O     O_R   0.839850 0.379180 0.494310 -0.518221
O4    O     O_R   0.160150 0.620820 0.505690 -0.518560
O5    O     O_R   0.069020 0.479430 0.595090 -0.599158
O6    O     O_R   0.930980 0.520570 0.404910 -0.600592
O7    O     O_R   0.930970 0.520500 0.569150 -0.536409
O8    O     O_R   0.069030 0.479500 0.430850 -0.526150
O9    O     O_2   0.047973 0.679663 0.117606 -0.523919
O10   O     O_2   0.951212 0.318946 0.882529 -0.521430
O11   O     O_2   0.943602 0.314174 0.180944 -0.531322
O12   O     O_2   0.054818 0.684305 0.819129 -0.533075
S1    S     S_3+6 0.616197 0.824228 0.403972 0.007799
O13   O     O_2   0.698847 0.899217 0.434264 -0.335276
O14   O     O_2   0.642949 0.846152 0.340861 -0.293799
O15   O     O_3   0.515544 0.848149 0.398064 -0.473133
H27   H     H_    0.478968 0.834232 0.359628 0.391586
S2    S     S_3+6 0.387998 0.179583 0.596236 0.013150
O16   O     O_2   0.371998 0.163278 0.660781 -0.260049
O17   O     O_2   0.299405 0.102796 0.570261 -0.389408
O18   O     O_3   0.486590 0.155117 0.596639 -0.424204
H28   H     H_    0.463448 0.078246 0.612799 0.372491
S3    S     S_3+6 0.306017 0.612686 0.440705 -0.004780
O19   O     O_2   0.369816 0.616454 0.397652 -0.298622
O20   O     O_2   0.216327 0.620486 0.402742 -0.283794
O21   O     O_3   0.360313 0.722084 0.462501 -0.580534
H29   H     H_    0.342044 0.774749 0.429590 0.392543
S4    S     S_3+6 0.693573 0.387574 0.558301 0.032042
O22   O     O_2   0.642351 0.290809 0.537977 -0.290706
O23   O     O_2   0.782767 0.377048 0.595665 -0.251962
O24   O     O_3   0.624291 0.383908 0.607592 -0.479187
H30   H     H_    0.662906 0.449357 0.619566 0.323724
C65   C     C_R   0.052290 0.859202 0.488489 0.131186
C66   C     C_R   0.003404 0.917783 0.446417 -0.195418
C67   C     C_R   0.911879 0.907146 0.458518 -0.087474
C68   C     C_R   0.867102 0.836030 0.511910 -0.112293
C69   C     C_R   0.915098 0.777699 0.554029 -0.160973
C70   C     C_R   0.007956 0.790318 0.542965 -0.059395
H31   H     H_    0.036569 0.972671 0.404685 0.138646
H32   H     H_    0.876332 0.954381 0.426144 0.200258
H33   H     H_    0.795222 0.825365 0.521064 0.157480
H34   H     H_    0.880920 0.723777 0.595631 0.125581
H35   H     H_    0.045736 0.747048 0.577212 0.110927
C71   C     C_R   0.944838 0.138043 0.514532 0.132833
C72   C     C_R   0.988009 0.204993 0.459414 -0.066109
C73   C     C_R   0.080989 0.217875 0.448407 -0.154895
C74   C     C_R   0.130172 0.161596 0.491258 -0.107675
C75   C     C_R   0.086250 0.091921 0.545189 -0.089974
C76   C     C_R   0.994626 0.081102 0.557190 -0.192866
H36   H     H_    0.949442 0.246910 0.424782 0.110700
H37   H     H_    0.114446 0.270580 0.406378 0.133146
H38   H     H_    0.202307 0.172758 0.482249 0.160309
H39   H     H_    0.122523 0.046002 0.578109 0.200344
H40   H     H_    0.962220 0.027588 0.599400 0.139314

loop_
_geom_bond_atom_site_label_1
_geom_bond_atom_site_label_2
_ccdc_geom_bond_type
C18   H4    S    
C37   H8    S    
C17   H3    S    
O18   H28   S    
C64   H14   S    
Cu2   O6    S    
C53   C55   A    
C66   H31   S    
Cu1   O5    S    
C20   C65   S    
C45   N1    A    
C1    O3    A    
S2    O16   D    
C39   C41   A    
C63   H13   S    
C27   C33   A    
C15   C19   A    
C35   H9    S    
C59   C64   A    
C75   H39   S    
C60   C63   A    
C35   C37   A    
C29   C32   A    
S1    O14   D    
C30   C31   A    
C5    H17   S    
C57   C59   A    
C58   C60   A    
C74   C75   A    
C55   C61   A    
C37   N3    A    
C61   C63   A    
C53   O11   S    
C62   C64   A    
C36   H10   S    
C9    H19   S    
Cu1   N4    S    
C23   O7    A    
C11   H21   S    
C68   C69   A    
C49   C51   A    
C3    H15   S    
C50   C52   A    
C22   H25   S    
C31   C33   A    
C1    C15   S    
C56   C58   A    
C2    C16   S    
C14   N1    S    
C18   C20   A    
C76   H40   S    
C3    C13   A    
C44   C52   A    
C40   C42   A    
C28   C34   A    
C69   H34   S    
C51   S1    S    
C41   C43   A    
C42   C44   A    
C40   N4    A    
C50   H12   S    
O15   H27   S    
C45   O9    S    
C47   C50   A    
S3    O20   D    
C25   C29   A    
C74   H38   S    
C54   C56   A    
C6    H18   S    
C12   H22   S    
C53   N1    A    
C17   C27   A    
C18   C28   A    
C71   C72   A    
C4    C6    A    
C67   H32   S    
S1    O15   S    
C1    O1    A    
C70   H35   S    
C5    C7    A    
C19   C71   S    
C6    C8    A    
C68   H33   S    
C39   S4    S    
C24   O8    A    
C32   C34   A    
Cu2   O3    S    
C34   H24   S    
C29   C30   A    
C33   H23   S    
C61   H1    S    
C47   C48   A    
C46   N2    A    
C16   C20   A    
C41   C47   A    
C42   C48   A    
C9    C11   A    
C39   N3    A    
C10   C12   A    
C72   H36   S    
S4    O24   S    
C48   C49   A    
C12   C14   A    
C26   C30   A    
C55   C57   A    
C69   C70   A    
C56   C62   A    
C36   C44   A    
C17   C19   A    
C67   C68   A    
C35   C43   A    
S4    O23   D    
C65   C66   A    
S3    O21   S    
C7    C9    A    
C21   C25   A    
C45   C59   A    
C16   C22   A    
C73   H37   S    
C46   C60   A    
Cu2   O7    S    
Cu1   O4    S    
C75   C76   A    
C3    C5    A    
C71   C76   A    
S2    O17   D    
S3    O19   D    
C52   S2    S    
C25   C27   A    
C26   C28   A    
C54   O12   S    
C13   N2    S    
Cu2   O2    S    
C36   C38   A    
C66   C67   A    
Cu1   O1    S    
C72   C73   A    
C11   C13   A    
C10   H20   S    
C57   C58   A    
C23   O5    A    
C43   C51   A    
C7    C23   S    
C46   O10   S    
C31   H5    S    
C8    C24   S    
C49   H11   S    
C24   O6    A    
C62   H2    S    
C4    C14   A    
C54   N2    A    
S2    O18   S    
C2    O4    A    
C65   C70   A    
C15   C21   A    
C40   S3    S    
C4    H16   S    
C2    O2    A    
C8    C10   A    
Cu1   Cu2   S    
C22   C26   A    
C38   N4    A    
C73   C74   A    
S4    O22   D    
Cu1   O8    S    
O21   H29   S    
S1    O13   D    
C21   H26   S    
O24   H30   S    
Cu2   N3    S    
C32   H6    S    
C38   H7    S    
