data_mof_unit_16235.cif
_audit_creation_date              2012-10-26T20:00:34-0400
_audit_creation_method            fapswitch 2.2
_symmetry_space_group_name_H-M    P1
_symmetry_Int_Tables_number       1
_space_group_crystal_system       triclinic
_cell_length_a                    11.707656
_cell_length_b                    12.967294
_cell_length_c                    13.501821
_cell_angle_alpha                 92.921853
_cell_angle_beta                  76.642005
_cell_angle_gamma                 100.544333
_cell_volume                      1960.58619139

loop_
_atom_site_label
_atom_site_type_symbol
_atom_type_description
_atom_site_fract_x
_atom_site_fract_y
_atom_site_fract_z
_atom_type_partial_charge
C1    C     C_R   0.522185 0.701045 0.499745 0.602393
C2    C     C_R   0.395970 0.498335 0.808998 0.013800
C3    C     C_R   0.457610 0.186181 0.523999 -0.002025
C4    C     C_R   0.436304 0.501157 0.696225 0.579391
C5    C     C_R   0.535740 0.815168 0.499126 0.008766
C6    C     C_R   0.657117 0.987357 0.460385 0.024767
C7    C     C_R   0.647180 0.878180 0.464296 0.378933
C8    C     C_R   0.434828 0.860544 0.534973 -0.183849
C9    C     C_R   0.442000 0.969425 0.539325 0.012459
C10   C     C_R   0.552359 0.032398 0.494043 -0.013517
C11   C     C_R   0.555059 0.138450 0.481273 -0.145358
C12   C     C_R   0.458187 0.479990 0.967338 0.014213
C13   C     C_R   0.353646 0.127921 0.587027 0.020605
C14   C     C_R   0.342227 0.016380 0.588855 0.045457
C15   C     C_R   0.949579 0.605274 0.589009 -0.146403
C16   C     C_R   0.475199 0.299611 0.508033 0.515296
C17   C     C_R   0.830402 0.594407 0.580295 0.058792
C18   C     C_R   0.854269 0.454009 0.463491 0.104794
C19   C     C_R   0.974820 0.462885 0.469089 -0.027949
C20   C     C_R   0.023719 0.538848 0.532804 -0.033711
C21   C     C_R   0.145220 0.546627 0.537711 0.481031
C22   C     C_R   0.166157 0.405053 0.418800 0.138938
C23   C     C_R   0.481283 0.525375 0.869956 0.016787
C24   C     C_R   0.046594 0.397242 0.411843 0.309770
C25   C     C_R   0.563660 0.504834 0.303956 0.586112
C26   C     C_R   0.746245 0.583668 0.041441 -0.113975
C27   C     C_R   0.601168 0.513853 0.192132 0.024158
C28   C     C_R   0.277514 0.450338 0.856110 -0.017752
C29   C     C_R   0.260044 0.398808 0.948392 -0.122440
C30   C     C_R   0.351529 0.407575 0.999247 -0.074611
C31   C     C_3   0.261547 0.184531 0.657350 -0.280319
C32   C     C_3   0.266311 0.178990 0.769043 -0.441591
C33   C     C_3   0.780529 0.053592 0.425376 -0.238579
C34   C     C_R   0.543403 0.507183 0.028469 0.019436
C35   C     C_3   0.822333 0.113545 0.514804 -0.427347
C36   C     C_3   0.226217 0.947621 0.644462 -0.273622
C37   C     C_3   0.240290 0.895004 0.739471 -0.421679
C38   C     C_3   0.232597 0.325461 0.354442 -0.159867
C39   C     C_3   0.189398 0.214527 0.397058 -0.436413
C40   C     C_3   0.172313 0.451211 0.807501 -0.258676
C41   C     C_3   0.050332 0.439898 0.881937 -0.444600
C42   C     C_R   0.657765 0.564323 0.985092 -0.119061
C43   C     C_R   0.678656 0.609859 0.889756 -0.095889
C44   C     C_R   0.588124 0.597763 0.836932 0.373723
C45   C     C_R   0.514398 0.488898 0.133835 0.297684
C46   C     C_R   0.719074 0.556423 0.143876 0.338490
Cu1   Cu    Cu3+1 0.386470 0.492430 0.492410 1.014688
Cu2   Cu    Cu3+1 0.613530 0.507570 0.507590 1.063520
F1    F     F_    0.805549 0.580873 0.197312 -0.587640
F2    F     F_    0.745470 0.832925 0.431672 -0.615890
F3    F     F_    0.191929 0.619398 0.599938 -0.661898
F4    F     F_    0.000382 0.325351 0.348007 -0.679304
F5    F     F_    0.398552 0.461020 0.182463 -0.670941
F6    F     F_    0.601433 0.663714 0.758601 -0.651693
H1    H     H_    0.350787 0.808868 0.559762 0.185975
H2    H     H_    0.243156 0.097700 0.796982 0.164926
H3    H     H_    0.356650 0.214309 0.779613 0.157868
H4    H     H_    0.200386 0.223142 0.816446 0.137315
H5    H     H_    0.275677 0.268758 0.641612 0.174643
H6    H     H_    0.170261 0.154681 0.646723 0.119453
H7    H     H_    0.761227 0.167555 0.551264 0.156392
H8    H     H_    0.827264 0.057561 0.572637 0.165333
H9    H     H_    0.912211 0.160942 0.487664 0.168030
H10   H     H_    0.847859 0.004332 0.390563 0.218249
H11   H     H_    0.781763 0.108250 0.364397 0.153253
H12   H     H_    0.983236 0.665752 0.638563 0.151435
H13   H     H_    0.258871 0.814417 0.722259 0.188795
H14   H     H_    0.313563 0.940754 0.771473 0.163333
H15   H     H_    0.156094 0.888319 0.798938 0.142499
H16   H     H_    0.152018 0.991522 0.668562 0.143710
H17   H     H_    0.193318 0.887241 0.591464 0.159835
H18   H     H_    0.177712 0.215625 0.480845 0.145804
H19   H     H_    0.103516 0.179352 0.377739 0.193367
H20   H     H_    0.255637 0.163845 0.363271 0.139248
H21   H     H_    0.218510 0.324995 0.275744 0.209349
H22   H     H_    0.328977 0.342943 0.343996 0.220665
H23   H     H_    0.775397 0.647553 0.621999 0.205113
H24   H     H_    0.020200 0.358159 0.909819 0.148209
H25   H     H_    0.053852 0.495170 0.947244 0.190254
H26   H     H_    0.983401 0.458310 0.842216 0.142854
H27   H     H_    0.185443 0.528269 0.770352 0.223949
H28   H     H_    0.168783 0.388435 0.748801 0.150960
H29   H     H_    0.761989 0.661883 0.859758 0.128633
H30   H     H_    0.816106 0.395730 0.414424 0.184918
H31   H     H_    0.835133 0.624361 0.007446 0.148520
H32   H     H_    0.336036 0.357130 0.063856 0.186577
H33   H     H_    0.176223 0.349251 0.981018 0.136188
H34   H     H_    0.634276 0.186285 0.437565 0.134662
N1    N     N_R   0.215880 0.481050 0.481000 -0.247245
N2    N     N_R   0.784100 0.518950 0.519000 -0.246929
O1    O     O_R   0.419710 0.645650 0.494620 -0.461152
O2    O     O_R   0.611450 0.658430 0.507430 -0.415623
O3    O     O_R   0.357340 0.490460 0.641450 -0.502545
O4    O     O_R   0.549080 0.503250 0.654260 -0.469306
O5    O     O_R   0.388550 0.341570 0.492570 -0.552919
O6    O     O_R   0.580290 0.354350 0.505380 -0.533362
O7    O     O_R   0.450920 0.496750 0.345740 -0.464965
O8    O     O_R   0.642660 0.509540 0.358550 -0.443672

loop_
_geom_bond_atom_site_label_1
_geom_bond_atom_site_label_2
_ccdc_geom_bond_type
C24   F4    S    
C37   H15   S    
C43   H29   S    
C19   C20   A    
C34   C42   A    
C32   H4    S    
C43   C44   A    
C41   H26   S    
C33   H11   S    
C21   N1    A    
C12   C23   A    
Cu2   O4    S    
C1    C5    S    
C36   C37   S    
C26   H31   S    
C14   C36   S    
C38   C39   S    
C28   C40   S    
C22   C38   S    
C37   H14   S    
C18   C19   A    
C39   H20   S    
C31   H5    S    
C31   C32   S    
C8    C9    A    
C18   H30   S    
C39   H18   S    
C30   H32   S    
C9    C10   A    
C3    C13   A    
C36   H17   S    
C27   C45   A    
C45   F5    S    
C1    O1    A    
Cu2   N2    S    
C13   C14   A    
Cu1   N1    S    
C32   H3    S    
C8    H1    S    
C36   H16   S    
C38   H21   S    
C15   C20   A    
C16   O6    A    
C18   N2    A    
C40   H28   S    
C41   H24   S    
C5    C7    A    
C38   H22   S    
C15   H12   S    
C23   C44   A    
C31   H6    S    
C2    C4    S    
C9    C14   A    
C6    C10   A    
C29   C30   A    
Cu1   Cu2   S    
C46   F1    S    
C11   H34   S    
C17   H23   S    
Cu1   O3    S    
C35   H7    S    
C34   C45   A    
C4    O4    A    
C27   C46   A    
C25   O7    A    
C40   C41   S    
C1    O2    A    
C22   C24   A    
C42   C43   A    
C12   C34   A    
C21   F3    S    
C26   C42   A    
C15   C17   A    
C28   C29   A    
C16   O5    A    
Cu2   O6    S    
C12   C30   A    
Cu1   O1    S    
C40   H27   S    
C13   C31   S    
C17   N2    A    
C7    F2    S    
C41   H25   S    
C5    C8    A    
C2    C28   A    
C6    C7    A    
C25   C27   S    
Cu2   O8    S    
Cu1   O7    S    
C6    C33   S    
C19   C24   A    
C33   H10   S    
C37   H13   S    
C33   C35   S    
C22   N1    A    
C35   H8    S    
C39   H19   S    
C29   H33   S    
C3    C11   A    
C10   C11   A    
C26   C46   A    
C4    O3    A    
C44   F6    S    
C25   O8    A    
C20   C21   A    
Cu2   O2    S    
C2    C23   A    
Cu1   O5    S    
C35   H9    S    
C32   H2    S    
C3    C16   S    
