data_mof_unit_37008.cif
_audit_creation_date              2012-12-11T17:04:33-0500
_audit_creation_method            fapswitch 2.2
_symmetry_space_group_name_H-M    P1
_symmetry_Int_Tables_number       1
_space_group_crystal_system       triclinic
_cell_length_a                    6.978496
_cell_length_b                    17.482781
_cell_length_c                    18.629594
_cell_angle_alpha                 106.163606
_cell_angle_beta                  89.938013
_cell_angle_gamma                 90.578047
_cell_volume                      2182.91618366

loop_
_atom_site_label
_atom_site_type_symbol
_atom_type_description
_atom_site_fract_x
_atom_site_fract_y
_atom_site_fract_z
_atom_type_partial_charge
O1    O     O_R   0.494360 0.415680 0.413760 -0.539220
O2    O     O_R   0.818780 0.432910 0.557230 -0.522302
O3    O     O_R   0.994290 0.584320 0.586240 -0.532179
C1    C     C_R   0.649894 0.415991 0.580549 0.723186
O4    O     O_R   0.823730 0.406440 0.412520 -0.548099
O5    O     O_R   0.999270 0.557660 0.440500 -0.528780
C2    C     C_R   0.655279 0.386381 0.382531 0.686282
O6    O     O_R   0.489370 0.442340 0.559500 -0.520183
O7    O     O_3   0.662510 0.549640 0.509350 -0.359922
V1    V     V_3+5 0.935340 0.490790 0.498270 1.377111
O8    O     O_R   0.329300 0.567090 0.442770 -0.521385
C3    C     C_R   0.161058 0.584695 0.420049 0.706216
O9    O     O_R   0.324340 0.593560 0.587480 -0.539481
C4    C     C_R   0.155792 0.616386 0.615335 0.702048
V2    V     V_3+5 0.435970 0.509210 0.501730 1.386598
O10   O     O_3   0.158930 0.450360 0.490650 -0.367057
C5    C     C_R   0.997989 0.740736 0.693913 0.059703
C6    C     C_R   0.148361 0.686219 0.682361 -0.102638
C7    C     C_R   0.296051 0.701888 0.736226 -0.182455
H1    H     H_    0.416861 0.662295 0.729504 0.124937
C8    C     C_R   0.282786 0.765722 0.801998 -0.191320
H2    H     H_    0.394752 0.773700 0.843638 0.130224
C9    C     C_R   0.122425 0.816299 0.815568 -0.131274
C10   C     C_R   0.986201 0.804571 0.758226 0.089323
C11   C     C_3   0.772410 0.797419 0.760047 -0.100124
C12   C     C_3   0.786608 0.727214 0.689818 -0.398626
H3    H     H_    0.722580 0.778806 0.809404 0.127521
H4    H     H_    0.722933 0.737322 0.638625 0.172026
H5    H     H_    0.746395 0.669267 0.699582 0.153609
C13   C     C_1   0.112585 0.861040 0.129913 -0.220118
C14   C     C_1   0.120008 0.817994 0.173119 -0.010944
C15   C     C_1   0.129180 0.768320 0.225536 -0.004960
C16   C     C_1   0.136989 0.726854 0.270112 -0.005352
C17   C     C_1   0.146142 0.677805 0.323070 -0.001998
C18   C     C_1   0.153406 0.636109 0.367451 -0.209214
C19   C     C_1   0.641492 0.364097 0.632647 -0.219756
C20   C     C_1   0.637407 0.321582 0.676327 -0.003731
C21   C     C_1   0.634129 0.271492 0.728396 -0.004897
C22   C     C_1   0.631677 0.229329 0.772396 -0.002109
C23   C     C_1   0.628324 0.179264 0.824472 -0.006339
C24   C     C_1   0.624077 0.136585 0.868001 -0.219584
C25   C     C_R   0.497245 0.311408 0.258656 0.062700
C26   C     C_R   0.650040 0.322433 0.310347 -0.123631
C27   C     C_R   0.801393 0.267191 0.291862 -0.149558
H6    H     H_    0.924111 0.273021 0.328392 0.135253
C28   C     C_R   0.790451 0.200556 0.228473 -0.161492
H7    H     H_    0.904880 0.158985 0.216312 0.128841
C29   C     C_R   0.624971 0.183747 0.184389 -0.102503
C30   C     C_R   0.478228 0.238193 0.204326 0.047645
C31   C     C_3   0.277546 0.225530 0.225761 -0.205658
C32   C     C_3   0.284461 0.313506 0.271063 -0.214874
H8    H     H_    0.179855 0.210982 0.176639 0.135245
H9    H     H_    0.241448 0.325655 0.330465 0.133748
O11   O     O_R   0.775950 0.057750 0.940570 -0.519255
O12   O     O_R   0.441430 0.093570 0.087490 -0.539910
O13   O     O_R   0.266040 0.942320 0.059480 -0.520918
C33   C     C_R   0.610773 0.114864 0.116599 0.702112
O14   O     O_R   0.446530 0.067110 0.942790 -0.525084
O15   O     O_R   0.271180 0.915660 0.913750 -0.537272
C34   C     C_R   0.615473 0.084252 0.919672 0.717128
O16   O     O_R   0.770810 0.084400 0.086300 -0.539458
O17   O     O_3   0.602860 0.950400 0.990690 -0.363266
V3    V     V_3+5 0.329970 0.009200 0.001730 1.387948
O18   O     O_R   0.941130 0.906360 0.912450 -0.540030
C35   C     C_R   0.109966 0.883402 0.884764 0.697917
O19   O     O_R   0.936030 0.932820 0.057160 -0.523825
C36   C     C_R   0.104437 0.914703 0.079380 0.709274
V4    V     V_3+5 0.829350 0.990680 0.998180 1.389253
O20   O     O_3   0.106340 0.049590 0.009310 -0.363328
C37   C     C_R   0.186465 0.368151 0.231246 0.124046
C38   C     C_R   0.209026 0.359607 0.153943 -0.108790
C39   C     C_R   0.109649 0.408745 0.119351 -0.127216
C40   C     C_R   0.987006 0.466968 0.161019 -0.086442
C41   C     C_R   0.965529 0.476695 0.237473 -0.122283
C42   C     C_R   0.066758 0.428254 0.272200 -0.146375
H10   H     H_    0.301680 0.314754 0.119835 0.104129
H11   H     H_    0.127110 0.401363 0.060077 0.111880
H12   H     H_    0.909391 0.504736 0.134164 0.110587
H13   H     H_    0.871218 0.522061 0.269989 0.114713
H14   H     H_    0.053119 0.437384 0.331248 0.140380
C43   C     C_3   0.661838 0.869695 0.749333 -0.310811
C44   C     C_3   0.758914 0.913031 0.697240 -0.304463
C45   C     C_3   0.623874 0.973200 0.679081 -0.775346
H15   H     H_    0.499239 0.941966 0.646266 0.224939
H16   H     H_    0.571214 0.015475 0.731203 0.232185
H17   H     H_    0.700827 0.007244 0.645541 0.223708
H18   H     H_    0.889347 0.944953 0.724890 0.190223
H19   H     H_    0.802321 0.869965 0.643933 0.197376
H20   H     H_    0.517005 0.848804 0.727255 0.192305
H21   H     H_    0.642096 0.913009 0.805102 0.172041
C46   C     C_R   0.270416 0.165914 0.272892 0.121597
C47   C     C_R   0.201441 0.088190 0.240229 -0.152508
C48   C     C_R   0.186153 0.033460 0.282263 -0.127363
C49   C     C_R   0.248715 0.053737 0.356215 -0.087730
C50   C     C_R   0.326515 0.129085 0.388588 -0.130665
C51   C     C_R   0.337974 0.184745 0.347570 -0.103457
H22   H     H_    0.154714 0.070539 0.182562 0.115595
H23   H     H_    0.124294 0.975378 0.257950 0.120376
H24   H     H_    0.237562 0.010925 0.388308 0.109772
H25   H     H_    0.377451 0.144626 0.445748 0.111739
H26   H     H_    0.400782 0.241917 0.375185 0.104116

loop_
_geom_bond_atom_site_label_1
_geom_bond_atom_site_label_2
_ccdc_geom_bond_type
O19   V4    S    
C1    C19   S    
C48   C49   A    
C40   C41   A    
C4    C6    S    
C50   C51   A    
C1    O6    A    
C43   C44   S    
C29   C33   S    
O11   C34   A    
C39   H11   S    
C5    C12   S    
O18   V4    S    
C19   C20   T    
C7    C8    A    
C20   C21   S    
C6    C7    A    
O5    C3    A    
C13   C14   T    
O11   V4    S    
O14   C34   A    
C44   H18   S    
C17   C18   T    
C46   C51   A    
O8    V2    S    
V3    O20   S    
V4    O20   S    
O12   V3    S    
C31   H8    S    
C40   H12   S    
C37   C38   A    
O1    V2    S    
C32   C37   S    
C2    C26   S    
O7    V1    S    
C13   C36   S    
C25   C32   S    
C43   H20   S    
O19   C36   A    
C8    H2    S    
C11   C43   S    
C27   C28   A    
C47   H22   S    
C5    C6    A    
C21   C22   T    
C28   C29   A    
C5    C10   A    
C41   C42   A    
C51   H26   S    
C10   C11   S    
C46   C47   A    
O4    C2    A    
C50   H25   S    
C31   C32   S    
C11   C12   S    
C32   H9    S    
O2    C1    A    
C26   C27   A    
O17   V3    S    
C45   H15   S    
O9    V2    S    
C9    C10   A    
C16   C17   S    
O13   V3    S    
C3    C18   S    
O3    C4    A    
C43   H21   S    
C29   C30   A    
C45   H16   S    
C30   C31   S    
O6    V2    S    
C41   H13   S    
C8    C9    A    
C25   C26   A    
O2    V1    S    
C22   C23   S    
C27   H6    S    
C42   H14   S    
O14   V3    S    
C28   H7    S    
C23   C24   T    
O1    C2    A    
O15   V3    S    
C14   C15   S    
C24   C34   S    
C39   C40   A    
O5    V1    S    
O8    C3    A    
C33   O16   A    
C11   H3    S    
O13   C36   A    
C12   H4    S    
O17   V4    S    
C15   C16   T    
C9    C35   S    
C7    H1    S    
O12   C33   A    
O7    V2    S    
O4    V1    S    
O3    V1    S    
V1    O10   S    
O18   C35   A    
O16   V4    S    
C38   H10   S    
C49   H24   S    
C44   H19   S    
C47   C48   A    
C49   C50   A    
C25   C30   A    
C31   C46   S    
C38   C39   A    
C45   H17   S    
C12   H5    S    
C44   C45   S    
C37   C42   A    
O9    C4    A    
C48   H23   S    
O15   C35   A    
V2    O10   S    
