data_mof_unit_58253.cif
_audit_creation_date              2013-03-05T16:32:42-0500
_audit_creation_method            fapswitch 2.2
_symmetry_space_group_name_H-M    P1
_symmetry_Int_Tables_number       1
_space_group_crystal_system       triclinic
_cell_length_a                    9.533678
_cell_length_b                    10.822999
_cell_length_c                    17.360446
_cell_angle_alpha                 90.133659
_cell_angle_beta                  85.819278
_cell_angle_gamma                 89.940938
_cell_volume                      1786.52998185

loop_
_atom_site_label
_atom_site_type_symbol
_atom_site_description
_atom_site_fract_x
_atom_site_fract_y
_atom_site_fract_z
_atom_type_partial_charge
O1    O     O_R   0.381190 0.680360 0.500000 -0.584720
O2    O     O_R   0.618770 0.680320 0.499990 -0.591334
C1    C     C_R   0.500182 0.737733 0.498630 0.803410
O3    O     O_R   0.367430 0.500040 0.613600 -0.584828
O4    O     O_R   0.605020 0.500000 0.613590 -0.583344
C2    C     C_R   0.481443 0.499259 0.649897 0.820549
Cu1   Cu    Cu3+1 0.359330 0.500020 0.500000 0.947395
Cu2   Cu    Cu3+1 0.640670 0.499980 0.500000 0.946604
O5    O     O_R   0.381230 0.319680 0.500010 -0.579416
O6    O     O_R   0.618810 0.319640 0.500000 -0.585599
O7    O     O_R   0.394980 0.500000 0.386410 -0.588119
O8    O     O_R   0.632570 0.499960 0.386400 -0.586532
C3    C     C_R   0.500321 0.262291 0.498550 0.804950
C4    C     C_R   0.518409 0.502368 0.350091 0.793589
C5    C     C_R   0.470864 0.496766 0.734279 -0.103553
C6    C     C_R   0.591825 0.477845 0.773733 -0.178703
C7    C     C_R   0.583000 0.475682 0.853642 -0.183414
C8    C     C_R   0.453443 0.494679 0.895802 0.051055
C9    C     C_R   0.330139 0.513262 0.856649 0.367711
C10   C     C_R   0.340362 0.512940 0.775821 -0.254702
C11   C     C_R   0.410569 0.538997 0.148083 -0.132952
C12   C     C_R   0.404118 0.528679 0.227763 -0.201899
C13   C     C_R   0.658129 0.508476 0.222965 -0.188816
C14   C     C_R   0.664517 0.518740 0.142820 -0.145883
C15   C     C_R   0.540579 0.531405 0.105013 0.170357
C16   C     C_2   0.447061 0.488482 0.980306 -0.136872
C17   C     C_2   0.548651 0.536659 0.020570 -0.220747
C18   C     C_R   0.527513 0.511856 0.265848 -0.031827
H1    H     H_    0.693437 0.463205 0.742907 0.177063
H2    H     H_    0.302274 0.535135 0.259409 0.150559
H3    H     H_    0.754955 0.497651 0.251091 0.145463
H4    H     H_    0.641265 0.578368 0.991134 0.169339
H5    H     H_    0.313797 0.554133 0.120488 0.161507
H6    H     H_    0.246679 0.528556 0.745423 0.190573
H7    H     H_    0.356115 0.444348 0.009763 0.177302
H8    H     H_    0.677755 0.456905 0.882414 0.174376
H9    H     H_    0.765749 0.514474 0.110213 0.149240
C19   C     C_R   0.376296 0.936601 0.487428 0.135305
C20   C     C_R   0.501695 0.870799 0.490866 -0.095334
C21   C     C_R   0.629877 0.935426 0.483075 -0.211562
H10   H     H_    0.729753 0.887247 0.480918 0.162742
C22   C     C_R   0.629963 0.064212 0.483048 -0.213445
H11   H     H_    0.729866 0.112102 0.480945 0.159623
C23   C     C_R   0.501872 0.129216 0.490788 -0.096136
C24   C     C_R   0.376395 0.063755 0.487417 0.117467
C25   C     C_3   0.243105 0.070806 0.538170 -0.453723
C26   C     C_3   0.242891 0.930487 0.538106 -0.476938
H12   H     H_    0.258555 0.111740 0.595780 0.206443
H13   H     H_    0.155231 0.111251 0.507801 0.191639
H14   H     H_    0.258003 0.889730 0.595697 0.200254
H15   H     H_    0.155040 0.890343 0.507523 0.194042
C27   C     C_R   0.930245 0.400885 0.471643 0.257614
N1    N     N_R   0.852130 0.499070 0.499500 -0.187204
C28   C     C_R   0.920703 0.591233 0.535669 -0.074336
H16   H     H_    0.861240 0.666225 0.563390 0.142810
C29   C     C_R   0.069639 0.591142 0.535763 -0.074940
H17   H     H_    0.121567 0.665817 0.563740 0.140215
N2    N     N_R   0.148040 0.499110 0.499500 -0.186384
C30   C     C_R   0.077616 0.400946 0.471604 0.258516
C31   C     C_3   0.094321 0.350128 0.391593 -0.499035
C32   C     C_3   0.935028 0.350082 0.391620 -0.504927
H18   H     H_    0.145197 0.416231 0.349507 0.214449
H19   H     H_    0.140678 0.255810 0.389886 0.194220
H20   H     H_    0.895049 0.416279 0.349647 0.213647
H21   H     H_    0.889499 0.255719 0.389887 0.191389
N3    N     N_R   0.195505 0.535853 0.897445 0.109026
O9    O     O_R   0.185796 0.603640 0.959636 -0.375271
O10   O     O_R   0.080524 0.502449 0.867098 -0.377944

loop_
_geom_bond_atom_site_label_1
_geom_bond_atom_site_label_2
_geom_bond_distance
_ccdc_geom_bond_type
Cu2   N1    2.015391 S    
C32   H20   1.109917 S    
N3    O10   1.301552 A    
C13   C14   1.392937 A    
C14   C15   1.399609 A    
C27   C30   1.404943 A    
O4    Cu2   1.976479 S    
C12   H2    1.082297 S    
Cu1   N2    2.015055 S    
C9    C10   1.399475 A    
C8    C16   1.465529 S    
Cu2   O8    1.979277 S    
C10   H6    1.083323 S    
C21   C22   1.393863 A    
C7    C8    1.403764 A    
C16   C17   1.340367 D    
C1    C20   1.446779 S    
C30   C31   1.490404 S    
C12   C18   1.402769 A    
N1    C28   1.369267 A    
C23   C24   1.395767 A    
C31   H18   1.110135 S    
Cu1   O7    1.976479 S    
C25   H13   1.111828 S    
C19   C26   1.494425 S    
O4    C2    1.295046 A    
C22   C23   1.406469 A    
C27   N1    1.364254 A    
O3    Cu1   1.979273 S    
O1    Cu1   1.963128 S    
C25   C26   1.518672 S    
C11   C12   1.384931 A    
C21   H10   1.083348 S    
C7    H8    1.082929 S    
O8    C4    1.297153 A    
O2    C1    1.291275 A    
C26   H14   1.112591 S    
C28   C29   1.420029 A    
C27   C32   1.490471 S    
C31   H19   1.111419 S    
C5    C10   1.402436 A    
O7    C4    1.294161 A    
C25   H12   1.112553 S    
N2    C30   1.364014 A    
O3    C2    1.295570 A    
C11   H5    1.082600 S    
C13   C18   1.403869 A    
C17   H4    1.086577 S    
C5    C6    1.398664 A    
C32   H21   1.111316 S    
C16   H7    1.085732 S    
Cu1   Cu2   2.682205 S    
C19   C20   1.396016 A    
C29   H17   1.080852 S    
C6    H1    1.083346 S    
C9    N3    1.440456 S    
Cu2   O6    1.963128 S    
C8    C9    1.414573 A    
C22   H11   1.083122 S    
O2    Cu2   1.962743 S    
C20   C21   1.406779 A    
Cu1   O5    1.962744 S    
C14   H9    1.083575 S    
C11   C15   1.402320 A    
C28   H16   1.081299 S    
C31   C32   1.518614 S    
C19   C24   1.376194 A    
O5    C3    1.292200 A    
N3    O9    1.301577 A    
C4    C18   1.462592 S    
C2    C5    1.461344 S    
C24   C25   1.494382 S    
O6    C3    1.291310 A    
C3    C23   1.446214 S    
C26   H15   1.112055 S    
C29   N2    1.368968 A    
C6    C7    1.383934 A    
O1    C1    1.292538 A    
C15   C17   1.463606 S    
C13   H3    1.081686 S    
