data_mof_unit_56061.cif
_audit_creation_date              2012-12-10T17:30:26-0500
_audit_creation_method            fapswitch 2.2
_symmetry_space_group_name_H-M    P1
_symmetry_Int_Tables_number       1
_space_group_crystal_system       triclinic
_cell_length_a                    11.971468
_cell_length_b                    12.894216
_cell_length_c                    15.018332
_cell_angle_alpha                 90.031364
_cell_angle_beta                  86.023181
_cell_angle_gamma                 93.398891
_cell_volume                      2308.60537594

loop_
_atom_site_label
_atom_site_type_symbol
_atom_type_description
_atom_site_fract_x
_atom_site_fract_y
_atom_site_fract_z
_atom_type_partial_charge
C1    C     C_R   0.522183 0.700451 0.497921 0.903778
C2    C     C_R   0.360600 0.138024 0.488979 -0.283280
C3    C     C_R   0.442355 0.867293 0.484146 -0.211573
C4    C     C_R   0.557644 0.132707 0.515853 -0.211587
C5    C     C_R   0.447080 0.973965 0.493226 0.124255
C6    C     C_R   0.552917 0.026034 0.506779 0.124236
C7    C     C_R   0.953695 0.397997 0.418829 -0.117446
C8    C     C_R   0.046305 0.602006 0.581169 -0.117429
C9    C     C_R   0.837352 0.410276 0.426503 0.082738
C10   C     C_R   0.162648 0.589726 0.573495 0.082765
C11   C     C_R   0.857420 0.542682 0.534402 -0.068383
C12   C     C_R   0.477817 0.299549 0.502079 0.903778
C13   C     C_R   0.142580 0.457317 0.465598 -0.068386
C14   C     C_R   0.975567 0.537092 0.529314 -0.009748
C15   C     C_R   0.024433 0.462909 0.470685 -0.009745
C16   C     C_R   0.500061 0.500464 0.673436 0.901096
C17   C     C_R   0.499938 0.499531 0.326564 0.901100
C18   C     C_R   0.602181 0.500654 0.179485 -0.190378
C19   C     C_R   0.397803 0.499296 0.820515 -0.190444
C20   C     C_R   0.500092 0.497592 0.230682 -0.107241
C21   C     C_R   0.499898 0.502371 0.769320 -0.107250
C22   C     C_R   0.398513 0.492955 0.190603 -0.228616
C23   C     C_R   0.293019 0.501865 0.966876 -0.006682
C24   C     C_R   0.601463 0.506965 0.809400 -0.228626
C25   C     C_R   0.398057 0.494591 0.098683 0.128320
C26   C     C_R   0.601908 0.505302 0.901320 0.128340
C27   C     C_R   0.500708 0.497920 0.046309 0.036980
C28   C     C_R   0.499255 0.501976 0.953694 0.036998
C29   C     C_R   0.604498 0.497549 0.086747 0.088419
C30   C     C_R   0.395467 0.502354 0.913256 0.088377
C31   C     C_R   0.295973 0.495336 0.059180 -0.293537
C32   C     C_R   0.703986 0.504526 0.940824 -0.293551
C33   C     C_2   0.996840 0.315984 0.357926 0.450893
C34   C     C_R   0.706936 0.497998 0.033128 -0.006730
C35   C     C_2   0.003161 0.684022 0.642070 0.450934
C36   C     C_2   0.181035 0.510763 0.931590 0.388601
C37   C     C_2   0.818892 0.489022 0.068418 0.388644
C38   C     C_2   0.765854 0.017358 0.518494 0.379908
C39   C     C_2   0.234137 0.982645 0.481525 0.379940
C40   C     C_R   0.464115 0.188260 0.502890 -0.074216
C41   C     C_R   0.535884 0.811740 0.497112 -0.074239
C42   C     C_R   0.650551 0.969586 0.512573 0.002621
C43   C     C_R   0.349445 0.030413 0.487437 0.002601
C44   C     C_R   0.639398 0.861976 0.511030 -0.283256
H1    H     H_    0.679185 0.508482 0.212863 0.212009
H2    H     H_    0.712117 0.817313 0.518851 0.155855
H3    H     H_    0.184958 0.404788 0.420901 0.116511
H4    H     H_    0.815041 0.595210 0.579101 0.116515
H5    H     H_    0.218642 0.637819 0.611960 0.190193
H6    H     H_    0.781359 0.362185 0.388037 0.190209
H7    H     H_    0.080734 0.289950 0.360575 0.033834
H8    H     H_    0.919267 0.710058 0.639421 0.033834
H9    H     H_    0.107316 0.473783 0.967343 0.069650
H10   H     H_    0.892631 0.525930 0.032656 0.069650
H11   H     H_    0.825632 0.977660 0.555339 0.078765
H12   H     H_    0.320814 0.491503 0.787130 0.212054
H13   H     H_    0.174342 0.022367 0.444716 0.078770
H14   H     H_    0.319574 0.490070 0.230913 0.164399
H15   H     H_    0.680402 0.509845 0.769091 0.164410
H16   H     H_    0.218082 0.494223 0.100849 0.152591
H17   H     H_    0.781873 0.505617 0.899156 0.152605
H18   H     H_    0.634104 0.173975 0.533301 0.207682
H19   H     H_    0.365899 0.826025 0.466689 0.207699
H20   H     H_    0.287880 0.182688 0.481163 0.155853
N1    N     N_R   0.207800 0.519350 0.516680 -0.126692
N2    N     N_R   0.792200 0.480650 0.483320 -0.126693
O1    O     O_R   0.421700 0.658830 0.504450 -0.625200
O2    O     O_2   0.062657 0.725523 0.696315 -0.507796
O3    O     O_2   0.168413 0.564573 0.866614 -0.544676
O4    O     O_2   0.831455 0.435213 0.133399 -0.544646
O5    O     O_2   0.797858 0.096680 0.477669 -0.555574
O6    O     O_2   0.202150 0.903296 0.522321 -0.555601
O7    O     O_R   0.578300 0.341170 0.495550 -0.625202
O8    O     O_R   0.609310 0.646410 0.493750 -0.626702
O9    O     O_R   0.390690 0.353590 0.506250 -0.626705
O10   O     O_R   0.406180 0.506230 0.637500 -0.624237
O11   O     O_R   0.593820 0.493770 0.362500 -0.624234
O12   O     O_R   0.593800 0.493820 0.626800 -0.629504
O13   O     O_R   0.406200 0.506180 0.373200 -0.629500
O14   O     O_2   0.937343 0.274483 0.303679 -0.507758
Zn1   Zn    Zn3+2 0.374730 0.508290 0.507150 0.962328
Zn2   Zn    Zn3+2 0.625270 0.491710 0.492850 0.962325

loop_
_geom_bond_atom_site_label_1
_geom_bond_atom_site_label_2
_ccdc_geom_bond_type
C19   H12   S    
C25   C31   A    
C26   C32   A    
C16   C21   S    
C27   C29   A    
C34   C37   S    
C13   N1    A    
C1    O8    A    
O11   Zn2   S    
C19   C21   A    
C24   C26   A    
C32   H17   S    
C38   C42   S    
C5    C6    A    
C11   C14   A    
C39   H13   S    
C4    H18   S    
C17   O13   A    
C17   C20   S    
C9    N2    A    
C36   H9    S    
C38   H11   S    
C4    C40   A    
C2    H20   S    
C22   C25   A    
C39   O6    D    
C16   O12   A    
C11   N2    A    
C7    C15   A    
C5    C43   A    
C37   O4    D    
C7    C33   S    
C11   H4    S    
C42   C44   A    
O8    Zn2   S    
C44   H2    S    
C23   C30   A    
C4    C6    A    
O13   Zn1   S    
O9    Zn1   S    
C39   C43   S    
C29   C34   A    
C8    C35   S    
C23   C31   A    
C31   H16   S    
C12   C40   S    
N2    Zn2   S    
O12   Zn2   S    
N1    Zn1   S    
C2    C43   A    
C17   O11   A    
C18   C29   A    
C37   H10   S    
C1    C41   S    
C20   C22   A    
O1    Zn1   S    
C13   C15   A    
C41   C44   A    
C12   O9    A    
C25   C27   A    
C18   H1    S    
O7    Zn2   S    
C35   H8    S    
C36   O3    D    
C13   H3    S    
C10   N1    A    
C7    C9    A    
C38   O5    D    
C3    C41   A    
C8    C14   A    
C16   O10   A    
C9    H6    S    
C3    C5    A    
O10   Zn1   S    
C22   H14   S    
C33   O14   D    
C3    H19   S    
C33   H7    S    
C26   C28   A    
C28   C30   A    
C19   C30   A    
C35   O2    D    
C24   H15   S    
C1    O1    A    
C18   C20   A    
C2    C40   A    
C8    C10   A    
C23   C36   S    
C6    C42   A    
C21   C24   A    
C27   C28   A    
C14   C15   A    
C12   O7    A    
C10   H5    S    
C32   C34   A    
