data_mof_unit_46978.cif
_audit_creation_date              2012-12-11T14:33:59-0500
_audit_creation_method            fapswitch 2.2
_symmetry_space_group_name_H-M    P1
_symmetry_Int_Tables_number       1
_space_group_crystal_system       triclinic
_cell_length_a                    14.331568
_cell_length_b                    14.197371
_cell_length_c                    27.289816
_cell_angle_alpha                 89.568242
_cell_angle_beta                  90.261753
_cell_angle_gamma                 119.686238
_cell_volume                      4823.74987266

loop_
_atom_site_label
_atom_site_type_symbol
_atom_type_description
_atom_site_fract_x
_atom_site_fract_y
_atom_site_fract_z
_atom_type_partial_charge
C1    C     C_R   0.234347 0.787710 0.568166 0.540956
C2    C     C_R   0.212678 0.446297 0.568141 0.539319
C3    C     C_R   0.553596 0.765819 0.568233 0.544031
C4    C     C_3   0.676852 0.745626 0.787361 -0.244608
C5    C     C_3   0.253534 0.930498 0.786525 -0.244316
C6    C     C_3   0.070810 0.326452 0.786382 -0.243337
C7    C     C_3   0.656419 0.733149 0.730987 0.117936
C8    C     C_3   0.265709 0.922058 0.730187 0.118787
C9    C     C_3   0.078662 0.344640 0.729788 0.120705
C10   C     C_1   0.727469 0.871309 0.857210 -0.005925
C11   C     C_1   0.129319 0.857302 0.857043 -0.006396
C12   C     C_1   0.142946 0.274667 0.857541 -0.006370
C13   C     C_1   0.644526 0.824234 0.655190 0.093401
C14   C     C_1   0.175179 0.820541 0.654891 0.092614
C15   C     C_1   0.180970 0.354464 0.655222 0.093977
C16   C     C_1   0.609951 0.801387 0.613979 0.096127
C17   C     C_1   0.198306 0.808601 0.613778 0.096501
C18   C     C_1   0.192668 0.389250 0.613916 0.096191
C19   C     C_R   0.102195 0.217327 0.089662 0.588649
C20   C     C_R   0.778825 0.882993 0.087909 0.573004
C21   C     C_R   0.113814 0.895189 0.089256 0.602286
C22   C     C_R   0.104391 0.216872 0.950232 0.563136
C23   C     C_R   0.783149 0.888423 0.950151 0.559046
C24   C     C_R   0.111424 0.895522 0.949981 0.565895
C25   C     C_R   0.617874 0.896655 0.360274 0.251872
C26   C     C_R   0.093189 0.735008 0.366592 0.246980
C27   C     C_R   0.268547 0.363838 0.365302 0.245408
C28   C     C_R   0.643876 0.909602 0.309892 -0.021775
C29   C     C_R   0.073744 0.749335 0.317087 -0.015398
C30   C     C_R   0.251041 0.326952 0.316490 -0.007982
C31   C     C_R   0.684679 0.926350 0.208373 -0.012346
C32   C     C_R   0.053596 0.767043 0.214955 -0.008610
C33   C     C_R   0.224806 0.282251 0.215304 -0.004153
C34   C     C_R   0.232893 0.788572 0.432395 0.563566
C35   C     C_R   0.212349 0.444931 0.432404 0.562275
C36   C     C_R   0.553654 0.767029 0.431695 0.564189
C37   C     C_R   0.652674 0.995232 0.230572 0.233719
C38   C     C_R   0.985444 0.669891 0.239655 0.215031
C39   C     C_R   0.324157 0.315184 0.237888 0.202213
C40   C     C_R   0.630266 0.983833 0.280659 -0.047457
C41   C     C_R   0.994569 0.662784 0.290212 -0.043127
C42   C     C_R   0.336046 0.336200 0.287959 -0.063542
C43   C     C_R   0.713175 0.936986 0.159071 -0.128662
C44   C     C_R   0.044899 0.779098 0.164254 -0.124487
C45   C     C_R   0.210864 0.261161 0.164971 -0.133464
C46   C     C_R   0.728140 0.858770 0.136042 -0.033282
C47   C     C_R   0.128818 0.864185 0.138825 -0.001783
C48   C     C_R   0.122347 0.254087 0.140791 -0.009577
C49   C     C_R   0.656645 0.748896 0.365090 -0.110589
C50   C     C_R   0.249749 0.914934 0.366432 -0.112516
C51   C     C_R   0.085231 0.328980 0.369465 -0.111033
C52   C     C_R   0.682879 0.759866 0.315599 0.004947
C53   C     C_R   0.232874 0.930924 0.317417 0.003518
C54   C     C_R   0.065915 0.292407 0.321235 0.003583
C55   C     C_R   0.674163 0.839423 0.287491 -0.023475
C56   C     C_R   0.145949 0.845833 0.292153 -0.023187
C57   C     C_R   0.150935 0.295206 0.293934 -0.022644
C58   C     C_R   0.711340 0.688798 0.293036 0.235715
C59   C     C_R   0.306861 0.025389 0.291864 0.272316
C60   C     C_R   0.966499 0.261465 0.298492 0.276642
C61   C     C_R   0.728046 0.696212 0.242706 -0.102089
C62   C     C_R   0.299507 0.028323 0.240879 -0.055490
C63   C     C_R   0.956496 0.241722 0.248256 -0.054086
C64   C     C_R   0.710576 0.767930 0.213705 -0.040802
C65   C     C_R   0.219643 0.940247 0.215156 -0.037051
C66   C     C_R   0.044512 0.258737 0.219523 -0.042286
C67   C     C_3   0.586975 0.864415 0.734869 0.097475
C68   C     C_3   0.134504 0.722091 0.735043 0.097745
C69   C     C_3   0.277350 0.413604 0.735159 0.095767
C70   C     C_R   0.690617 0.845194 0.236576 -0.016324
C71   C     C_R   0.137223 0.853011 0.241036 -0.022076
C72   C     C_R   0.138997 0.275641 0.243111 -0.023267
C73   C     C_R   0.713992 0.765721 0.162328 0.172912
C74   C     C_R   0.222866 0.934057 0.163945 0.225305
C75   C     C_R   0.042192 0.262653 0.167824 0.225509
C76   C     C_R   0.615328 0.809075 0.386214 0.022859
C77   C     C_R   0.188065 0.814531 0.389102 0.021389
C78   C     C_R   0.187755 0.374406 0.389561 0.020854
C79   C     C_3   0.785329 0.935437 0.719417 -0.205620
C80   C     C_3   0.065516 0.853186 0.719130 -0.207724
C81   C     C_3   0.150540 0.213401 0.720818 -0.206526
C82   C     C_3   0.810384 0.940691 0.775049 -0.256308
C83   C     C_3   0.060346 0.872554 0.774734 -0.257075
C84   C     C_3   0.128901 0.189139 0.776401 -0.259016
C85   C     C_1   0.747345 0.878375 0.900413 0.024194
C86   C     C_1   0.122155 0.870145 0.900242 0.022553
C87   C     C_1   0.129753 0.254208 0.900683 0.024725
C88   C     C_3   0.670139 0.840777 0.708116 -0.019573
C89   C     C_3   0.158726 0.829862 0.707813 -0.017785
C90   C     C_3   0.171515 0.329574 0.708265 -0.018575
C91   C     C_3   0.615000 0.884879 0.790883 0.125267
C92   C     C_3   0.115221 0.730232 0.791136 0.125523
C93   C     C_3   0.269325 0.386014 0.791384 0.125626
C94   C     C_3   0.707653 0.861648 0.803955 -0.017757
C95   C     C_3   0.138628 0.846862 0.803715 -0.016650
C96   C     C_3   0.153773 0.293956 0.804271 -0.017126
Cr1   Cr    Cr6+3 0.164410 0.584450 0.499910 1.117649
Cr2   Cr    Cr6+3 0.415550 0.579960 0.499910 1.115989
Cr3   Cr    Cr6+3 0.420040 0.835590 0.499910 1.116202
Cr4   Cr    Cr6+3 0.155170 0.075460 0.019960 1.115459
Cr5   Cr    Cr6+3 0.924540 0.079710 0.019960 1.121530
Cr6   Cr    Cr6+3 0.920290 0.844830 0.019960 1.142957
H1    H     H_    0.507533 0.788776 0.732912 0.091321
H2    H     H_    0.208876 0.715858 0.732850 0.088690
H3    H     H_    0.281534 0.493957 0.732439 0.089937
H4    H     H_    0.542425 0.826216 0.811774 0.139463
H5    H     H_    0.173656 0.715040 0.811865 0.138742
H6    H     H_    0.284362 0.459990 0.811708 0.139654
H7    H     H_    0.741914 0.728830 0.798367 0.193013
H8    H     H_    0.270314 0.012915 0.796944 0.191656
H9    H     H_    0.989285 0.262431 0.797643 0.193877
H10   H     H_    0.727021 0.006863 0.138114 0.224458
H11   H     H_    0.975228 0.721539 0.144221 0.219472
H12   H     H_    0.269551 0.252290 0.143779 0.205850
H13   H     H_    0.598338 0.031477 0.296135 0.237801
H14   H     H_    0.946748 0.584809 0.307425 0.228452
H15   H     H_    0.415077 0.369222 0.303575 0.217250
H16   H     H_    0.755815 0.645920 0.226531 0.227902
H17   H     H_    0.355803 0.099383 0.221003 0.213300
H18   H     H_    0.879625 0.213098 0.231647 0.218808
H19   H     H_    0.660269 0.687673 0.387258 0.236390
H20   H     H_    0.317653 0.976459 0.386166 0.235553
H21   H     H_    0.023217 0.331116 0.390782 0.233212
H22   H     H_    0.848157 0.929923 0.698358 0.189734
H23   H     H_    0.071479 0.922547 0.697894 0.187569
H24   H     H_    0.083890 0.149577 0.699349 0.190208
H25   H     H_    0.791921 0.013110 0.708343 0.238956
H26   H     H_    0.988235 0.783699 0.708282 0.236986
H27   H     H_    0.221555 0.206804 0.711421 0.237456
H28   H     H_    0.844275 0.025181 0.788401 0.148266
H29   H     H_    0.976675 0.822873 0.788312 0.145698
H30   H     H_    0.177398 0.153757 0.791053 0.142301
H31   H     H_    0.873839 0.918487 0.781131 0.119940
H32   H     H_    0.082241 0.958462 0.780538 0.119365
H33   H     H_    0.043373 0.126447 0.781923 0.122604
H34   H     H_    0.570905 0.671307 0.726154 0.192192
H35   H     H_    0.326660 0.896488 0.725488 0.188361
H36   H     H_    0.102364 0.430796 0.723752 0.191841
H37   H     H_    0.603102 0.685219 0.806995 0.132862
H38   H     H_    0.313415 0.915896 0.806265 0.131438
H39   H     H_    0.085752 0.402266 0.804951 0.131746
O1    O     O_R   0.137150 0.468200 0.553200 -0.484091
O2    O     O_R   0.531800 0.668950 0.553200 -0.488281
O3    O     O_R   0.331050 0.862850 0.553200 -0.487244
O4    O     O_R   0.179100 0.982980 0.967000 -0.489046
O5    O     O_R   0.017020 0.196120 0.967000 -0.496083
O6    O     O_R   0.803880 0.820900 0.967000 -0.486154
O7    O     O_R   0.173970 0.688730 0.549930 -0.508580
O8    O     O_R   0.311270 0.485240 0.549930 -0.510988
O9    O     O_R   0.514760 0.826030 0.549930 -0.509761
O10   O     O_R   0.140110 0.470540 0.446010 -0.497758
O11   O     O_R   0.529460 0.669570 0.446010 -0.497016
O12   O     O_R   0.330430 0.859890 0.446010 -0.499391
O13   O     O_R   0.176710 0.690910 0.450560 -0.425179
O14   O     O_R   0.309090 0.485800 0.450560 -0.428862
O15   O     O_R   0.514200 0.823290 0.450560 -0.429428
O16   O     O_3   0.333333 0.666667 0.499990 -0.326438
O17   O     O_R   0.176750 0.985260 0.074180 -0.455283
O18   O     O_R   0.014740 0.191490 0.074180 -0.431720
O19   O     O_R   0.808510 0.823250 0.074180 -0.429174
O20   O     O_R   0.146100 0.172630 0.068980 -0.513466
O21   O     O_R   0.827370 0.973470 0.068980 -0.498247
O22   O     O_R   0.026530 0.853900 0.068980 -0.499951
O23   O     O_3   0.000000 0.000000 0.020040 -0.290021
O24   O     O_R   0.148270 0.170520 0.969620 -0.493272
O25   O     O_R   0.829480 0.977750 0.969620 -0.498660
O26   O     O_R   0.022250 0.851730 0.969620 -0.494422
O27   O     O_3   0.639635 0.989047 0.806547 -0.615021
H40   H     H_    0.697802 0.043454 0.785508 0.387476
O28   O     O_3   0.012322 0.651920 0.807513 -0.615191
H41   H     H_    0.958078 0.657007 0.786770 0.387526
O29   O     O_3   0.346762 0.359474 0.807966 -0.614202
H42   H     H_    0.342132 0.300162 0.787355 0.385061
O30   O     O_3   0.587965 0.963108 0.383935 -0.631703
H43   H     H_    0.635439 0.038281 0.372620 0.374382
O31   O     O_3   0.028246 0.639930 0.391787 -0.640536
H44   H     H_    0.952700 0.615085 0.383413 0.368826
O32   O     O_3   0.366876 0.400883 0.387884 -0.639015
H45   H     H_    0.392708 0.349599 0.380990 0.370349
S1    S     S_3+6 0.627506 0.088889 0.197425 0.108283
O33   O     O_2   0.723935 0.199389 0.198194 -0.209117
O34   O     O_2   0.597113 0.056959 0.144954 -0.197306
O35   O     O_3   0.528540 0.097565 0.225274 -0.455448
H46   H     H_    0.541167 0.170517 0.216111 0.429032
S2    S     S_3+6 0.918932 0.547629 0.207459 0.096187
O36   O     O_2   0.816974 0.532208 0.184862 -0.190188
O37   O     O_2   0.992753 0.552146 0.167418 -0.200664
O38   O     O_3   0.890922 0.443848 0.245995 -0.436355
H47   H     H_    0.811674 0.398628 0.245941 0.433807
S3    S     S_3+6 0.440973 0.364357 0.202413 0.074424
O39   O     O_2   0.445332 0.274129 0.176336 -0.215384
O40   O     O_2   0.437351 0.440644 0.164922 -0.257963
O41   O     O_3   0.550004 0.429426 0.238096 -0.382210
H48   H     H_    0.547334 0.494073 0.249448 0.352403
S4    S     S_3+6 0.692154 0.645797 0.130271 0.092333
O42   O     O_2   0.796364 0.657499 0.112569 -0.222974
O43   O     O_2   0.640519 0.546594 0.161396 -0.144302
O44   O     O_3   0.612792 0.626698 0.081429 -0.453673
H49   H     H_    0.546725 0.622035 0.095115 0.356017
S5    S     S_3+6 0.345422 0.967160 0.135209 0.085755
O45   O     O_2   0.416828 0.087878 0.132666 -0.193670
O46   O     O_2   0.396384 0.916368 0.165751 -0.212965
O47   O     O_3   0.326513 0.915854 0.078322 -0.500627
H50   H     H_    0.398993 0.933562 0.066974 0.382418
S6    S     S_3+6 0.951001 0.294969 0.136979 0.091986
O48   O     O_2   0.856121 0.194101 0.117727 -0.266238
O49   O     O_2   0.911030 0.348624 0.170646 -0.145452
O50   O     O_3   0.014456 0.380432 0.090055 -0.475772
H51   H     H_    0.958976 0.392656 0.074228 0.388784
S7    S     S_3+6 0.717633 0.583908 0.326087 -0.027697
O51   O     O_2   0.747387 0.518483 0.293369 -0.254627
O52   O     O_2   0.799077 0.633899 0.366301 -0.338152
O53   O     O_3   0.597059 0.501099 0.351175 -0.516091
H52   H     H_    0.604589 0.441946 0.366738 0.392559
S8    S     S_3+6 0.412954 0.137035 0.322558 -0.009486
O54   O     O_2   0.475670 0.230458 0.288384 -0.240120
O55   O     O_2   0.365750 0.171525 0.362882 -0.346288
O56   O     O_3   0.496686 0.099180 0.347409 -0.506840
H53   H     H_    0.553546 0.165233 0.363463 0.389313
S9    S     S_3+6 0.857334 0.257345 0.330983 -0.008393
O57   O     O_2   0.760590 0.221198 0.298825 -0.278124
O58   O     O_2   0.829630 0.180792 0.373719 -0.324005
O59   O     O_3   0.894368 0.382160 0.351965 -0.488864
H54   H     H_    0.828645 0.375976 0.366863 0.386646
S10   S     S_3+6 0.560741 0.963040 0.704367 0.028802
O60   O     O_2   0.519543 0.013787 0.740097 -0.169180
O61   O     O_2   0.659151 0.051693 0.679861 -0.248651
O62   O     O_3   0.465587 0.896084 0.661731 -0.536473
H55   H     H_    0.496710 0.933780 0.630323 0.391585
S11   S     S_3+6 0.035387 0.598589 0.705172 0.028180
O63   O     O_2   0.985485 0.506198 0.741186 -0.172230
O64   O     O_2   0.947325 0.611046 0.681384 -0.243792
O65   O     O_3   0.100061 0.568953 0.661880 -0.538967
H56   H     H_    0.061760 0.563441 0.630817 0.392187
S12   S     S_3+6 0.400894 0.438765 0.705482 0.028472
O66   O     O_2   0.491342 0.477021 0.741787 -0.170123
O67   O     O_2   0.389330 0.339584 0.680473 -0.243889
O68   O     O_3   0.431521 0.536999 0.663318 -0.541489
H57   H     H_    0.437861 0.506416 0.631840 0.391776
S13   S     S_3+6 0.730252 0.677330 0.699981 0.045234
O69   O     O_2   0.822906 0.762266 0.671029 -0.327761
O70   O     O_2   0.770989 0.625713 0.736151 -0.234800
O71   O     O_3   0.647409 0.581816 0.660567 -0.426228
H58   H     H_    0.690200 0.550871 0.646830 0.395868
S14   S     S_3+6 0.321485 0.052011 0.698434 0.044872
O72   O     O_2   0.237101 0.063243 0.670493 -0.329668
O73   O     O_2   0.375628 0.144057 0.734009 -0.231789
O74   O     O_3   0.413395 0.061419 0.657796 -0.427600
H59   H     H_    0.445075 0.135711 0.644026 0.395242
S15   S     S_3+6 0.950157 0.268836 0.698509 0.042815
O75   O     O_2   0.942588 0.174285 0.670920 -0.331338
O76   O     O_2   0.858631 0.228952 0.734245 -0.239666
O77   O     O_3   0.937450 0.350890 0.657679 -0.427926
H60   H     H_    0.864421 0.307096 0.643785 0.395043

loop_
_geom_bond_atom_site_label_1
_geom_bond_atom_site_label_2
_ccdc_geom_bond_type
C15   C18   T    
C4    H7    S    
C93   O29   S    
Cr6   O26   S    
C21   O22   A    
Cr2   O2    S    
C2    C18   S    
C51   H21   S    
C6    H9    S    
O59   H54   S    
C50   H20   S    
C27   O32   S    
S8    O54   D    
C27   C78   A    
C6    C9    S    
S9    O58   D    
O32   H45   S    
C53   C59   A    
Cr1   O13   S    
C67   H1    S    
C34   C77   S    
C84   H33   S    
Cr2   O11   S    
S6    O48   D    
O74   H59   S    
C25   C28   A    
C67   C88   S    
C33   C39   A    
C31   C43   A    
C60   C63   A    
C82   C94   S    
C10   C85   T    
Cr5   O21   S    
C35   O14   A    
C37   C40   A    
C69   C93   S    
C24   O4    A    
S8    O55   D    
C93   H6    S    
C84   C96   S    
O77   H60   S    
C81   H24   S    
C59   S8    S    
S6    O50   S    
C40   H13   S    
O28   H41   S    
C67   S10   S    
C11   C86   T    
S15   O76   D    
O71   H58   S    
S4    O43   D    
C30   C57   A    
S10   O62   S    
C33   C45   A    
S11   O65   S    
C43   H10   S    
C19   O20   A    
C80   C89   S    
C39   C42   A    
O30   H43   S    
O62   H55   S    
C83   H32   S    
C36   C76   S    
C33   C72   A    
C68   C92   S    
O68   H57   S    
C22   O24   A    
C25   O30   S    
C31   C70   A    
C66   C72   A    
C22   O5    A    
C92   O28   S    
O50   H51   S    
C59   C62   A    
S5    O45   D    
S12   O66   D    
Cr4   O20   S    
C64   C70   A    
C82   H28   S    
C44   C47   A    
O65   H56   S    
S3    O41   S    
C52   C55   A    
C46   C73   A    
S4    O44   S    
C56   C71   A    
C2    O8    A    
C34   O13   A    
C63   C66   A    
C49   H19   S    
C57   C72   A    
S14   O72   D    
C27   C30   A    
S12   O67   D    
C48   C75   A    
Cr5   O25   S    
C35   O10   A    
C80   C83   S    
C45   H12   S    
S13   O70   D    
C79   C88   S    
C5    C95   S    
C28   C55   A    
S1    O34   D    
C68   C89   S    
C32   C71   A    
C58   S7    S    
C32   C44   A    
Cr3   O9    S    
Cr5   O5    S    
C26   C77   A    
C28   C40   A    
C50   C53   A    
C58   C61   A    
Cr3   O3    S    
C24   O26   A    
C3    O2    A    
C20   O19   A    
C38   C41   A    
C21   O17   A    
S8    O56   S    
Cr6   O19   S    
C39   S3    S    
C69   H3    S    
C19   C48   S    
Cr6   O22   S    
S2    O38   S    
C54   C60   A    
S4    O42   D    
C80   H26   S    
C4    C7    S    
S15   O75   D    
O53   H52   S    
C23   O6    A    
C84   H30   S    
S13   O71   S    
C65   C74   A    
C31   C37   A    
Cr4   O24   S    
Cr1   O16   S    
C61   C64   A    
O35   H46   S    
O38   H47   S    
C14   C89   S    
C83   H29   S    
Cr6   O6    S    
C5    C8    S    
C23   O25   A    
C9    H36   S    
C91   O27   S    
C92   H5    S    
C81   H27   S    
C7    C88   S    
Cr2   O16   S    
C26   O31   S    
Cr4   O4    S    
C64   C73   A    
C49   C52   A    
C20   O21   A    
Cr3   O15   S    
C67   C91   S    
S10   O60   D    
Cr1   O10   S    
C49   C76   A    
Cr4   O23   S    
C83   C95   S    
C6    H39   S    
S11   O64   D    
C62   H17   S    
O44   H49   S    
C52   C58   A    
C91   H4    S    
C4    C94   S    
C81   C90   S    
C91   C94   S    
Cr6   O23   S    
O27   H40   S    
C74   S5    S    
C44   H11   S    
O41   H48   S    
C93   C96   S    
C32   C38   A    
C6    C96   S    
Cr3   O16   S    
C23   C85   S    
C2    O1    A    
Cr1   O7    S    
O56   H53   S    
S14   O74   S    
S3    O39   D    
S12   O68   S    
C92   C95   S    
C41   H14   S    
C69   C90   S    
C38   S2    S    
C50   C77   A    
C81   C84   S    
S1    O33   D    
C36   O15   A    
C5    H38   S    
C45   C48   A    
C11   C95   S    
C37   S1    S    
C79   H25   S    
Cr2   O14   S    
O31   H44   S    
C3    O9    A    
S3    O40   D    
C62   C65   A    
C29   C41   A    
C61   H16   S    
C1    C17   S    
C8    H35   S    
Cr5   O23   S    
C36   O11   A    
C68   H2    S    
C47   C74   A    
C22   C87   S    
C9    C90   S    
C8    S14   S    
C79   C82   S    
S1    O35   S    
C42   H15   S    
C29   C56   A    
S7    O53   S    
C79   H22   S    
C35   C78   S    
S7    O52   D    
C25   C76   A    
C19   O18   A    
C51   C54   A    
C82   H31   S    
C60   S9    S    
C9    S15   S    
C69   S12   S    
C51   C78   A    
C7    H34   S    
C12   C87   T    
C1    O3    A    
C65   C71   A    
C4    H37   S    
C63   H18   S    
C75   S6    S    
C15   C90   S    
S2    O36   D    
S15   O77   S    
S5    O47   S    
C66   C75   A    
Cr3   O12   S    
C13   C88   S    
S13   O69   D    
S10   O61   D    
S14   O73   D    
S9    O57   D    
C30   C42   A    
C73   S4    S    
C80   H23   S    
S11   O63   D    
C43   C46   A    
C53   C56   A    
Cr1   O1    S    
C34   O12   A    
C55   C70   A    
S2    O37   D    
O29   H42   S    
Cr4   O17   S    
C7    S13   S    
Cr5   O18   S    
C26   C29   A    
S5    O46   D    
S7    O51   D    
C5    H8    S    
C13   C16   T    
C10   C94   S    
C12   C96   S    
C1    O7    A    
C8    C89   S    
O47   H50   S    
C21   C47   S    
S6    O49   D    
C24   C86   S    
C54   C57   A    
S9    O59   S    
C20   C46   S    
C3    C16   S    
C68   S11   S    
Cr2   O8    S    
C14   C17   T    
