data_mof_unit_66857.cif
_audit_creation_date              2013-03-05T15:57:21-0500
_audit_creation_method            fapswitch 2.2
_symmetry_space_group_name_H-M    P1
_symmetry_Int_Tables_number       1
_space_group_crystal_system       triclinic
_cell_length_a                    17.417042
_cell_length_b                    19.07176
_cell_length_c                    8.523993
_cell_angle_alpha                 90.0
_cell_angle_beta                  101.601771
_cell_angle_gamma                 90.04395
_cell_volume                      2773.59580005

loop_
_atom_site_label
_atom_site_type_symbol
_atom_site_description
_atom_site_fract_x
_atom_site_fract_y
_atom_site_fract_z
_atom_type_partial_charge
P1    P     P_3+3 0.834140 0.419320 0.003900 1.065220
P2    P     P_3+3 0.834140 0.580680 0.503900 1.091997
P3    P     P_3+3 0.334140 0.919320 0.003900 1.092708
P4    P     P_3+3 0.334140 0.080680 0.503900 1.065201
O1    O     O_2   0.841960 0.394640 0.833410 -0.451775
O2    O     O_2   0.841960 0.605360 0.333410 -0.401349
O3    O     O_2   0.341960 0.894640 0.833410 -0.400604
O4    O     O_2   0.341960 0.105360 0.333410 -0.451533
O5    O     O_3   0.907950 0.463080 0.102990 -0.418098
O6    O     O_3   0.907950 0.536920 0.602990 -0.429433
O7    O     O_3   0.407950 0.963080 0.102990 -0.429596
O8    O     O_3   0.407950 0.036920 0.602990 -0.417975
O9    O     O_3   0.972780 0.329600 0.629720 -0.372962
O10   O     O_3   0.972780 0.670400 0.129720 -0.380565
O11   O     O_3   0.472780 0.829600 0.629720 -0.384116
O12   O     O_3   0.472780 0.170400 0.129720 -0.372565
O13   O     O_2   0.831335 0.288872 0.653013 -0.415066
O14   O     O_2   0.838952 0.730757 0.158913 -0.354253
O15   O     O_2   0.339129 0.768748 0.658628 -0.349475
O16   O     O_2   0.331247 0.210977 0.152852 -0.416166
O17   O     O_3   0.747475 0.467413 0.976693 -0.623156
O18   O     O_3   0.748846 0.530186 0.474515 -0.619081
O19   O     O_3   0.248603 0.969375 0.973991 -0.618824
O20   O     O_3   0.247448 0.032535 0.476891 -0.623386
O21   O     O_3   0.933105 0.191416 0.674495 -0.487538
O22   O     O_3   0.950662 0.815779 0.114704 -0.506091
O23   O     O_3   0.450763 0.683714 0.613995 -0.498320
O24   O     O_3   0.432947 0.308606 0.174418 -0.488822
C1    C     C_3   0.027748 0.101193 0.711831 0.668210
C2    C     C_3   0.055654 0.890330 0.060087 0.610355
C3    C     C_3   0.556234 0.609426 0.560119 0.606420
C4    C     C_3   0.527428 0.398987 0.211865 0.670788
H1    H     H_    0.612061 0.602833 0.643920 0.018731
H2    H     H_    0.563596 0.372598 0.314880 0.096567
H3    H     H_    0.064250 0.127451 0.814845 0.095248
H4    H     H_    0.111268 0.897356 0.144365 0.003633
P5    P     P_3+3 0.165830 0.418670 0.685610 0.976271
P6    P     P_3+3 0.165830 0.581330 0.185610 0.982653
P7    P     P_3+3 0.665830 0.918670 0.685610 0.982849
P8    P     P_3+3 0.665830 0.081330 0.185610 0.976424
P9    P     P_3+3 0.110414 0.275386 0.111394 1.058684
P10   P     P_3+3 0.104002 0.730806 0.617445 1.098896
P11   P     P_3+3 0.604012 0.769276 0.117450 1.092607
P12   P     P_3+3 0.610205 0.224956 0.611445 1.057755
O25   O     O_2   0.157990 0.394030 0.856030 -0.431434
O26   O     O_2   0.157990 0.605970 0.356030 -0.405634
O27   O     O_2   0.657990 0.894030 0.856030 -0.404307
O28   O     O_2   0.657990 0.105970 0.356030 -0.431995
O29   O     O_3   0.027110 0.329490 0.059550 -0.464714
O30   O     O_3   0.027110 0.670510 0.559550 -0.437907
O31   O     O_3   0.527110 0.829490 0.059550 -0.438579
O32   O     O_3   0.527110 0.170510 0.559550 -0.465174
O33   O     O_2   0.163469 0.282620 0.987896 -0.413539
O34   O     O_2   0.167292 0.711086 0.522370 -0.363803
O35   O     O_2   0.667368 0.789105 0.022570 -0.360687
O36   O     O_2   0.663457 0.217519 0.488365 -0.414471
O37   O     O_3   0.239878 0.480358 0.744241 -0.667382
O38   O     O_3   0.238575 0.519335 0.243990 -0.670270
O39   O     O_3   0.738715 0.980651 0.744021 -0.669408
O40   O     O_3   0.739861 0.019731 0.243973 -0.666436
O41   O     O_3   0.074661 0.191929 0.066193 -0.606813
O42   O     O_3   0.073771 0.812492 0.534898 -0.566870
O43   O     O_3   0.573794 0.687606 0.034631 -0.564082
O44   O     O_3   0.574292 0.308373 0.565849 -0.606444
C5    C     C_3   0.021093 0.175325 0.162562 0.670384
C6    C     C_3   0.998370 0.829970 0.558926 0.669772
C7    C     C_3   0.498456 0.669954 0.058881 0.687211
C8    C     C_3   0.521052 0.325062 0.662757 0.673846
C9    C     C_3   0.045307 0.104754 0.236868 -0.281545
C10   C     C_3   0.980511 0.904480 0.499120 -0.229935
C11   C     C_3   0.480661 0.595406 0.999127 -0.222409
C12   C     C_3   0.546455 0.394779 0.740538 -0.279668
H5    H     H_    0.424671 0.591040 0.911782 0.175945
H6    H     H_    0.498785 0.419962 0.788072 0.157234
H7    H     H_    0.997879 0.080447 0.287100 0.155260
H8    H     H_    0.924211 0.908783 0.412820 0.176565
C13   C     C_3   0.257473 0.489026 0.108532 0.631505
C14   C     C_3   0.260858 0.509834 0.609253 0.534559
C15   C     C_3   0.761053 0.990685 0.108780 0.538134
C16   C     C_3   0.757548 0.011120 0.608637 0.631201
C17   C     C_3   0.323171 0.530218 0.060485 -0.310268
C18   C     C_3   0.325994 0.467719 0.562184 -0.173029
C19   C     C_3   0.826183 0.033249 0.062448 -0.176229
C20   C     C_3   0.823240 0.970107 0.560323 -0.309642
H9    H     H_    0.361374 0.552981 0.168254 0.158286
H10   H     H_    0.371990 0.456756 0.669394 0.156300
H11   H     H_    0.872355 0.043622 0.169881 0.155470
H12   H     H_    0.861501 0.947338 0.667924 0.159418
H13   H     H_    0.356955 0.496164 0.993187 0.160895
H14   H     H_    0.350564 0.496653 0.471388 0.244431
H15   H     H_    0.850507 0.004877 0.970582 0.245810
H16   H     H_    0.857016 0.004265 0.493124 0.160922
H17   H     H_    0.298543 0.574798 0.983482 0.079126
H18   H     H_    0.302440 0.417962 0.506637 0.104037
H19   H     H_    0.802796 0.083382 0.008594 0.103003
H20   H     H_    0.798562 0.925548 0.483164 0.079462
Ba1   Ba    Ba6+2 1.000000 0.447380 0.844850 1.852265
Ba2   Ba    Ba6+2 0.000000 0.552620 0.344850 1.852665
Ba3   Ba    Ba6+2 0.500000 0.947380 0.844850 1.845145
Ba4   Ba    Ba6+2 0.500000 0.052620 0.344850 1.849069
C21   C     C_3   0.753101 0.532684 0.905739 0.546461
C22   C     C_3   0.754985 0.463487 0.409107 0.570392
C23   C     C_3   0.254580 0.036498 0.910266 0.570106
C24   C     C_3   0.252937 0.967285 0.405783 0.549405
C25   C     C_3   0.682600 0.573722 0.928848 -0.253662
C26   C     C_3   0.699938 0.416048 0.476268 -0.272713
C27   C     C_3   0.199715 0.083321 0.979529 -0.273988
C28   C     C_3   0.182300 0.926319 0.428778 -0.253382
H21   H     H_    0.630412 0.544741 0.866941 0.136810
H22   H     H_    0.642788 0.442686 0.464900 0.176017
H23   H     H_    0.142348 0.056843 0.965965 0.174203
H24   H     H_    0.130154 0.955346 0.366917 0.136311
H25   H     H_    0.684760 0.627576 0.881445 0.129586
H26   H     H_    0.694247 0.364694 0.413440 0.118534
H27   H     H_    0.194508 0.135394 0.919704 0.119780
H28   H     H_    0.184350 0.872466 0.381336 0.129284
O45   O     O_3   0.092100 0.536880 0.086720 -0.496308
O46   O     O_3   0.092100 0.463120 0.586720 -0.483400
O47   O     O_3   0.592100 0.036880 0.086720 -0.483132
O48   O     O_3   0.592100 0.963120 0.586720 -0.496172
P13   P     P_3+3 0.903776 0.736326 0.058989 1.191608
P14   P     P_3+3 0.898509 0.266996 0.569788 1.159621
P15   P     P_3+3 0.398478 0.232933 0.069782 1.160184
P16   P     P_3+3 0.404014 0.763348 0.558832 1.175786
C29   C     C_3   0.988622 0.158269 0.600951 0.563063
C30   C     C_3   0.024044 0.815486 0.067179 0.674739
C31   C     C_3   0.524273 0.684173 0.567073 0.514057
C32   C     C_3   0.488233 0.342031 0.100738 0.558726
H29   H     H_    0.958603 0.135760 0.484924 -0.050504
H30   H     H_    0.021042 0.789577 0.949240 -0.199845
H31   H     H_    0.521381 0.710129 0.449240 0.009831
H32   H     H_    0.458051 0.364724 0.985220 -0.047356
H33   H     H_    0.479620 0.560383 0.100619 0.184925
H34   H     H_    0.598117 0.386672 0.838098 0.128137
H35   H     H_    0.099004 0.110870 0.331577 0.127691
H36   H     H_    0.980028 0.939665 0.600595 0.186720
C33   C     C_R   0.146546 0.672706 0.922079 -0.179194
C34   C     C_R   0.154910 0.333266 0.416078 -0.144791
C35   C     C_R   0.654468 0.166953 0.916192 -0.144164
C36   C     C_R   0.646578 0.827244 0.422180 -0.193815
C37   C     C_R   0.874098 0.312180 0.244840 -0.146951
C38   C     C_R   0.868485 0.681891 0.748146 -0.196316
C39   C     C_R   0.368590 0.818127 0.248202 -0.201219
C40   C     C_R   0.374019 0.187779 0.744940 -0.148142
C41   C     C_R   0.797187 0.211033 0.293470 -0.102179
C42   C     C_R   0.798972 0.788928 0.788391 -0.086691
C43   C     C_R   0.299064 0.710973 0.288189 -0.081562
C44   C     C_R   0.297336 0.289009 0.793489 -0.101815
C45   C     C_R   0.856558 0.260100 0.349481 -0.018775
C46   C     C_R   0.855192 0.737245 0.845756 -0.015499
C47   C     C_R   0.355320 0.762671 0.345660 -0.032924
C48   C     C_R   0.356564 0.239880 0.849525 -0.018034
C49   C     C_R   0.822434 0.328059 0.100098 0.051910
C50   C     C_R   0.818648 0.668917 0.601533 0.061722
C51   C     C_R   0.318756 0.831068 0.101554 0.067350
C52   C     C_R   0.322448 0.171974 0.600034 0.050969
C53   C     C_R   0.763310 0.275149 0.039450 0.042877
C54   C     C_R   0.759682 0.721923 0.540652 0.015936
C55   C     C_R   0.259756 0.778051 0.040645 0.014228
C56   C     C_R   0.263455 0.224954 0.539316 0.042957
C57   C     C_R   0.250959 0.716117 0.135124 0.008958
C58   C     C_R   0.251648 0.284925 0.637329 0.035382
C59   C     C_R   0.751427 0.215186 0.137385 0.034187
C60   C     C_R   0.750909 0.783838 0.635240 0.009948
C61   C     C_R   0.191740 0.663326 0.075575 0.025693
C62   C     C_R   0.193273 0.337934 0.575969 0.026692
C63   C     C_R   0.692961 0.162211 0.076017 0.026050
C64   C     C_R   0.691744 0.836635 0.575695 0.030701
C65   C     C_R   0.156109 0.730694 0.828394 -0.000901
C66   C     C_R   0.167259 0.277385 0.319430 0.032841
C67   C     C_R   0.666930 0.222849 0.819581 0.031983
C68   C     C_R   0.656104 0.769295 0.328414 -0.020780
C69   C     C_R   0.211323 0.783181 0.887154 -0.018473
C70   C     C_R   0.218211 0.222229 0.382070 -0.020059
C71   C     C_R   0.718070 0.277917 0.882246 -0.020568
C72   C     C_R   0.711285 0.716827 0.387093 -0.018922
H37   H     H_    0.103701 0.633296 0.872630 0.022084
H38   H     H_    0.113610 0.373651 0.365514 0.022934
H39   H     H_    0.613078 0.126582 0.865611 0.023671
H40   H     H_    0.603777 0.866635 0.372755 0.023711
Cl1   Cl    Cl    0.067862 0.214614 0.577971 -0.836098
Cl2   Cl    Cl    0.092235 0.769870 0.213254 -0.705990
Cl3   Cl    Cl    0.592144 0.730043 0.713422 -0.707240
Cl4   Cl    Cl    0.567301 0.285928 0.076958 -0.838484
H41   H     H_    0.753118 0.526511 0.776548 0.002527
H42   H     H_    0.737491 0.466649 0.277350 0.106999
H43   H     H_    0.236733 0.034036 0.778394 0.107233
H44   H     H_    0.252968 0.973504 0.276595 0.001349
Cl5   Cl    Cl    0.833940 0.582446 0.000093 -0.710892
Cl6   Cl    Cl    0.847347 0.423444 0.457278 -0.728311
Cl7   Cl    Cl    0.346967 0.076608 0.958076 -0.727926
Cl8   Cl    Cl    0.333666 0.917417 0.500094 -0.708166
H45   H     H_    0.680807 0.577536 0.058243 0.195349
H46   H     H_    0.721863 0.407294 0.605916 0.118341
H47   H     H_    0.221448 0.090560 0.109847 0.117828
H48   H     H_    0.180499 0.922501 0.558172 0.195465
Cl9   Cl    Cl    0.582850 0.588130 0.377130 -0.737983
Cl10  Cl    Cl    0.586615 0.453392 0.116252 -0.776015
Cl11  Cl    Cl    0.086540 0.046863 0.615268 -0.775429
Cl12  Cl    Cl    0.082545 0.911719 0.877329 -0.726147
H49   H     H_    0.292306 0.667514 0.365190 0.145912
H50   H     H_    0.287494 0.330369 0.873006 0.135851
H51   H     H_    0.787298 0.169671 0.372974 0.135857
H52   H     H_    0.792200 0.832323 0.865511 0.146615
H53   H     H_    0.722712 0.322035 0.806007 0.068893
H54   H     H_    0.717103 0.673140 0.309745 0.119559
H55   H     H_    0.217132 0.826908 0.809894 0.118190
H56   H     H_    0.222735 0.178100 0.305794 0.069406
H57   H     H_    0.923589 0.346422 0.285897 0.082624
H58   H     H_    0.914747 0.644940 0.793513 0.062784
H59   H     H_    0.414840 0.855139 0.293676 0.061219
H60   H     H_    0.423366 0.153462 0.786140 0.082707
Cl13  Cl    Cl    0.961437 0.049426 0.791272 -0.574230
Cl14  Cl    Cl    0.989184 0.952645 0.106017 -0.684157
Cl15  Cl    Cl    0.490578 0.546444 0.607059 -0.675981
Cl16  Cl    Cl    0.461092 0.450817 0.290663 -0.570096
Cl17  Cl    Cl    0.926665 0.172606 0.038158 -0.653757
Cl18  Cl    Cl    0.923459 0.776202 0.451929 -0.644556
Cl19  Cl    Cl    0.423426 0.723575 0.952077 -0.643263
Cl20  Cl    Cl    0.426768 0.329228 0.538876 -0.653028
H61   H     H_    0.017536 0.213238 0.259776 -0.051511
H62   H     H_    0.994197 0.825350 0.686095 -0.016519
H63   H     H_    0.494403 0.674529 0.186131 -0.052837
H64   H     H_    0.516460 0.286496 0.758034 -0.052582
H65   H     H_    0.061150 0.070297 0.144032 0.196556
H66   H     H_    0.024732 0.923652 0.434720 0.184125
H67   H     H_    0.525290 0.576057 0.936059 0.183808
H68   H     H_    0.565696 0.429525 0.652485 0.190255
Cl21  Cl    Cl    0.284868 0.400738 0.156902 -0.651453
Cl22  Cl    Cl    0.293604 0.596928 0.657169 -0.654272
Cl23  Cl    Cl    0.794018 0.903625 0.156038 -0.652178
Cl24  Cl    Cl    0.784942 0.099420 0.657388 -0.651494
H69   H     H_    0.207583 0.487917 0.006921 0.064674
H70   H     H_    0.211046 0.512109 0.507649 0.077059
H71   H     H_    0.711286 0.988383 0.006980 0.076407
H72   H     H_    0.707636 0.012214 0.507073 0.064762

loop_
_geom_bond_atom_site_label_1
_geom_bond_atom_site_label_2
_geom_bond_distance
_ccdc_geom_bond_type
C36   C64   1.396068 A    
P6    C61   1.923021 S    
C2    Cl12  1.762323 S    
C2    C30   1.535072 S    
O40   C15   1.393733 S    
P1    O17   1.742075 S    
O5    Ba2   2.898824 S    
C18   H18   1.101944 S    
C1    C29   1.511511 S    
C14   C18   1.509187 S    
C34   C66   1.390106 A    
C31   Cl3   1.767528 S    
C16   H72   1.096788 S    
C19   H11   1.108153 S    
C32   Cl4   1.788000 S    
P9    O41   1.723826 S    
C28   H28   1.107040 S    
P4    O4    1.559350 D    
C37   C49   1.406236 A    
C5    Cl17  1.769311 S    
C33   C61   1.396239 A    
Ba1   Ba2   4.710956 S    
O24   P15   1.738427 S    
C44   H50   1.076092 S    
C26   H46   1.106953 S    
C8    H64   1.110405 S    
P12   O44   1.725408 S    
C25   H45   1.112048 S    
C68   C72   1.408287 A    
C22   H42   1.104631 S    
O3    Ba3   2.913035 S    
C26   H26   1.111024 S    
C57   C61   1.457056 A    
P1    O1    1.559412 D    
O44   C8    1.397165 S    
C25   H25   1.107094 S    
C8    Cl20  1.766557 S    
O12   P15   1.759134 S    
C50   C54   1.460564 A    
P3    O3    1.559412 D    
C11   H67   1.094475 S    
O22   C30   1.416308 S    
P4    O20   1.741841 S    
C14   H70   1.096578 S    
C3    Cl15  1.758561 S    
C30   H30   1.111923 S    
P7    O48   1.626211 S    
C24   Cl8   1.753626 S    
P3    Ba3   3.470220 S    
C27   H47   1.107740 S    
Ba1   O46   2.987219 S    
O27   Ba3   2.918068 S    
P13   C46   1.844291 S    
C20   H20   1.106917 S    
C72   H54   1.079895 S    
P7    C64   1.923672 S    
O21   C29   1.404410 S    
O16   P15   1.542922 D    
C4    Cl10  1.771938 S    
O38   C13   1.388818 S    
C36   H40   1.082652 S    
Ba3   O48   2.987219 S    
C58   C62   1.454998 A    
P6    O45   1.625183 S    
C12   H34   1.106504 S    
P9    O29   1.763399 S    
O19   C23   1.402589 S    
P5    O46   1.626211 S    
C33   H37   1.082640 S    
C1    Cl11  1.772101 S    
C37   C45   1.408761 A    
P2    O18   1.745051 S    
C42   H52   1.078120 S    
C3    H1    1.091932 S    
C35   C67   1.390412 A    
C1    Cl13  1.754987 S    
Ba4   O48   2.900230 S    
O22   P13   1.740873 S    
C3    C31   1.536271 S    
C55   C69   1.410379 A    
P4    O8    1.620955 S    
O21   P14   1.738527 S    
C53   C59   1.454874 A    
C33   C65   1.393469 A    
C21   Cl5   1.752827 S    
C35   H39   1.082830 S    
C6    H62   1.104415 S    
P5    Ba1   3.473272 S    
Ba1   O45   2.898781 S    
C17   H13   1.110605 S    
P12   O32   1.763153 S    
C39   C47   1.392470 A    
O26   Ba2   2.916594 S    
P7    O39   1.732095 S    
C9    H35   1.111841 S    
O10   P13   1.760592 S    
P6    O38   1.731935 S    
C70   H56   1.076084 S    
C28   H48   1.112074 S    
P2    O2    1.559350 D    
O23   C31   1.416063 S    
C16   Cl24  1.776321 S    
C21   H41   1.107554 S    
C32   H32   1.106974 S    
C5    H61   1.110876 S    
O9    Ba1   2.877829 S    
O10   Ba2   2.878397 S    
P6    Ba2   3.472574 S    
O31   Ba3   2.877751 S    
P5    O37   1.742309 S    
C24   H44   1.107670 S    
O43   C7    1.409346 S    
O15   P16   1.548614 D    
O30   Ba2   2.877184 S    
C21   C25   1.502634 S    
P6    O26   1.558710 D    
O11   P16   1.761456 S    
O42   C6    1.409460 S    
C51   C55   1.460049 A    
C16   C20   1.510437 S    
C12   H68   1.102547 S    
P14   C45   1.877661 S    
C10   H66   1.094472 S    
C60   C64   1.457614 A    
O28   Ba4   2.916594 S    
C23   H43   1.105363 S    
C40   H60   1.081589 S    
C12   H6    1.104585 S    
C43   C57   1.405116 A    
P1    Ba1   3.470220 S    
C11   H5    1.104575 S    
C38   C46   1.392204 A    
O12   Ba4   2.878397 S    
C39   H59   1.082107 S    
C41   C59   1.408974 A    
P9    O33   1.540184 D    
P3    O19   1.745066 S    
C18   H10   1.107439 S    
C42   C60   1.405251 A    
O32   Ba4   2.877184 S    
C28   H24   1.103420 S    
O7    Ba4   2.898824 S    
O20   C24   1.395927 S    
C56   C58   1.455304 A    
C40   C52   1.405931 A    
O6    Ba1   2.900272 S    
C59   C63   1.454489 A    
P8    Ba4   3.472574 S    
P10   C65   1.844048 S    
O41   C5    1.397615 S    
C2    Cl14  1.757963 S    
C17   H17   1.106803 S    
C27   H23   1.104288 S    
P12   O36   1.540333 D    
P7    Ba3   3.473272 S    
Ba3   Ba4   4.710956 S    
C7    H63   1.104509 S    
C43   H49   1.078217 S    
C8    C12   1.511407 S    
C19   H19   1.102821 S    
P8    O47   1.625183 S    
C13   H69   1.096788 S    
C20   H12   1.108369 S    
C37   H57   1.081564 S    
P1    O5    1.619939 S    
P10   O42   1.746890 S    
C69   H55   1.079851 S    
Ba4   O47   2.987467 S    
C18   H14   1.104307 S    
C38   C50   1.392779 A    
C35   C63   1.395132 A    
C29   Cl1   1.790054 S    
C15   Cl23  1.776866 S    
C53   C71   1.412322 A    
C6    Cl18  1.762089 S    
C54   C72   1.410454 A    
P4    C52   1.952481 S    
P16   C47   1.844284 S    
P10   O30   1.758204 S    
C10   H36   1.096124 S    
P4    Ba4   3.470903 S    
C10   H8    1.104267 S    
C30   Cl2   1.767652 S    
C23   Cl7   1.753527 S    
P3    C51   1.920042 S    
C38   H58   1.082112 S    
C9    H7    1.105565 S    
P5    O25   1.558647 D    
C34   H38   1.082854 S    
O2    Ba2   2.914493 S    
C24   C28   1.502659 S    
O23   P16   1.743149 S    
Ba2   O45   2.987467 S    
P7    O27   1.558647 D    
C26   H22   1.104652 S    
P11   O35   1.540474 D    
P8    O28   1.558710 D    
C25   H21   1.102940 S    
P15   C48   1.877298 S    
C65   C69   1.408017 A    
C56   C70   1.412567 A    
O37   C14   1.393664 S    
C44   C48   1.404823 A    
O1    Ba1   2.913035 S    
C9    H65   1.105587 S    
O39   C16   1.388880 S    
C11   H33   1.096000 S    
P11   C68   1.844097 S    
O8    Ba3   2.900272 S    
C42   C46   1.406542 A    
P5    C62   1.911446 S    
C66   C70   1.410678 A    
C54   C60   1.455188 A    
C14   Cl22  1.776526 S    
Ba3   O47   2.898781 S    
C19   H15   1.104198 S    
P9    C66   1.849341 S    
C1    H3    1.095893 S    
C13   Cl21  1.776243 S    
O18   C22   1.401650 S    
C2    H4    1.091884 S    
C39   C51   1.393117 A    
C34   C62   1.394824 A    
C44   C58   1.408893 A    
C4    C32   1.510643 S    
C3    Cl9   1.761803 S    
C7    Cl19  1.762357 S    
C55   C57   1.454863 A    
O4    Ba4   2.914493 S    
P12   C67   1.849425 S    
C15   H71   1.097107 S    
O17   C21   1.395949 S    
C40   C48   1.408541 A    
O25   Ba1   2.918068 S    
P2    C50   1.920514 S    
P10   O34   1.540547 D    
C15   C19   1.510132 S    
O9    P14   1.758320 S    
P11   O31   1.758646 S    
C6    C10   1.520826 S    
O11   Ba3   2.877829 S    
C67   C71   1.410295 A    
C5    C9    1.511272 S    
C43   C47   1.406280 A    
Ba2   O46   2.900230 S    
C22   Cl6   1.753813 S    
C27   H27   1.111795 S    
C7    C11   1.520771 S    
C49   C53   1.459524 A    
C52   C56   1.460223 A    
C31   H31   1.111801 S    
P1    C49   1.951926 S    
P3    O7    1.619939 S    
O14   P13   1.548587 D    
O29   Ba1   2.877751 S    
P8    C63   1.910971 S    
C29   H29   1.107911 S    
O13   P14   1.542973 D    
C4    Cl16  1.754155 S    
C41   C45   1.404601 A    
P2    Ba2   3.470903 S    
C36   C68   1.393348 A    
C13   C17   1.510419 S    
P11   O43   1.746641 S    
C22   C26   1.511596 S    
C41   H51   1.076072 S    
P8    O40   1.741996 S    
C71   H53   1.076023 S    
C23   C27   1.512401 S    
C20   H16   1.110634 S    
C17   H9    1.108497 S    
O24   C32   1.403679 S    
C4    H2    1.095068 S    
P2    O6    1.620955 S    
