data_mof_unit_35632.cif
_audit_creation_date              2012-12-11T14:48:42-0500
_audit_creation_method            fapswitch 2.2
_symmetry_space_group_name_H-M    P1
_symmetry_Int_Tables_number       1
_space_group_crystal_system       triclinic
_cell_length_a                    7.235149
_cell_length_b                    19.112893
_cell_length_c                    18.983812
_cell_angle_alpha                 90.000889
_cell_angle_beta                  87.46212
_cell_angle_gamma                 90.002862
_cell_volume                      2622.59453209

loop_
_atom_site_label
_atom_site_type_symbol
_atom_type_description
_atom_site_fract_x
_atom_site_fract_y
_atom_site_fract_z
_atom_type_partial_charge
O1    O     O_R   0.350610 0.187000 0.656530 -0.544565
O2    O     O_R   0.649390 0.813000 0.343470 -0.544559
O3    O     O_R   0.149390 0.687000 0.343470 -0.544919
O4    O     O_R   0.850610 0.313000 0.656530 -0.544905
O5    O     O_R   0.655920 0.179060 0.799470 -0.529967
O6    O     O_R   0.344080 0.820940 0.200530 -0.529970
O7    O     O_R   0.844080 0.679060 0.200530 -0.529946
O8    O     O_R   0.155920 0.320940 0.799470 -0.529957
O9    O     O_R   0.826150 0.314000 0.799910 -0.535604
O10   O     O_R   0.173850 0.686000 0.200090 -0.535614
O11   O     O_R   0.673850 0.814000 0.200090 -0.535656
O12   O     O_R   0.326150 0.186000 0.799910 -0.535661
C1    C     C_R   0.485409 0.161299 0.822651 0.718253
C2    C     C_R   0.514591 0.838702 0.177349 0.718268
C3    C     C_R   0.014581 0.661284 0.177361 0.717952
C4    C     C_R   0.985419 0.338716 0.822638 0.718028
O13   O     O_R   0.680230 0.178680 0.657050 -0.525683
O14   O     O_R   0.319770 0.821320 0.342950 -0.525687
O15   O     O_R   0.819770 0.678680 0.342950 -0.525284
O16   O     O_R   0.180230 0.321320 0.657050 -0.525310
C5    C     C_R   0.514350 0.162615 0.633580 0.735209
C6    C     C_R   0.485650 0.837385 0.366420 0.735223
C7    C     C_R   0.985656 0.662624 0.366430 0.735335
C8    C     C_R   0.014345 0.337375 0.633570 0.735395
O17   O     O_3   0.504860 0.294770 0.728200 -0.376721
O18   O     O_3   0.495140 0.705230 0.271800 -0.376712
O19   O     O_3   0.995140 0.794770 0.271800 -0.376768
O20   O     O_3   0.004860 0.205230 0.728200 -0.376771
V1    V     V_3+5 0.779710 0.242290 0.728230 1.434040
V2    V     V_3+5 0.220290 0.757710 0.271770 1.434023
V3    V     V_3+5 0.720290 0.742290 0.271770 1.434557
V4    V     V_3+5 0.279710 0.257710 0.728230 1.434509
C9    C     C_1   0.027998 0.608336 0.121775 -0.181178
C10   C     C_1   0.972002 0.391665 0.878225 -0.181190
C11   C     C_1   0.471923 0.108479 0.878360 -0.181201
C12   C     C_1   0.528077 0.891521 0.121640 -0.181209
C13   C     C_2   0.068159 0.509998 0.020951 -0.147550
C14   C     C_2   0.931840 0.490002 0.979050 -0.147549
C15   C     C_2   0.431189 0.010668 0.979681 -0.147518
C16   C     C_2   0.568811 0.989332 0.020319 -0.147515
C17   C     C_1   0.957719 0.436142 0.924378 0.005806
C18   C     C_1   0.042281 0.563858 0.075622 0.005817
C19   C     C_1   0.542551 0.935813 0.075312 0.005749
C20   C     C_1   0.457449 0.064187 0.924688 0.005751
H1    H     H_    0.796530 0.514340 0.985514 0.135561
H2    H     H_    0.203469 0.485659 0.014487 0.135561
H3    H     H_    0.705527 0.012255 0.012523 0.135466
H4    H     H_    0.294473 0.987745 0.987477 0.135466
C21   C     C_R   0.008533 0.388684 0.575038 -0.149532
C22   C     C_R   0.991477 0.611314 0.424961 -0.149501
C23   C     C_R   0.491353 0.888686 0.424963 -0.149564
C24   C     C_R   0.508640 0.111312 0.575040 -0.149537
H5    H     H_    0.121385 0.598424 0.594359 0.143969
H6    H     H_    0.878751 0.401563 0.405623 0.143993
H7    H     H_    0.380998 0.098555 0.405343 0.144050
H8    H     H_    0.618949 0.901438 0.594665 0.144053
C25   C     C_R   0.072311 0.581371 0.544358 -0.186483
C26   C     C_R   0.927761 0.418621 0.455632 -0.186531
C27   C     C_R   0.429199 0.081473 0.455463 -0.186874
C28   C     C_R   0.570770 0.918522 0.544543 -0.186882
C29   C     C_R   0.049006 0.632241 0.492067 0.238353
C30   C     C_R   0.951062 0.367752 0.507925 0.238364
C31   C     C_R   0.452364 0.132335 0.507791 0.238679
C32   C     C_R   0.547623 0.867661 0.492211 0.238701
C33   C     C_R   0.946940 0.540516 0.412745 0.223215
C34   C     C_R   0.053045 0.459482 0.587256 0.223200
C35   C     C_R   0.552194 0.040449 0.587374 0.223269
C36   C     C_R   0.447782 0.959548 0.412631 0.223257
C37   C     C_R   0.967212 0.489732 0.466919 -0.012322
C38   C     C_R   0.032811 0.510264 0.533077 -0.012267
C39   C     C_R   0.532197 0.989688 0.533158 -0.012186
C40   C     C_R   0.467780 0.010308 0.466848 -0.012159
N1    N     N_2   0.117073 0.478447 0.654624 -0.521169
H9    H     H_    0.232602 0.510035 0.653522 0.252228
C41   C     C_3   0.973411 0.499926 0.705491 -0.560676
H10   H     H_    0.907200 0.549086 0.688198 0.189846
H11   H     H_    0.034580 0.509086 0.757308 0.198382
H12   H     H_    0.866618 0.458406 0.712204 0.202271
N2    N     N_2   0.882815 0.521555 0.345390 -0.521150
H13   H     H_    0.767341 0.489937 0.346511 0.252232
C42   C     C_3   0.026422 0.500131 0.294476 -0.560638
H14   H     H_    0.092966 0.451041 0.311782 0.189853
H15   H     H_    0.132973 0.541725 0.287676 0.202243
H16   H     H_    0.965126 0.490876 0.242699 0.198357
N3    N     N_2   0.384849 0.978589 0.345119 -0.521448
H17   H     H_    0.269630 0.010327 0.345987 0.252235
C43   C     C_3   0.529354 0.999865 0.294511 -0.560845
H18   H     H_    0.595781 0.048944 0.311914 0.189879
H19   H     H_    0.468975 0.009088 0.242562 0.198346
H20   H     H_    0.635827 0.958206 0.288018 0.202596
N4    N     N_2   0.615089 0.021406 0.654891 -0.521451
H21   H     H_    0.730263 0.989644 0.654032 0.252229
C44   C     C_3   0.470543 0.000167 0.705499 -0.560830
H22   H     H_    0.403962 0.951124 0.688082 0.189896
H23   H     H_    0.364201 0.041869 0.712016 0.202603
H24   H     H_    0.530915 0.990896 0.757443 0.198323
N5    N     N_2   0.917135 0.295658 0.492202 -0.514690
H25   H     H_    0.922071 0.260728 0.533359 0.258492
C45   C     C_3   0.005312 0.269017 0.427598 -0.559185
H26   H     H_    0.005120 0.210872 0.428223 0.200281
H27   H     H_    0.150466 0.287539 0.421932 0.221669
H28   H     H_    0.928636 0.286289 0.381356 0.187787
N6    N     N_2   0.082979 0.704332 0.507788 -0.514690
H29   H     H_    0.078070 0.739260 0.466629 0.258513
C46   C     C_3   0.994773 0.730983 0.572383 -0.559237
H30   H     H_    0.995116 0.789128 0.571775 0.200246
H31   H     H_    0.071328 0.713670 0.618640 0.187794
H32   H     H_    0.849569 0.712511 0.578009 0.221718
N7    N     N_2   0.580709 0.795503 0.507956 -0.514664
H33   H     H_    0.574268 0.760519 0.466897 0.258118
C47   C     C_3   0.494149 0.769086 0.572960 -0.558729
H34   H     H_    0.492939 0.710943 0.572295 0.200661
H35   H     H_    0.349568 0.788094 0.579416 0.221063
H36   H     H_    0.572985 0.786024 0.618776 0.187511
N8    N     N_2   0.419278 0.204493 0.492046 -0.514652
H37   H     H_    0.425710 0.239478 0.533104 0.258122
C48   C     C_3   0.505858 0.230908 0.427044 -0.558743
H38   H     H_    0.507020 0.289052 0.427702 0.200644
H39   H     H_    0.427064 0.213955 0.381224 0.187518
H40   H     H_    0.650456 0.211914 0.420606 0.221074

loop_
_geom_bond_atom_site_label_1
_geom_bond_atom_site_label_2
_ccdc_geom_bond_type
C26   C30   A    
C16   H3    S    
C43   H18   S    
O1    C5    A    
C44   H22   S    
C33   N2    S    
H7    C27   S    
O13   V1    S    
N1    H9    S    
O3    C7    A    
C47   H34   S    
O15   V3    S    
C42   H14   S    
N3    H17   S    
C46   H31   S    
C9    C18   T    
O20   V1    S    
C29   N6    S    
O9    C4    A    
C1    C11   S    
O10   C3    A    
C48   H39   S    
C2    C12   S    
O4    C8    A    
O11   C2    A    
N4    C44   S    
N8    H37   S    
C13   C18   S    
C14   H1    S    
C4    C10   S    
C16   C19   S    
O16   C8    A    
N8    C48   S    
O2    C6    A    
O14   V2    S    
C25   C38   A    
O5    C1    A    
O4    V1    S    
O9    V1    S    
C27   C40   A    
C31   N8    S    
O17   V4    S    
O7    C3    A    
O11   V3    S    
O18   V3    S    
O8    C4    A    
O12   V4    S    
O19   V2    S    
C36   N3    S    
N1    C41   S    
C10   C17   T    
C42   H15   S    
O16   V4    S    
N5    H25   S    
O5    V1    S    
N3    C43   S    
C46   H32   S    
O7    V3    S    
C21   C34   A    
O8    V4    S    
C14   C17   S    
N6    C46   S    
N5    C45   S    
C48   H40   S    
N4    H21   S    
N2    C42   S    
H5    C25   S    
C7    C22   S    
C28   C39   A    
C34   N1    S    
O1    V4    S    
O13   C5    A    
H8    C28   S    
O2    V3    S    
O3    V2    S    
O15   C7    A    
C41   H10   S    
C13   C14   D    
O6    C2    A    
C30   N5    S    
O10   V2    S    
C45   H26   S    
C36   C40   A    
C35   N4    S    
C47   H35   S    
C11   C20   T    
C41   H11   S    
C24   C35   A    
O6    V2    S    
C44   H24   S    
C22   C33   A    
C43   H19   S    
C15   C16   D    
C42   H16   S    
H6    C26   S    
C8    C21   S    
C21   C30   A    
C45   H27   S    
O14   C6    A    
C23   C32   A    
C24   C31   A    
C26   C37   A    
C25   C29   A    
C15   C20   S    
C46   H30   S    
C27   C31   A    
C28   C32   A    
N7    C47   S    
C39   C40   A    
C48   H38   S    
C32   N7    S    
C34   C38   A    
C33   C37   A    
C47   H36   S    
C35   C39   A    
C23   C36   A    
C37   C38   A    
C41   H12   S    
N2    H13   S    
C45   H28   S    
O12   C1    A    
C44   H23   S    
C43   H20   S    
N6    H29   S    
C22   C29   A    
C15   H4    S    
C12   C19   T    
C13   H2    S    
N7    H33   S    
C3    C9    S    
C5    C24   S    
C6    C23   S    
