data_mof_unit_47900.cif
_audit_creation_date              2012-12-10T19:48:29-0500
_audit_creation_method            fapswitch 2.2
_symmetry_space_group_name_H-M    P1
_symmetry_Int_Tables_number       1
_space_group_crystal_system       triclinic
_cell_length_a                    11.192809
_cell_length_b                    10.613949
_cell_length_c                    9.548411
_cell_angle_alpha                 90.346353
_cell_angle_beta                  90.923914
_cell_angle_gamma                 89.856238
_cell_volume                      1134.1788095

loop_
_atom_site_label
_atom_site_type_symbol
_atom_type_description
_atom_site_fract_x
_atom_site_fract_y
_atom_site_fract_z
_atom_type_partial_charge
C1    C     C_R   0.500422 0.260107 0.499891 0.800100
C2    C     C_R   0.499578 0.739893 0.500109 0.800100
C3    C     C_R   0.871997 0.495219 0.505514 -0.101719
C4    C     C_R   0.128003 0.504780 0.494486 -0.101719
C5    C     C_R   0.941866 0.535216 0.621837 0.019587
C6    C     C_R   0.058134 0.464782 0.378163 0.019586
C7    C     C_3   0.501749 0.042028 0.634353 -0.163314
C8    C     C_3   0.498250 0.957972 0.365647 -0.163314
C9    C     C_3   0.596310 0.958670 0.564653 0.218688
C10   C     C_3   0.403690 0.041330 0.435347 0.218689
C11   C     C_3   0.498709 0.876635 0.499414 -0.021181
C12   C     C_3   0.501291 0.123365 0.500585 -0.021181
C13   C     C_3   0.401547 0.958917 0.567135 -0.267940
C14   C     C_3   0.598452 0.041083 0.432865 -0.267940
C15   C     C_3   0.586394 0.568217 0.053382 -0.037966
C16   C     C_3   0.413606 0.431783 0.946618 -0.037966
C17   C     C_3   0.487573 0.610329 0.953212 0.259911
C18   C     C_3   0.512427 0.389671 0.046788 0.259911
C19   C     C_3   0.598950 0.454704 0.949170 -0.091911
C20   C     C_3   0.401050 0.545296 0.050830 -0.091913
C21   C     C_R   0.262372 0.502344 0.498264 0.762011
C22   C     C_R   0.737628 0.497655 0.501736 0.762011
C23   C     C_R   0.130798 0.559790 0.014493 0.214291
C24   C     C_R   0.869201 0.440207 0.985507 0.214289
C25   C     C_R   0.109712 0.566557 0.158179 -0.198538
C26   C     C_R   0.890288 0.433440 0.841821 -0.198539
C27   C     C_R   0.106391 0.456381 0.237870 0.134174
C28   C     C_R   0.893610 0.543617 0.762131 0.134174
C29   C     C_R   0.130652 0.339465 0.176701 -0.096714
C30   C     C_R   0.869349 0.660533 0.823300 -0.096714
C31   C     C_R   0.151878 0.332127 0.033562 -0.233655
C32   C     C_R   0.848122 0.667871 0.966439 -0.233655
C33   C     C_R   0.148317 0.441235 0.952141 -0.104240
C34   C     C_R   0.851684 0.558762 0.047859 -0.104239
C35   C     C_R   0.933195 0.455337 0.387336 -0.259731
C36   C     C_R   0.066806 0.544661 0.612665 -0.259731
Cu1   Cu    Cu3+1 0.500030 0.499990 0.643150 0.959276
Cu2   Cu    Cu3+1 0.499970 0.500010 0.356850 0.959276
H1    H     H_    0.126544 0.254089 0.237794 0.132220
H2    H     H_    0.873456 0.745909 0.762208 0.132220
H3    H     H_    0.168082 0.241509 0.984767 0.135437
H4    H     H_    0.831920 0.758489 0.015234 0.135437
H5    H     H_    0.320393 0.923494 0.619254 0.134677
H6    H     H_    0.679606 0.076506 0.380746 0.134678
N1    N     N_3   0.500090 0.499970 0.858290 -0.184056
N2    N     N_3   0.499910 0.500030 0.141710 -0.184056
O1    O     O_R   0.500060 0.316850 0.620870 -0.609140
O2    O     O_R   0.499940 0.683150 0.379130 -0.609140
O3    O     O_R   0.500000 0.316860 0.379090 -0.537350
O4    O     O_R   0.500000 0.683140 0.620910 -0.537350
O5    O     O_R   0.319670 0.500010 0.620890 -0.592399
O6    O     O_R   0.680330 0.499990 0.379110 -0.592399
O7    O     O_R   0.319620 0.500010 0.379110 -0.569251
O8    O     O_R   0.680380 0.499990 0.620890 -0.569252
H7    H     H_    0.165475 0.432161 0.841997 0.143879
H8    H     H_    0.834525 0.567836 0.158003 0.143879
N3    N     N_3   0.474908 0.737895 0.899800 -0.540504
H9    H     H_    0.392716 0.743162 0.846851 0.226168
H10   H     H_    0.469407 0.798515 0.986122 0.172727
N4    N     N_3   0.525093 0.262105 0.100199 -0.540505
H11   H     H_    0.607284 0.256839 0.153149 0.226169
H12   H     H_    0.530594 0.201485 0.013878 0.172728
H13   H     H_    0.643984 0.640241 0.104017 0.123249
H14   H     H_    0.356016 0.359759 0.895983 0.123249
H15   H     H_    0.666923 0.399983 0.894135 0.139332
H16   H     H_    0.333078 0.600016 0.105865 0.139332
N5    N     N_3   0.143752 0.672923 0.934874 -0.637533
H17   H     H_    0.216938 0.722865 0.974762 0.186392
H18   H     H_    0.070638 0.731305 0.952839 0.222148
N6    N     N_3   0.856248 0.327074 0.065126 -0.637533
H19   H     H_    0.929363 0.268694 0.047162 0.222148
H20   H     H_    0.783063 0.277131 0.025236 0.186392
H21   H     H_    0.092465 0.657236 0.206748 0.118383
H22   H     H_    0.907535 0.342762 0.793251 0.118383
H23   H     H_    0.882653 0.417140 0.300676 0.193542
H24   H     H_    0.117347 0.582858 0.699325 0.193543
N7    N     N_3   0.701790 0.909164 0.636711 -0.584040
H25   H     H_    0.754500 0.986099 0.666856 0.198885
H26   H     H_    0.750539 0.857780 0.563321 0.194779
N8    N     N_3   0.298209 0.090836 0.363289 -0.584041
H27   H     H_    0.245500 0.013901 0.333142 0.198885
H28   H     H_    0.249461 0.142219 0.436679 0.194779
H29   H     H_    0.505845 0.077620 0.743922 0.141328
H30   H     H_    0.494155 0.922380 0.256078 0.141328

loop_
_geom_bond_atom_site_label_1
_geom_bond_atom_site_label_2
_ccdc_geom_bond_type
C33   H7    S    
C7    H29   S    
C4    C36   A    
C34   H8    S    
Cu1   O4    S    
C27   C29   A    
C14   H6    S    
C13   H5    S    
C24   N6    S    
C22   O8    A    
Cu2   O3    S    
N7    H25   S    
C15   C19   S    
C35   H23   S    
C20   H16   S    
C24   C26   A    
Cu1   O5    S    
N3    H10   S    
Cu2   O6    S    
C5    C36   A    
C17   C20   S    
C6    C35   A    
N4    H12   S    
C18   C19   S    
C23   N5    S    
C2    O4    A    
C23   C33   A    
C31   C33   A    
N6    H19   S    
Cu1   O1    S    
C36   H24   S    
Cu2   O2    S    
C1    C12   S    
C2    C11   S    
C18   N2    S    
N7    H26   S    
C32   H4    S    
C7    C12   S    
N5    H17   S    
C30   C32   A    
C4    C6    A    
C10   N8    S    
C1    O1    A    
C2    O2    A    
C24   C34   A    
N4    H11   S    
N5    H18   S    
C32   C34   A    
C9    C14   S    
Cu1   Cu2   S    
C5    C28   S    
C6    C27   S    
C3    C35   A    
C16   C20   S    
C29   H1    S    
C30   H2    S    
C16   C18   S    
C9    N7    S    
C9    C11   S    
C10   C12   S    
Cu1   O8    S    
C18   N4    S    
C12   C14   S    
Cu1   N1    S    
C21   O5    A    
C22   O6    A    
C15   C17   S    
C8    C14   S    
C31   H3    S    
C8    H30   S    
C17   N1    S    
N8    H27   S    
C3    C5    A    
C10   C13   S    
C16   N1    S    
C19   N1    S    
C25   C27   A    
C26   C28   A    
C28   C30   A    
C29   C31   A    
C21   O7    A    
C4    C21   S    
C11   C13   S    
N3    H9    S    
Cu2   O7    S    
C8    C11   S    
C26   H22   S    
N8    H28   S    
C19   H15   S    
C25   H21   S    
C23   C25   A    
Cu2   N2    S    
C7    C9    S    
C7    C13   S    
C8    C10   S    
C15   H13   S    
C3    C22   S    
N6    H20   S    
C16   H14   S    
C15   N2    S    
C1    O3    A    
C20   N2    S    
C17   N3    S    
