data_mof_unit_41989.cif
_audit_creation_date              2012-12-10T17:46:18-0500
_audit_creation_method            fapswitch 2.2
_symmetry_space_group_name_H-M    P1
_symmetry_Int_Tables_number       1
_space_group_crystal_system       triclinic
_cell_length_a                    14.138066
_cell_length_b                    10.613846
_cell_length_c                    9.979095
_cell_angle_alpha                 91.334591
_cell_angle_beta                  89.177828
_cell_angle_gamma                 92.118374
_cell_volume                      1495.88989945

loop_
_atom_site_label
_atom_site_type_symbol
_atom_type_description
_atom_site_fract_x
_atom_site_fract_y
_atom_site_fract_z
_atom_type_partial_charge
C1    C     C_R   0.498583 0.260817 0.498675 0.849459
C2    C     C_1   0.772144 0.500276 0.497723 -0.207951
C3    C     C_R   0.326389 0.123696 0.573128 -0.184142
C4    C     C_R   0.246200 0.054918 0.616302 -0.129227
C5    C     C_R   0.248268 0.924303 0.624083 -0.126193
C6    C     C_R   0.330334 0.862125 0.587844 -0.166001
C7    C     C_R   0.412489 0.930700 0.544458 0.049070
C8    C     C_R   0.410678 0.062250 0.538620 0.100312
C9    C     C_R   0.493273 0.128303 0.495588 -0.112608
C10   C     C_R   0.574442 0.068365 0.453477 -0.262350
C11   C     C_R   0.576468 0.939166 0.456954 0.085335
C12   C     C_R   0.329422 0.499631 0.500824 0.828019
C13   C     C_R   0.496257 0.871675 0.503608 -0.107577
C14   C     C_R   0.349844 0.365385 0.132059 0.184474
C15   C     C_R   0.265904 0.344610 0.060766 0.135150
C16   C     C_R   0.270522 0.340454 0.921811 -0.295630
C17   C     C_R   0.355182 0.371908 0.857612 -0.138993
C18   C     C_R   0.428765 0.435773 0.926792 0.090750
C19   C     C_R   0.427853 0.434230 0.070604 0.017287
C20   C     C_R   0.567334 0.565460 0.072478 0.113605
C21   C     C_R   0.567262 0.565518 0.928274 0.111522
C22   C     C_R   0.499621 0.739151 0.501295 0.905254
C23   C     C_R   0.670592 0.500444 0.499168 0.902987
C24   C     C_1   0.227901 0.499226 0.502212 -0.203206
C25   C     C_1   0.142606 0.499096 0.501923 -0.011005
C26   C     C_1   0.042683 0.499248 0.500570 -0.002646
C27   C     C_1   0.957392 0.499554 0.499193 -0.002065
C28   C     C_1   0.857456 0.499985 0.497923 -0.020026
H1    H     H_    0.211128 0.302572 0.864345 0.155812
N1    N     N_R   0.499190 0.498800 0.142780 -0.106416
N2    N     N_R   0.499160 0.498720 0.857170 -0.105550
O1    O     O_R   0.500000 0.316780 0.614690 -0.620678
O2    O     O_R   0.499990 0.316750 0.385360 -0.635207
O3    O     O_R   0.373720 0.500010 0.614690 -0.623352
O4    O     O_R   0.373710 0.499990 0.385360 -0.596739
O5    O     O_R   0.500010 0.683250 0.614640 -0.600659
O6    O     O_R   0.500000 0.683220 0.385310 -0.579879
O7    O     O_R   0.626290 0.500010 0.614640 -0.572920
O8    O     O_R   0.626280 0.499990 0.385310 -0.572769
Zn1   Zn    Zn3+2 0.500010 0.500020 0.653130 0.949085
Zn2   Zn    Zn3+2 0.499990 0.499980 0.346870 0.954181
H2    H     H_    0.636806 0.122286 0.420232 0.144135
H3    H     H_    0.361479 0.343822 0.755104 0.205792
N3    N     N_3   0.637614 0.637570 0.855744 -0.392193
H4    H     H_    0.704361 0.606532 0.880181 0.161333
H5    H     H_    0.633406 0.732371 0.885059 0.162931
H6    H     H_    0.321312 0.224519 0.564801 0.102915
H7    H     H_    0.182144 0.103018 0.642850 0.130462
H8    H     H_    0.185863 0.870852 0.657049 0.136423
H9    H     H_    0.328491 0.760542 0.593522 0.137866
N4    N     N_3   0.660308 0.875985 0.415292 -0.455877
H10   H     H_    0.675904 0.899736 0.316096 0.185472
H11   H     H_    0.716278 0.910406 0.474724 0.181014
N5    N     N_3   0.637963 0.636843 0.145883 -0.386983
H12   H     H_    0.704549 0.605236 0.117237 0.160132
H13   H     H_    0.634244 0.731687 0.121412 0.161196
N6    N     N_3   0.365054 0.264495 0.219961 -0.438558
H14   H     H_    0.429965 0.222804 0.201945 0.212805
H15   H     H_    0.343566 0.283805 0.318315 0.219760
N7    N     N_3   0.182424 0.297417 0.128715 -0.450154
H16   H     H_    0.126577 0.354025 0.103970 0.183600
H17   H     H_    0.166463 0.206005 0.092303 0.189418

loop_
_geom_bond_atom_site_label_1
_geom_bond_atom_site_label_2
_ccdc_geom_bond_type
C17   H3    S    
N1    Zn2   S    
C6    C7    A    
C22   O6    A    
C10   H2    S    
C23   O7    A    
C22   O5    A    
C9    C10   A    
C12   C24   S    
C7    C13   A    
O2    Zn2   S    
C20   C21   A    
C17   C18   A    
N6    H14   S    
C1    O2    A    
C7    C8    A    
O8    Zn2   S    
C20   N1    A    
C3    C4    A    
C6    H9    S    
C12   O4    A    
O7    Zn1   S    
C21   N2    A    
C5    H8    S    
C26   C27   T    
N7    H16   S    
C3    H6    S    
O3    Zn1   S    
C4    C5    A    
N7    H17   S    
N3    H5    S    
C13   C22   S    
C18   C19   A    
O1    Zn1   S    
O6    Zn2   S    
C5    C6    A    
O4    Zn2   S    
N5    H13   S    
N6    H15   S    
C11   C13   A    
C11   N4    S    
C10   C11   A    
C12   O3    A    
C15   C16   A    
C21   N3    S    
O5    Zn1   S    
C1    C9    S    
C24   C25   T    
C16   H1    S    
C20   N5    S    
C3    C8    A    
C15   N7    S    
C4    H7    S    
C2    C23   S    
C14   N6    S    
C14   C15   A    
C16   C17   A    
C2    C28   T    
C18   N2    A    
N2    Zn1   S    
N4    H11   S    
C25   C26   S    
N5    H12   S    
C19   N1    A    
C14   C19   A    
C23   O8    A    
C1    O1    A    
N3    H4    S    
N4    H10   S    
C8    C9    A    
C27   C28   S    
