data_mof_unit_55128.cif
_audit_creation_date              2012-12-11T15:44:58-0500
_audit_creation_method            fapswitch 2.2
_symmetry_space_group_name_H-M    P1
_symmetry_Int_Tables_number       1
_space_group_crystal_system       triclinic
_cell_length_a                    19.154972
_cell_length_b                    11.05298
_cell_length_c                    18.785053
_cell_angle_alpha                 89.675668
_cell_angle_beta                  90.527444
_cell_angle_gamma                 90.342798
_cell_volume                      3976.86026173

loop_
_atom_site_label
_atom_site_type_symbol
_atom_type_description
_atom_site_fract_x
_atom_site_fract_y
_atom_site_fract_z
_atom_type_partial_charge
C1    C     C_R   0.761121 0.530201 0.645920 0.586464
C2    C     C_R   0.202267 0.004017 0.532767 -0.140170
C3    C     C_R   0.497026 0.942741 0.963730 0.028215
C4    C     C_R   0.975885 0.227372 0.970397 0.262209
C5    C     C_R   0.975606 0.234301 0.045024 0.231095
C6    C     C_R   0.475345 0.727410 0.970549 0.261639
C7    C     C_R   0.475230 0.734733 0.045185 0.231865
C8    C     C_3   0.058059 0.543953 0.031021 0.033140
C9    C     C_3   0.048858 0.540275 0.950819 -0.038497
C10   C     C_3   0.558377 0.043933 0.031022 0.033054
C11   C     C_3   0.549747 0.039534 0.950736 -0.040270
C12   C     C_R   0.771373 0.495313 0.860118 0.557165
C13   C     C_R   0.325116 0.609383 0.445057 -0.128474
C14   C     C_R   0.240389 0.534142 0.148754 0.510459
C15   C     C_R   0.271415 0.995233 0.860132 0.557140
C16   C     C_R   0.740493 0.034113 0.148716 0.513019
C17   C     C_R   0.789844 0.169079 0.860102 0.564700
C18   C     C_R   0.227672 0.124656 0.148100 0.542065
C19   C     C_R   0.289861 0.669040 0.860092 0.565538
C20   C     C_R   0.727643 0.624773 0.148048 0.543007
C21   C     C_R   0.967751 0.345596 0.854844 0.593692
C22   C     C_R   0.029222 0.347284 0.147254 0.515024
C23   C     C_R   0.467771 0.845542 0.854839 0.594072
C24   C     C_R   0.702268 0.504016 0.532766 -0.140128
C25   C     C_R   0.529247 0.847331 0.147249 0.517086
C26   C     C_R   0.757690 0.108555 0.415901 0.000455
C27   C     C_R   0.248985 0.070317 0.575148 0.039105
C28   C     C_R   0.257689 0.608556 0.415901 0.000849
C29   C     C_R   0.748986 0.570316 0.575148 0.039127
C30   C     C_R   0.706379 0.161046 0.456412 0.001947
C31   C     C_R   0.288077 0.161832 0.545362 -0.011840
C32   C     C_R   0.206379 0.661046 0.456412 0.002487
C33   C     C_R   0.788080 0.661829 0.545361 -0.011886
C34   C     C_R   0.716893 0.193702 0.526447 0.026485
C35   C     C_3   0.631370 0.136131 0.462066 0.001521
C36   C     C_R   0.277288 0.194623 0.475233 0.002081
C37   C     C_R   0.216892 0.693701 0.526447 0.026420
C38   C     C_R   0.777292 0.694617 0.475231 0.002460
C39   C     C_3   0.299261 0.286936 0.571277 0.018683
C40   C     C_3   0.131369 0.636130 0.462066 0.001890
C41   C     C_3   0.799262 0.786936 0.571273 0.018567
C42   C     C_3   0.640179 0.173577 0.540050 0.099456
C43   C     C_3   0.288878 0.325118 0.494312 0.105762
C44   C     C_3   0.140178 0.673574 0.540051 0.099425
C45   C     C_R   0.240088 0.535698 0.352914 0.525949
C46   C     C_3   0.788881 0.825113 0.494306 0.106094
C47   C     C_R   0.779795 0.162518 0.561468 0.027172
C48   C     C_R   0.225352 0.136279 0.434379 -0.007026
C49   C     C_R   0.279794 0.662519 0.561468 0.027176
C50   C     C_R   0.725356 0.636273 0.434377 -0.007174
C51   C     C_R   0.990290 0.325134 0.420650 -0.051731
C52   C     C_R   0.995532 0.346834 0.570488 -0.008124
C53   C     C_R   0.490291 0.825135 0.420651 -0.051869
C54   C     C_R   0.495532 0.846834 0.570489 -0.008049
C55   C     C_R   0.000872 0.100730 0.435314 0.253617
C56   C     C_R   0.261121 0.030201 0.645920 0.586570
C57   C     C_R   0.036256 0.133678 0.579511 0.262785
C58   C     C_R   0.500873 0.600730 0.435315 0.253443
C59   C     C_R   0.536256 0.633679 0.579512 0.262793
C60   C     C_R   0.010974 0.002745 0.480924 -0.107745
C61   C     C_R   0.030849 0.018437 0.551184 -0.114392
C62   C     C_R   0.510974 0.502745 0.480925 -0.107776
C63   C     C_R   0.530849 0.518438 0.551185 -0.114449
C64   C     C_R   0.012795 0.234978 0.538468 -0.051846
C65   C     C_R   0.002671 0.220659 0.463467 -0.043770
C66   C     C_R   0.512796 0.734978 0.538468 -0.051806
C67   C     C_R   0.740089 0.035698 0.352914 0.529619
C68   C     C_R   0.502673 0.720659 0.463467 -0.043842
C69   C     C_R   0.979049 0.448240 0.525529 0.035671
C70   C     C_R   0.965789 0.429145 0.452761 -0.003777
C71   C     C_R   0.479050 0.948241 0.525529 0.035731
C72   C     C_R   0.465790 0.929146 0.452761 -0.004091
C73   C     C_R   0.790683 0.171552 0.638878 0.574557
C74   C     C_R   0.209942 0.168112 0.361412 0.543401
C75   C     C_R   0.290683 0.671552 0.638878 0.574421
C76   C     C_R   0.709943 0.668109 0.361412 0.546665
C77   C     C_R   0.976166 0.569803 0.549473 -0.057497
C78   C     C_R   0.836058 0.131880 0.517922 -0.129235
C79   C     C_R   0.934786 0.520192 0.410877 -0.071087
C80   C     C_R   0.476166 0.069803 0.549474 -0.057517
C81   C     C_R   0.434787 0.020192 0.410878 -0.070949
C82   C     C_R   0.953307 0.662386 0.504918 -0.116067
C83   C     C_R   0.930765 0.636588 0.436157 -0.059619
C84   C     C_R   0.453306 0.162387 0.504920 -0.116441
C85   C     C_R   0.430763 0.136588 0.436159 -0.059350
C86   C     C_R   0.759100 0.092739 0.081277 -0.040945
C87   C     C_R   0.265141 0.034853 0.933663 -0.002533
C88   C     C_R   0.258293 0.591688 0.080930 -0.030264
C89   C     C_R   0.190138 0.036981 0.463782 -0.139597
C90   C     C_R   0.765047 0.534827 0.933642 -0.000040
C91   C     C_R   0.811037 0.037065 0.041314 0.091013
C92   C     C_R   0.203181 0.005860 0.967163 -0.032411
C93   C     C_R   0.308588 0.533365 0.040478 0.055235
C94   C     C_R   0.703400 0.504456 0.967398 -0.030626
C95   C     C_R   0.820920 0.063826 0.970986 0.069279
C96   C     C_R   0.194038 0.025246 0.038049 0.018968
C97   C     C_R   0.319607 0.560883 0.970431 0.057687
C98   C     C_R   0.694323 0.523999 0.038289 0.023298
C99   C     C_R   0.732080 0.215244 0.976632 -0.102199
C100  C     C_R   0.336058 0.631883 0.517922 -0.129251
C101  C     C_R   0.312926 0.093356 0.049937 -0.088427
C102  C     C_R   0.232724 0.715904 0.976709 -0.100492
C103  C     C_R   0.812746 0.595003 0.049608 -0.107938
C104  C     C_R   0.724136 0.192777 0.050221 0.202667
C105  C     C_R   0.321916 0.078406 0.976287 0.193480
C106  C     C_R   0.224509 0.693199 0.050237 0.204456
C107  C     C_R   0.821636 0.579794 0.975995 0.194494
C108  C     C_3   0.826076 0.905954 0.030145 0.122638
C109  C     C_3   0.130297 0.042568 0.948689 0.112227
C110  C     C_3   0.319821 0.401234 0.028319 0.117217
C111  C     C_R   0.690141 0.536977 0.463781 -0.139941
C112  C     C_3   0.630112 0.539288 0.949128 0.109748
C113  C     C_3   0.835927 0.935196 0.952218 -0.143952
C114  C     C_3   0.119946 0.064444 0.027515 -0.160472
C115  C     C_3   0.332764 0.431735 0.950792 -0.202162
C116  C     C_3   0.619861 0.561416 0.027943 -0.165867
C117  C     C_R   0.779312 0.147791 0.936008 -0.046378
C118  C     C_R   0.247035 0.075042 0.080019 -0.041044
C119  C     C_R   0.279219 0.647230 0.935878 -0.031849
C120  C     C_R   0.747100 0.575195 0.079987 -0.038987
C121  C     C_R   0.969189 0.348162 0.645143 0.546984
C122  C     C_R   0.825116 0.109380 0.445057 -0.128402
C123  C     C_R   0.027760 0.343324 0.352293 0.510981
C124  C     C_R   0.469189 0.848162 0.645143 0.546848
C125  C     C_R   0.527760 0.843324 0.352293 0.510720
C126  C     C_R   0.996781 0.343551 0.077674 -0.073286
C127  C     C_R   0.987501 0.334424 0.929036 -0.006154
C128  C     C_R   0.496874 0.843756 0.077651 -0.065715
C129  C     C_R   0.487612 0.834142 0.929006 -0.002584
C130  C     C_R   0.002425 0.447816 0.035725 -0.000663
C131  C     C_R   0.996372 0.443098 0.963860 0.027442
C132  C     C_R   0.502849 0.947730 0.035570 0.001134
Cr1   Cr    Cr6+3 0.885860 0.491680 0.749630 1.029493
Cr2   Cr    Cr6+3 0.112430 0.179310 0.249850 1.090552
Cr3   Cr    Cr6+3 0.387570 0.679310 0.750150 1.069849
Cr4   Cr    Cr6+3 0.612430 0.679310 0.249850 1.091344
Cr5   Cr    Cr6+3 0.114140 0.491680 0.250370 1.071829
Cr6   Cr    Cr6+3 0.385860 0.991680 0.749630 1.028536
Cr7   Cr    Cr6+3 0.614140 0.991680 0.250370 1.076785
Cr8   Cr    Cr6+3 0.730490 0.332970 0.748720 1.047982
Cr9   Cr    Cr6+3 0.269510 0.332970 0.251280 1.057211
Cr10  Cr    Cr6+3 0.230490 0.832970 0.748720 1.048213
Cr11  Cr    Cr6+3 0.769510 0.832970 0.251280 1.015975
Cr12  Cr    Cr6+3 0.887570 0.179310 0.750150 1.068897
H1    H     H_    0.886806 0.115470 0.541234 0.151229
H2    H     H_    0.355278 0.129672 0.081921 0.220795
H3    H     H_    0.200566 0.782500 0.950709 0.156349
H4    H     H_    0.854911 0.632767 0.081243 0.182775
H5    H     H_    0.781341 0.843982 0.041181 0.098516
H6    H     H_    0.098179 0.967166 0.926780 0.184230
H7    H     H_    0.272403 0.344890 0.037373 0.138584
H8    H     H_    0.598467 0.463039 0.927527 0.179251
H9    H     H_    0.890160 0.921910 0.933416 0.222042
H10   H     H_    0.112474 0.160999 0.041584 0.141012
H11   H     H_    0.387294 0.416283 0.933480 0.195668
H12   H     H_    0.151726 0.985142 0.434537 0.189726
H13   H     H_    0.611660 0.657865 0.041807 0.146040
H14   H     H_    0.795022 0.894008 0.917543 0.121326
H15   H     H_    0.082380 0.999974 0.052079 0.225099
H16   H     H_    0.292261 0.393716 0.914439 0.142756
H17   H     H_    0.582830 0.496313 0.052778 0.209433
H18   H     H_    0.109963 0.511857 0.049684 0.147199
H19   H     H_    0.024733 0.622900 0.927630 0.202437
H20   H     H_    0.610179 0.012230 0.050199 0.150149
H21   H     H_    0.525954 0.122087 0.927091 0.198811
H22   H     H_    0.866618 0.073447 0.414592 0.192293
H23   H     H_    0.386806 0.615474 0.541233 0.151245
H24   H     H_    0.173197 0.927984 0.553227 0.136360
H25   H     H_    0.366618 0.573451 0.414592 0.192250
H26   H     H_    0.673196 0.427986 0.553228 0.136354
H27   H     H_    0.118749 0.538566 0.454829 0.180753
H28   H     H_    0.853154 0.800755 0.592201 0.162419
H29   H     H_    0.618749 0.038568 0.454829 0.180582
H30   H     H_    0.353153 0.300753 0.592204 0.162419
H31   H     H_    0.610197 0.255946 0.553614 0.090385
H32   H     H_    0.243399 0.384663 0.483639 0.153534
H33   H     H_    0.110196 0.755942 0.553616 0.090522
H34   H     H_    0.651729 0.485139 0.434536 0.189489
H35   H     H_    0.743402 0.884657 0.483631 0.153665
H36   H     H_    0.001998 0.912937 0.461650 0.181992
H37   H     H_    0.042630 0.940158 0.583938 0.129063
H38   H     H_    0.501998 0.412937 0.461651 0.182010
H39   H     H_    0.542630 0.440158 0.583939 0.129026
H40   H     H_    0.918950 0.503302 0.356253 0.134097
H41   H     H_    0.996438 0.598573 0.600312 0.165654
H42   H     H_    0.418950 0.003302 0.356255 0.135038
H43   H     H_    0.496438 0.098574 0.600313 0.165619
H44   H     H_    0.692364 0.257568 0.139830 0.349877
H45   H     H_    0.954307 0.754244 0.523971 0.140736
H46   H     H_    0.373657 0.169708 0.907466 0.343801
H47   H     H_    0.193114 0.757807 0.140068 0.348829
H48   H     H_    0.872590 0.672033 0.907007 0.342967
H49   H     H_    0.877425 0.842413 0.110772 0.357706
H50   H     H_    0.158862 0.210102 0.928236 0.339600
H51   H     H_    0.418478 0.414479 0.056176 0.394995
H52   H     H_    0.657211 0.707344 0.928213 0.341222
H53   H     H_    0.996001 0.109328 0.897865 0.364607
H54   H     H_    0.946639 0.154166 0.131902 0.329156
H55   H     H_    0.494681 0.608347 0.898397 0.367844
H56   H     H_    0.915179 0.706893 0.399734 0.160345
H57   H     H_    0.445830 0.655762 0.132264 0.332833
H58   H     H_    0.620946 0.110799 0.633965 0.352046
H59   H     H_    0.350125 0.359603 0.416008 0.360038
H60   H     H_    0.120947 0.610794 0.633965 0.352189
H61   H     H_    0.850127 0.859599 0.416002 0.360177
H62   H     H_    0.951626 0.138533 0.346887 0.315925
H63   H     H_    0.082701 0.226544 0.653270 0.353568
H64   H     H_    0.451627 0.638534 0.346888 0.315939
H65   H     H_    0.582700 0.726544 0.653272 0.353507
H66   H     H_    0.454305 0.254244 0.523973 0.140692
H67   H     H_    0.415175 0.206893 0.399737 0.161334
H68   H     H_    0.699137 0.280582 0.950475 0.157741
I1    I     I_    0.022763 0.708634 0.076888 -0.223238
I2    I     I_    0.136715 0.475218 0.892930 -0.398453
I3    I     I_    0.521938 0.208202 0.076464 -0.245647
I4    I     I_    0.637871 0.972854 0.893855 -0.400082
I5    I     I_    0.584690 0.256359 0.386099 -0.377051
I6    I     I_    0.220530 0.349598 0.642099 -0.265049
I7    I     I_    0.084689 0.756358 0.386098 -0.380516
I8    I     I_    0.720527 0.849600 0.642088 -0.265055
O1    O     O_R   0.957020 0.451640 0.669920 -0.529291
O2    O     O_R   0.168040 0.093290 0.169870 -0.487040
O3    O     O_R   0.331960 0.593290 0.830130 -0.475493
O4    O     O_R   0.668040 0.593290 0.169870 -0.482616
O5    O     O_R   0.945600 0.250580 0.824860 -0.504615
O6    O     O_R   0.054400 0.250580 0.175140 -0.497542
O7    O     O_R   0.445600 0.750580 0.824860 -0.503176
O8    O     O_R   0.554400 0.750580 0.175140 -0.496014
O9    O     O_3   0.834640 0.334650 0.749500 -0.340041
O10   O     O_3   0.165360 0.334650 0.250500 -0.295711
O11   O     O_3   0.334640 0.834650 0.749500 -0.340324
O12   O     O_R   0.042980 0.451640 0.330080 -0.499211
O13   O     O_3   0.665360 0.834650 0.250500 -0.289732
O14   O     O_R   0.821450 0.543440 0.674610 -0.504613
O15   O     O_R   0.178550 0.543440 0.325390 -0.478160
O16   O     O_R   0.321450 0.043440 0.674610 -0.504528
O17   O     O_R   0.678550 0.043440 0.325390 -0.476877
O18   O     O_R   0.715320 0.458650 0.668100 -0.508509
O19   O     O_R   0.284680 0.458650 0.331900 -0.543323
O20   O     O_R   0.215320 0.958650 0.668100 -0.508447
O21   O     O_R   0.784680 0.958650 0.331900 -0.541927
O22   O     O_R   0.737170 0.209590 0.674530 -0.488903
O23   O     O_R   0.457020 0.951640 0.669920 -0.529468
O24   O     O_R   0.262830 0.209590 0.325470 -0.512464
O25   O     O_R   0.237170 0.709590 0.674530 -0.488831
O26   O     O_R   0.762830 0.709590 0.325470 -0.511096
O27   O     O_R   0.832710 0.092740 0.669580 -0.476980
O28   O     O_R   0.167290 0.092740 0.330420 -0.479607
O29   O     O_R   0.332710 0.592740 0.669580 -0.477214
O30   O     O_R   0.667290 0.592740 0.330420 -0.478531
O31   O     O_R   0.946290 0.250060 0.676040 -0.479121
O32   O     O_R   0.053710 0.250060 0.323960 -0.482041
O33   O     O_R   0.446290 0.750060 0.676040 -0.479200
O34   O     O_R   0.542980 0.951640 0.330080 -0.498683
O35   O     O_R   0.553710 0.750060 0.323960 -0.482179
O36   O     O_R   0.956270 0.452200 0.830470 -0.484802
O37   O     O_R   0.043730 0.452200 0.169530 -0.487848
O38   O     O_R   0.456270 0.952200 0.830470 -0.485949
O39   O     O_R   0.543730 0.952200 0.169530 -0.486135
O40   O     O_R   0.820760 0.543950 0.823440 -0.491302
O41   O     O_R   0.179240 0.543950 0.176560 -0.492326
O42   O     O_R   0.320760 0.043950 0.823440 -0.491620
O43   O     O_R   0.679240 0.043950 0.176560 -0.484201
O44   O     O_R   0.714570 0.459210 0.828640 -0.479393
O45   O     O_R   0.736470 0.210100 0.823360 -0.484486
O46   O     O_R   0.285430 0.459210 0.171360 -0.467437
O47   O     O_R   0.214570 0.959210 0.828640 -0.479881
O48   O     O_R   0.785430 0.959210 0.171360 -0.519871
O49   O     O_3   0.681706 0.267923 0.088496 -0.672846
O50   O     O_3   0.384421 0.115083 0.947964 -0.680328
O51   O     O_3   0.182962 0.769526 0.088733 -0.671939
O52   O     O_3   0.883837 0.617516 0.947425 -0.679756
O53   O     O_3   0.889160 0.873457 0.062766 -0.606890
O54   O     O_3   0.127291 0.148503 0.906746 -0.670565
O55   O     O_3   0.379013 0.357744 0.064625 -0.640093
O56   O     O_R   0.263530 0.210100 0.176640 -0.485931
O57   O     O_3   0.626088 0.644848 0.906957 -0.669879
O58   O     O_3   0.966821 0.114581 0.940809 -0.654852
O59   O     O_3   0.961291 0.130518 0.083507 -0.615875
O60   O     O_3   0.465315 0.614665 0.941158 -0.675626
O61   O     O_3   0.460429 0.631557 0.083948 -0.672960
O62   O     O_3   0.629079 0.075747 0.586301 -0.686325
O63   O     O_3   0.352142 0.368856 0.468070 -0.752245
O64   O     O_3   0.129079 0.575742 0.586301 -0.686309
O65   O     O_3   0.852145 0.868850 0.468064 -0.752207
O66   O     O_3   0.981015 0.072617 0.366427 -0.662965
O67   O     O_R   0.236470 0.710100 0.823360 -0.485554
O68   O     O_3   0.065459 0.142870 0.646682 -0.647230
O69   O     O_3   0.481016 0.572618 0.366428 -0.661900
O70   O     O_3   0.565459 0.642870 0.646683 -0.647130
O71   O     O_R   0.763530 0.710100 0.176640 -0.522694
O72   O     O_R   0.831960 0.093290 0.830130 -0.479466

loop_
_geom_bond_atom_site_label_1
_geom_bond_atom_site_label_2
_ccdc_geom_bond_type
Cr7   O17   S    
C4    O58   S    
C39   I6    S    
C5    O59   S    
Cr2   O32   S    
C76   O30   A    
C90   C107  A    
C59   C66   A    
C10   I3    S    
C121  O31   A    
C29   C33   A    
C51   C123  S    
C79   H40   S    
C125  O35   A    
C53   C68   A    
C104  O49   S    
H54   O59   S    
C34   C42   S    
C5    C126  A    
C7    C128  A    
Cr5   O15   S    
C18   C118  S    
C93   C110  S    
C74   O24   A    
Cr4   O8    S    
C6    O60   S    
Cr8   O9    S    
Cr9   O19   S    
Cr4   O30   S    
C39   H30   S    
Cr2   O28   S    
C55   C65   A    
C57   O68   S    
C9    C131  S    
C22   O37   A    
C28   C45   S    
H50   O54   S    
C63   H39   S    
C27   C31   A    
C48   C74   S    
Cr12  O9    S    
C28   C32   A    
C108  O53   S    
H63   O68   S    
C124  O33   A    
Cr9   O10   S    
C55   O66   S    
C108  C113  S    
C50   C76   S    
H55   O60   S    
C1    C29   S    
C20   O4    A    
C98   C120  A    
C43   O63   S    
C20   C120  S    
C41   I8    S    
H58   O62   S    
C105  O50   S    
C4    C127  A    
C107  O52   S    
C3    C129  A    
C46   H35   S    
C56   O20   A    
Cr5   O10   S    
C57   C61   A    
C6    C7    A    
C73   O27   A    
Cr5   O37   S    
Cr3   O3    S    
C59   C63   A    
C33   C38   A    
C115  H16   S    
C37   C44   S    
C130  C131  A    
C14   C88   S    
C8    H18   S    
C21   O36   A    
C77   C82   A    
Cr1   O14   S    
C69   C70   A    
C92   C109  S    
C127  C131  A    
C3    C11   S    
C11   H21   S    
C126  C130  A    
C31   C36   A    
C103  C107  A    
C114  H10   S    
C40   H27   S    
Cr6   O23   S    
Cr6   O38   S    
Cr7   O43   S    
H65   O70   S    
C69   C77   A    
C86   C104  A    
C95   C117  A    
Cr3   O7    S    
C101  C118  A    
C12   C90   S    
C25   C128  S    
C92   C96   A    
C12   O44   A    
C35   C42   S    
H52   O57   S    
C58   O69   S    
Cr1   O40   S    
C73   O22   A    
Cr2   O2    S    
C87   C105  A    
Cr7   O13   S    
C49   C75   S    
C24   H26   S    
C109  O54   S    
C7    O61   S    
Cr10  O67   S    
C13   H25   S    
C106  O51   S    
H46   O50   S    
Cr5   O12   S    
C35   I5    S    
C18   O56   A    
Cr9   O24   S    
C30   C34   A    
C35   H29   S    
C116  H17   S    
Cr7   O34   S    
C97   C119  A    
C45   O19   A    
C102  H3    S    
C99   C117  A    
C74   O28   A    
Cr4   O4    S    
Cr11  O21   S    
C32   C37   A    
C53   C125  S    
C109  C114  S    
Cr12  O31   S    
C26   C30   A    
C82   H45   S    
H51   O55   S    
Cr12  O5    S    
C97   C115  S    
C93   C97   A    
C81   H42   S    
C112  C116  S    
C54   C66   A    
H48   O52   S    
C11   I4    S    
Cr11  O26   S    
Cr9   O46   S    
C109  H6    S    
C123  O32   A    
C94   C112  S    
C50   C111  A    
C36   C48   A    
Cr2   O10   S    
C125  O34   A    
C10   C132  S    
C38   C46   S    
C10   C11   S    
C102  C119  A    
C91   C95   A    
C110  O55   S    
C25   O39   A    
H59   O63   S    
C40   C44   S    
Cr8   O44   S    
Cr12  O27   S    
H47   O51   S    
C56   O16   A    
C47   C78   A    
C83   H56   S    
C55   C60   A    
C81   C85   A    
Cr5   O41   S    
C58   C62   A    
C2    H24   S    
Cr4   O35   S    
Cr6   O16   S    
C103  C120  A    
C80   C84   A    
C96   C114  S    
Cr12  O72   S    
Cr10  O20   S    
C100  H23   S    
C15   O47   A    
C86   C91   A    
C84   H66   S    
C94   C98   A    
C44   O64   S    
C23   C129  S    
Cr11  O48   S    
C51   C65   A    
C9    H19   S    
C24   C29   A    
C52   C69   A    
C16   O43   A    
C54   C71   A    
Cr6   O42   S    
C23   O38   A    
Cr7   O39   S    
Cr1   O1    S    
C112  H8    S    
C13   C28   A    
C2    C27   A    
C72   C81   A    
C17   C117  S    
C99   C104  A    
C19   C119  S    
Cr3   O11   S    
C87   C92   A    
C16   C86   S    
Cr3   O29   S    
C90   C94   A    
C3    C132  A    
C19   O3    A    
C84   C85   A    
C47   C73   S    
C110  H7    S    
C52   C64   A    
C27   C56   S    
C89   H12   S    
C67   O17   A    
H61   O65   S    
C60   C61   A    
C2    C89   A    
C62   C63   A    
C62   H38   S    
C37   C49   A    
C52   C121  S    
C1    O14   A    
Cr10  O25   S    
C124  O23   A    
C22   O6    A    
C58   C68   A    
C8    I1    S    
C40   I7    S    
C8    C130  S    
C54   C124  S    
C46   O65   S    
C91   C108  S    
C45   O15   A    
C85   H67   S    
C17   O72   A    
C9    I2    S    
C60   H36   S    
C61   H37   S    
C33   C41   S    
C64   C65   A    
C79   C83   A    
Cr10  O11   S    
C70   C79   A    
C4    C5    A    
C18   O2    A    
Cr1   O9    S    
C71   C72   A    
C82   C83   A    
C121  O1    A    
C36   C43   S    
C34   C47   A    
C26   C122  A    
C75   O29   A    
C53   C72   A    
C110  C115  S    
C66   C68   A    
C122  H22   S    
H44   O49   S    
C77   H41   S    
C67   O21   A    
C59   O70   S    
C30   C35   S    
C26   C67   S    
Cr2   O6    S    
C96   C118  A    
Cr6   O11   S    
C42   H31   S    
C22   C126  S    
H49   O53   S    
C43   H32   S    
C112  O57   S    
C17   O45   A    
C78   H1    S    
C8    C9    S    
C111  H34   S    
C41   C46   S    
C51   C70   A    
C113  H14   S    
C21   C127  S    
C75   O25   A    
C24   C111  A    
C6    C129  A    
C128  C132  A    
Cr1   O36   S    
C71   C80   A    
C42   O62   S    
C103  H4    S    
C99   H68   S    
C101  C105  A    
C114  H15   S    
C41   H28   S    
C101  H2    S    
C123  O12   A    
Cr10  O47   S    
H57   O61   S    
C39   C43   S    
H60   O64   S    
C14   O41   A    
C88   C106  A    
C98   C116  S    
C19   O67   A    
Cr4   O13   S    
Cr8   O18   S    
Cr3   O33   S    
C16   O48   A    
H53   O58   S    
Cr11  O71   S    
C48   C89   A    
C57   C64   A    
C15   C87   S    
C88   C93   A    
C10   H20   S    
C115  H11   S    
C20   O71   A    
H62   O66   S    
C76   O26   A    
C113  H9    S    
C44   H33   S    
C23   O7    A    
C38   C50   A    
C1    O18   A    
C21   O5    A    
C25   O8    A    
Cr11  O13   S    
C13   C100  A    
C116  H13   S    
C15   O42   A    
C49   C100  A    
C95   C113  S    
C80   H43   S    
C31   C39   S    
C102  C106  A    
Cr8   O22   S    
C32   C40   S    
C78   C122  A    
H64   O69   S    
C108  H5    S    
Cr8   O45   S    
C12   O40   A    
Cr9   O56   S    
C14   O46   A    
