data_mof_unit_19272.cif
_audit_creation_date              2012-12-10T17:07:44-0500
_audit_creation_method            fapswitch 2.2
_symmetry_space_group_name_H-M    P1
_symmetry_Int_Tables_number       1
_space_group_crystal_system       triclinic
_cell_length_a                    19.286452
_cell_length_b                    10.991433
_cell_length_c                    9.995381
_cell_angle_alpha                 109.336731
_cell_angle_beta                  100.037406
_cell_angle_gamma                 91.389776
_cell_volume                      1961.07297222

loop_
_atom_site_label
_atom_site_type_symbol
_atom_type_description
_atom_site_fract_x
_atom_site_fract_y
_atom_site_fract_z
_atom_type_partial_charge
C1    C     C_R   0.495102 0.255429 0.442263 0.860063
C2    C     C_R   0.504778 0.744462 0.557684 0.881302
C3    C     C_2   0.483189 0.117922 0.411463 -0.435562
C4    C     C_2   0.517052 0.881650 0.588379 -0.421523
C5    C     C_2   0.514591 0.062760 0.503618 0.413859
C6    C     C_2   0.483457 0.938426 0.500148 0.409726
C7    C     C_2   0.489755 0.524755 0.074427 0.180282
C8    C     C_2   0.509101 0.475658 0.924953 0.177817
C9    C     C_R   0.367862 0.497241 0.498407 0.816118
C10   C     C_R   0.632514 0.501332 0.501469 0.819969
C11   C     C_R   0.260157 0.597650 0.572296 0.011843
C12   C     C_R   0.735011 0.390795 0.407807 0.002876
C13   C     C_R   0.186635 0.590748 0.562745 0.463024
C14   C     C_R   0.808190 0.383813 0.417024 0.464049
C15   C     C_R   0.145247 0.473050 0.486096 -0.135710
C16   C     C_R   0.855850 0.487677 0.511585 -0.146654
C17   C     C_R   0.176023 0.361069 0.411431 0.086635
C18   C     C_R   0.831471 0.598022 0.606197 0.075350
C19   C     C_R   0.250021 0.368886 0.414144 0.096630
C20   C     C_R   0.757554 0.602915 0.604570 0.108848
C21   C     C_R   0.291410 0.488140 0.493964 -0.183230
C22   C     C_R   0.709415 0.498630 0.504432 -0.177953
C23   C     C_R   0.931232 0.480300 0.504340 0.450587
C24   C     C_R   0.069668 0.469153 0.490485 0.464061
Cu1   Cu    Cu3+1 0.512140 0.521810 0.644910 0.924001
Cu2   Cu    Cu3+1 0.487860 0.478190 0.355090 0.924513
H1    H     H_    0.559682 0.933687 0.677329 0.159864
H2    H     H_    0.442312 0.064331 0.319405 0.157267
H3    H     H_    0.533759 0.652053 0.916784 0.206639
H4    H     H_    0.465702 0.347915 0.082988 0.206894
N1    N     N_R   0.048286 0.485517 0.617000 -0.203453
N2    N     N_R   0.952647 0.463274 0.377588 -0.196263
N3    N     N_R   0.980089 0.490041 0.623509 -0.255931
N4    N     N_R   0.020839 0.458336 0.370887 -0.267305
N5    N     N_2   0.469620 0.445420 0.137370 -0.322075
N6    N     N_2   0.530380 0.554580 0.862630 -0.322017
O1    O     O_R   0.506480 0.332340 0.577400 -0.541772
O2    O     O_R   0.493520 0.667660 0.422600 -0.545017
O3    O     O_R   0.485980 0.295500 0.332650 -0.596333
O4    O     O_R   0.514020 0.704500 0.667350 -0.594839
O5    O     O_R   0.410390 0.518410 0.622410 -0.577912
O6    O     O_R   0.589610 0.481590 0.377590 -0.575366
O7    O     O_R   0.389900 0.481570 0.377660 -0.564343
O8    O     O_R   0.610100 0.518430 0.622340 -0.577000
C25   C     C_3   0.304225 0.722709 0.668558 -0.345467
C26   C     C_3   0.318207 0.730611 0.826479 -0.754788
H5    H     H_    0.267731 0.731744 0.865812 0.271291
H6    H     H_    0.346056 0.646681 0.839152 0.252215
H7    H     H_    0.351836 0.820905 0.893898 0.219850
H8    H     H_    0.355506 0.732246 0.635756 0.187729
H9    H     H_    0.277030 0.808155 0.659287 0.206303
C27   C     C_3   0.685952 0.280735 0.292784 -0.345102
C28   C     C_3   0.677129 0.297665 0.145361 -0.745672
H10   H     H_    0.653194 0.389283 0.148800 0.250417
H11   H     H_    0.729030 0.299203 0.111967 0.270748
H12   H     H_    0.642029 0.215448 0.063433 0.218913
H13   H     H_    0.707042 0.186017 0.284421 0.206343
H14   H     H_    0.633194 0.271929 0.319363 0.191816
O9    O     O_3   0.155545 0.698376 0.637408 -0.563098
C29   C     C_3   0.130055 0.764816 0.542224 -0.340464
H15   H     H_    0.083911 0.708794 0.459655 0.179919
H16   H     H_    0.171788 0.788118 0.488051 0.139190
H17   H     H_    0.112075 0.857750 0.605621 0.193675
O10   O     O_3   0.833183 0.276502 0.325879 -0.561265
C30   C     C_3   0.852439 0.190713 0.401764 -0.333231
H18   H     H_    0.808344 0.165110 0.448929 0.134461
H19   H     H_    0.899990 0.231399 0.488142 0.175435
H20   H     H_    0.865888 0.099787 0.324857 0.193267
C31   C     C_3   0.130190 0.232904 0.338137 -0.371782
C32   C     C_3   0.121580 0.166016 0.446781 -0.848738
H21   H     H_    0.173962 0.147561 0.499347 0.243042
H22   H     H_    0.094329 0.226624 0.531231 0.264914
H23   H     H_    0.089411 0.071954 0.390188 0.238558
H24   H     H_    0.077317 0.247736 0.284754 0.220488
H25   H     H_    0.151613 0.165545 0.248823 0.208924
C33   C     C_3   0.884094 0.712995 0.701422 -0.369592
C34   C     C_3   0.906821 0.709101 0.854431 -0.785378
H26   H     H_    0.860816 0.707526 0.906810 0.232769
H27   H     H_    0.934763 0.621764 0.852445 0.274826
H28   H     H_    0.943236 0.795978 0.921236 0.239490
H29   H     H_    0.932032 0.716669 0.655142 0.210517
H30   H     H_    0.862209 0.806179 0.705238 0.197781
C35   C     C_3   0.285898 0.248609 0.341572 -0.379722
C36   C     C_3   0.283200 0.227142 0.181484 -0.792487
H31   H     H_    0.312258 0.309152 0.167837 0.271574
H32   H     H_    0.308210 0.137337 0.132269 0.231904
H33   H     H_    0.227952 0.217287 0.122311 0.237238
H34   H     H_    0.341851 0.254813 0.395356 0.176110
H35   H     H_    0.262071 0.161143 0.354015 0.194405
C37   C     C_3   0.729623 0.723817 0.700370 -0.371238
C38   C     C_3   0.703086 0.811268 0.615356 -0.884165
H36   H     H_    0.745404 0.837769 0.564986 0.249303
H37   H     H_    0.656750 0.762172 0.529763 0.240430
H38   H     H_    0.687173 0.901258 0.689630 0.247943
H39   H     H_    0.687559 0.699619 0.751795 0.222303
H40   H     H_    0.769648 0.781948 0.794744 0.207021
O11   O     O_3   0.422436 0.877529 0.401577 -0.591071
C39   C     C_3   0.363519 0.926242 0.461556 -0.388918
H41   H     H_    0.357417 0.027059 0.463549 0.159846
H42   H     H_    0.366958 0.922812 0.572519 0.151813
H43   H     H_    0.315160 0.865449 0.392852 0.196527
O12   O     O_3   0.573776 0.124409 0.607543 -0.595932
C40   C     C_3   0.634160 0.098375 0.544630 -0.382892
H44   H     H_    0.637714 0.992661 0.494053 0.164649
H45   H     H_    0.681870 0.137978 0.630437 0.197550
H46   H     H_    0.634644 0.146455 0.463404 0.156220
C41   C     C_3   0.513317 0.332043 0.858843 -0.280921
C42   C     C_3   0.440316 0.259788 0.783309 -0.790314
H47   H     H_    0.404183 0.270460 0.860547 0.209151
H48   H     H_    0.414272 0.296930 0.698566 0.264334
H49   H     H_    0.445913 0.155116 0.734187 0.234212
H50   H     H_    0.553108 0.314459 0.790118 0.278481
H51   H     H_    0.537607 0.291389 0.941809 0.140779
C43   C     C_3   0.484252 0.668320 0.139757 -0.285068
C44   C     C_3   0.556747 0.742496 0.215026 -0.797923
H52   H     H_    0.550069 0.846110 0.268163 0.234835
H53   H     H_    0.584062 0.702672 0.296145 0.266074
H54   H     H_    0.592247 0.736723 0.137643 0.208917
H55   H     H_    0.459345 0.707630 0.055821 0.143695
H56   H     H_    0.444889 0.685921 0.209868 0.275068

loop_
_geom_bond_atom_site_label_1
_geom_bond_atom_site_label_2
_ccdc_geom_bond_type
C17   C31   S    
C10   O6    A    
C44   H53   S    
C41   H50   S    
C36   H33   S    
O11   C39   S    
C7    C8    S    
C34   H26   S    
C10   C22   S    
C26   H7    S    
H4    N5    S    
C29   H17   S    
C7    C43   S    
C3    H2    S    
C19   C21   A    
C36   H32   S    
Cu1   O4    S    
C5    C6    S    
Cu2   O3    S    
C28   H12   S    
C25   H9    S    
C44   H52   S    
C12   C22   A    
C42   H47   S    
C29   H16   S    
C8    N6    D    
C41   H51   S    
Cu1   O1    S    
C5    O12   S    
C23   N3    A    
C41   C42   S    
N1    N3    A    
C32   H21   S    
C43   H55   S    
C1    O1    A    
C44   H54   S    
C34   H27   S    
C35   H34   S    
O9    C29   S    
C31   C32   S    
C19   C35   S    
Cu1   O8    S    
C12   C27   S    
Cu2   O7    S    
C43   C44   S    
C28   H11   S    
C35   H35   S    
C26   H6    S    
C9    O7    A    
C10   O8    A    
C6    O11   S    
C37   H39   S    
C33   C34   S    
C4    C6    D    
Cu1   O5    S    
C38   H36   S    
Cu2   O2    S    
C30   H19   S    
Cu1   Cu2   S    
C28   H10   S    
C20   C37   S    
C11   C21   A    
C24   N4    A    
C29   H15   S    
C1    C3    S    
N2    N4    A    
C2    C4    S    
C2    O4    A    
C38   H37   S    
C2    O2    A    
C35   C36   S    
H3    N6    S    
C30   H20   S    
C14   O10   S    
C32   H23   S    
C31   H24   S    
C40   H45   S    
C36   H31   S    
C27   H14   S    
C15   C24   S    
C12   C14   A    
C39   H41   S    
C16   C23   S    
C39   H42   S    
C13   C15   A    
C14   C16   A    
C11   C25   S    
C33   H30   S    
C8    C41   S    
C4    H1    S    
C27   C28   S    
Cu2   O6    S    
C34   H28   S    
C15   C17   A    
C26   H5    S    
C18   C33   S    
C7    N5    D    
C20   C22   A    
C3    C5    D    
C33   H29   S    
C37   H40   S    
C13   O9    S    
C39   H43   S    
C9    O5    A    
C42   H49   S    
O10   C30   S    
C24   N1    A    
C23   N2    A    
C38   H38   S    
C11   C13   A    
C9    C21   S    
C37   C38   S    
C25   H8    S    
C17   C19   A    
C42   H48   S    
C31   H25   S    
C40   H46   S    
C18   C20   A    
O12   C40   S    
C27   H13   S    
C1    O3    A    
Cu1   N6    S    
C25   C26   S    
Cu2   N5    S    
C16   C18   A    
C30   H18   S    
C40   H44   S    
C32   H22   S    
C43   H56   S    
