data_mof_unit_26736.cif
_audit_creation_date              2012-12-10T18:52:14-0500
_audit_creation_method            fapswitch 2.2
_symmetry_space_group_name_H-M    P1
_symmetry_Int_Tables_number       1
_space_group_crystal_system       triclinic
_cell_length_a                    15.701036
_cell_length_b                    10.634159
_cell_length_c                    9.915986
_cell_angle_alpha                 90.408134
_cell_angle_beta                  91.404986
_cell_angle_gamma                 90.881242
_cell_volume                      1654.90542953

loop_
_atom_site_label
_atom_site_type_symbol
_atom_type_description
_atom_site_fract_x
_atom_site_fract_y
_atom_site_fract_z
_atom_type_partial_charge
C1    C     C_R   0.501790 0.260545 0.499796 0.883663
C2    C     C_R   0.498212 0.739455 0.500205 0.883662
C3    C     C_R   0.434828 0.935945 0.424543 0.197227
C4    C     C_R   0.565176 0.064056 0.575457 0.197233
C5    C     C_R   0.497138 0.871955 0.500229 -0.067102
C6    C     C_R   0.502866 0.128045 0.499771 -0.067103
C7    C     C_R   0.561027 0.564401 0.076179 -0.115438
C8    C     C_R   0.438973 0.435599 0.923821 -0.115437
C9    C     C_R   0.561835 0.564723 0.932977 0.249675
C10   C     C_R   0.438165 0.435277 0.067023 0.249676
C11   C     C_R   0.337977 0.499859 0.498505 0.900878
C12   C     C_R   0.662023 0.500141 0.501495 0.900875
C13   C     C_3   0.972498 0.394432 0.559961 -0.165962
C14   C     C_3   0.027502 0.605569 0.440039 -0.165962
C15   C     C_3   0.025087 0.398868 0.430136 -0.166812
C16   C     C_3   0.974913 0.601133 0.569864 -0.166812
C17   C     C_1   0.248916 0.499943 0.495462 -0.196800
C18   C     C_1   0.751084 0.500057 0.504538 -0.196799
C19   C     C_3   0.031795 0.495570 0.626866 -0.162950
C20   C     C_3   0.968204 0.504431 0.373134 -0.162950
C21   C     C_3   0.082577 0.500007 0.497052 0.211960
C22   C     C_3   0.917423 0.499993 0.502948 0.211960
C23   C     C_1   0.173507 0.499995 0.495028 -0.085166
C24   C     C_1   0.826493 0.500006 0.504972 -0.085167
C25   C     C_R   0.438753 0.065540 0.424952 -0.237466
C26   C     C_R   0.561252 0.934460 0.575046 -0.237471
H1    H     H_    0.047804 0.316320 0.372886 0.131305
H2    H     H_    0.952196 0.683681 0.627114 0.131305
H3    H     H_    0.947803 0.308254 0.609125 0.132278
H4    H     H_    0.052197 0.691747 0.390875 0.132277
H5    H     H_    0.939974 0.508051 0.269506 0.132858
H6    H     H_    0.060026 0.491950 0.730494 0.132858
H7    H     H_    0.391138 0.118316 0.369166 0.140716
H8    H     H_    0.608866 0.881684 0.630831 0.140716
H9    H     H_    0.609781 0.614955 0.134599 0.149786
H10   H     H_    0.390219 0.385045 0.865401 0.149786
N1    N     N_R   0.499980 0.499970 0.857200 -0.098834
N2    N     N_R   0.500020 0.500030 0.142800 -0.098833
O1    O     O_R   0.499990 0.316750 0.614620 -0.612643
O2    O     O_R   0.500010 0.683250 0.385380 -0.612641
O3    O     O_R   0.500000 0.316780 0.385290 -0.625422
O4    O     O_R   0.500000 0.683220 0.614710 -0.625423
O5    O     O_R   0.376780 0.499970 0.614640 -0.613215
O6    O     O_R   0.623220 0.500030 0.385360 -0.613217
O7    O     O_R   0.376780 0.500000 0.385310 -0.618367
O8    O     O_R   0.623220 0.500000 0.614690 -0.618368
Zn1   Zn    Zn3+2 0.500000 0.499980 0.653120 0.942100
Zn2   Zn    Zn3+2 0.500000 0.500020 0.346880 0.942101
C27   C     C_3   0.363327 0.868576 0.347578 -0.884122
H11   H     H_    0.329041 0.803919 0.415820 0.227361
H12   H     H_    0.316341 0.935502 0.305001 0.227417
H13   H     H_    0.389141 0.814086 0.262360 0.261437
C28   C     C_3   0.636679 0.131423 0.652420 -0.884134
H14   H     H_    0.670969 0.196072 0.584174 0.227360
H15   H     H_    0.610866 0.185923 0.737632 0.261438
H16   H     H_    0.683661 0.064495 0.695005 0.227421
C29   C     C_3   0.633713 0.634281 0.868015 -0.846337
H17   H     H_    0.610135 0.693933 0.785119 0.265099
H18   H     H_    0.667841 0.697980 0.941126 0.193676
H19   H     H_    0.680989 0.566370 0.831798 0.249204
C30   C     C_3   0.366287 0.365719 0.131984 -0.846335
H20   H     H_    0.389865 0.306066 0.214879 0.265097
H21   H     H_    0.319012 0.433630 0.168204 0.249204
H22   H     H_    0.332157 0.302022 0.058873 0.193675

loop_
_geom_bond_atom_site_label_1
_geom_bond_atom_site_label_2
_ccdc_geom_bond_type
C16   H2    S    
C30   H22   S    
C4    C26   A    
C11   O5    A    
C14   C20   S    
C4    C28   S    
N1    Zn1   S    
C28   H15   S    
C15   H1    S    
C15   C21   S    
C10   N2    A    
C27   H13   S    
C3    C5    A    
C22   C24   S    
C9    N1    A    
C3    C27   S    
C12   O6    A    
O6    Zn2   S    
C30   H21   S    
C28   H14   S    
C6    C25   A    
C7    H9    S    
C29   H17   S    
C17   C23   T    
O5    Zn1   S    
C2    O4    A    
C16   C19   S    
C18   C24   T    
C19   H6    S    
C14   C21   S    
C13   H3    S    
C19   C21   S    
O3    Zn2   S    
C20   C22   S    
C13   C22   S    
C27   H11   S    
C9    C29   S    
O4    Zn1   S    
C13   C15   S    
C21   C23   S    
C30   H20   S    
C20   H5    S    
C14   C16   S    
C11   O7    A    
C2    C5    S    
C29   H18   S    
C8    N1    A    
C1    O1    A    
C12   C18   S    
C5    C26   A    
C10   C30   S    
C2    O2    A    
C3    C25   A    
O1    Zn1   S    
C4    C6    A    
C8    H10   S    
C28   H16   S    
C1    O3    A    
C7    C9    A    
C13   C19   S    
O2    Zn2   S    
O8    Zn1   S    
C11   C17   S    
C29   H19   S    
C16   C22   S    
O7    Zn2   S    
C26   H8    S    
C14   H4    S    
N2    Zn2   S    
C7    N2    A    
C8    C10   A    
C1    C6    S    
C25   H7    S    
C15   C20   S    
C27   H12   S    
C12   O8    A    
