data_mof_unit_64247.cif
_audit_creation_date              2012-10-26T19:36:57-0400
_audit_creation_method            fapswitch 2.2
_symmetry_space_group_name_H-M    P1
_symmetry_Int_Tables_number       1
_space_group_crystal_system       triclinic
_cell_length_a                    10.891262
_cell_length_b                    17.753788
_cell_length_c                    16.575412
_cell_angle_alpha                 89.978487
_cell_angle_beta                  91.328329
_cell_angle_gamma                 91.826631
_cell_volume                      3202.55113698

loop_
_atom_site_label
_atom_site_type_symbol
_atom_type_description
_atom_site_fract_x
_atom_site_fract_y
_atom_site_fract_z
_atom_type_partial_charge
C1    C     C_R   0.502632 0.355811 0.499634 0.624883
C2    C     C_R   0.609505 0.234979 0.474469 -0.029927
C3    C     C_R   0.497133 0.726909 0.502627 0.044533
C4    C     C_R   0.503325 0.273122 0.497591 0.025962
C5    C     C_R   0.604248 0.767716 0.481138 0.213429
C6    C     C_R   0.396341 0.232176 0.519068 0.208767
C7    C     C_R   0.603210 0.846562 0.473755 0.040540
C8    C     C_R   0.397654 0.153344 0.526431 0.033951
C9    C     C_R   0.496593 0.884908 0.494430 -0.014639
C10   C     C_R   0.504444 0.115138 0.505851 -0.016600
C11   C     C_1   0.499693 0.966215 0.497995 0.068262
C12   C     C_R   0.497430 0.644201 0.500405 0.604883
C13   C     C_1   0.501515 0.033837 0.502195 0.066726
C14   C     C_R   0.562715 0.557549 0.830830 0.186145
C15   C     C_R   0.439547 0.443356 0.168150 0.137271
C16   C     C_R   0.261908 0.499752 0.498683 0.587892
C17   C     C_R   0.738029 0.500880 0.501304 0.566685
C18   C     C_R   0.565071 0.555359 0.744820 0.074848
C19   C     C_R   0.438047 0.443939 0.254008 0.078345
C20   C     C_R   0.429229 0.448191 0.743401 0.404444
C21   C     C_R   0.568303 0.553502 0.257025 0.396212
C22   C     C_R   0.429292 0.447248 0.829070 0.204084
C23   C     C_R   0.871832 0.502011 0.503616 0.022414
C24   C     C_R   0.567133 0.555928 0.171300 0.199782
C25   C     C_R   0.497171 0.501951 0.873619 -0.031782
C26   C     C_R   0.501542 0.500783 0.126026 -0.018068
C27   C     C_1   0.498579 0.501747 0.962846 0.196945
C28   C     C_1   0.500388 0.501600 0.036812 0.204408
C29   C     C_R   0.203496 0.601359 0.238394 -0.057081
C30   C     C_R   0.800349 0.401805 0.763152 -0.060521
C31   C     C_R   0.164303 0.591152 0.319050 0.022125
C32   C     C_R   0.838120 0.411451 0.682136 0.028310
C33   C     C_R   0.106978 0.521943 0.342033 -0.029899
C34   C     C_R   0.128004 0.499811 0.496368 0.025954
C35   C     C_R   0.892442 0.481113 0.657852 -0.065353
C36   C     C_R   0.076886 0.467189 0.282542 0.276572
C37   C     C_R   0.919325 0.537478 0.716031 0.209292
C38   C     C_R   0.101633 0.481186 0.201068 0.308200
C39   C     C_R   0.898062 0.523777 0.798019 0.304877
C40   C     C_R   0.165720 0.548078 0.178188 -0.069528
C41   C     C_R   0.837705 0.456092 0.822398 -0.072634
C42   C     C_R   0.930350 0.513204 0.430226 -0.052366
C43   C     C_R   0.069418 0.489382 0.569910 -0.047053
C44   C     C_2   0.190714 0.563565 0.091530 0.301188
C45   C     C_R   0.942735 0.491187 0.575261 -0.014822
C46   C     C_2   0.815869 0.440897 0.909501 0.301156
C47   C     C_2   0.714328 0.887836 0.444156 0.309119
C48   C     C_2   0.286650 0.111928 0.555969 0.306584
C49   C     C_2   0.636838 0.615114 0.703184 0.375755
C50   C     C_2   0.376855 0.378181 0.292271 0.372802
C51   C     C_2   0.289648 0.665127 0.217872 0.303332
C52   C     C_2   0.715852 0.337662 0.785033 0.301483
C53   C     C_2   0.171482 0.654358 0.378133 0.309222
C54   C     C_2   0.831898 0.347558 0.623882 0.319645
C55   C     C_2   0.281237 0.887447 0.543410 0.293370
C56   C     C_R   0.057009 0.511174 0.424715 -0.011881
C57   C     C_2   0.720161 0.112899 0.457454 0.291445
C58   C     C_2   0.279902 0.723561 0.555149 0.294355
C59   C     C_2   0.721451 0.276893 0.446721 0.283260
C60   C     C_R   0.390973 0.844758 0.520879 -0.016701
C61   C     C_R   0.610150 0.155437 0.479771 -0.019182
C62   C     C_R   0.391435 0.765228 0.526349 -0.013481
Cl1   Cl    Cl    0.643080 0.629772 0.886104 -0.331166
Cl2   Cl    Cl    0.955852 0.590663 0.869703 -0.284486
Cl3   Cl    Cl    0.742518 0.719557 0.467926 -0.510141
Cl4   Cl    Cl    0.258048 0.280175 0.532788 -0.481745
Cl5   Cl    Cl    0.363353 0.369641 0.112630 -0.408316
Cl6   Cl    Cl    0.329890 0.383338 0.692807 -0.378963
Cl7   Cl    Cl    0.668273 0.617829 0.307860 -0.383773
Cl8   Cl    Cl    0.341251 0.378002 0.880822 -0.348637
Cl9   Cl    Cl    0.651459 0.627423 0.120339 -0.354371
Cl10  Cl    Cl    0.002565 0.380895 0.309893 -0.390160
Cl11  Cl    Cl    0.985819 0.625258 0.686266 -0.420941
Cl12  Cl    Cl    0.044203 0.415500 0.127983 -0.300349
Cu1   Cu    Cu3+1 0.499990 0.499980 0.580420 1.108785
Cu2   Cu    Cu3+1 0.500010 0.500020 0.419580 1.143925
H1    H     H_    0.877030 0.523065 0.375392 0.200314
H2    H     H_    0.721866 0.310930 0.843595 0.129924
H3    H     H_    0.167413 0.642682 0.441868 0.082268
H4    H     H_    0.835006 0.358553 0.559951 0.089827
H5    H     H_    0.254194 0.935474 0.507426 0.146528
H6    H     H_    0.746769 0.064605 0.493165 0.150440
H7    H     H_    0.189295 0.743462 0.539434 0.174615
H8    H     H_    0.811855 0.257008 0.463005 0.179674
H9    H     H_    0.122591 0.479979 0.624908 0.204829
H10   H     H_    0.192828 0.620746 0.068791 0.130348
H11   H     H_    0.817001 0.383899 0.932692 0.132158
H12   H     H_    0.805387 0.867975 0.458518 0.183313
H13   H     H_    0.195517 0.131504 0.541285 0.180722
H14   H     H_    0.700285 0.601642 0.656895 0.146940
H15   H     H_    0.402207 0.321821 0.275308 0.158811
H16   H     H_    0.285069 0.692587 0.159657 0.130410
N1    N     N_R   0.499970 0.499970 0.701220 -0.304455
N2    N     N_R   0.500030 0.500030 0.298780 -0.280331
O1    O     O_R   0.499990 0.391240 0.567930 -0.434133
O2    O     O_2   0.795931 0.491554 0.956689 -0.369034
O3    O     O_2   0.705146 0.942877 0.400565 -0.450762
O4    O     O_2   0.296010 0.057123 0.599882 -0.445315
O5    O     O_2   0.623726 0.681427 0.719333 -0.370873
O6    O     O_2   0.293993 0.385202 0.339354 -0.427677
O7    O     O_2   0.370442 0.686288 0.265731 -0.407808
O8    O     O_2   0.634632 0.315482 0.737988 -0.408781
O9    O     O_2   0.174325 0.720089 0.356371 -0.439508
O10   O     O_2   0.830663 0.282088 0.646507 -0.435781
O11   O     O_2   0.223441 0.871394 0.603618 -0.398694
O12   O     O_R   0.500010 0.608760 0.432070 -0.438792
O13   O     O_2   0.778722 0.129395 0.397694 -0.409176
O14   O     O_2   0.287201 0.668621 0.598986 -0.430891
O15   O     O_2   0.714741 0.332047 0.403148 -0.453259
O16   O     O_R   0.500000 0.391270 0.432120 -0.464795
O17   O     O_R   0.500000 0.608730 0.567880 -0.482134
O18   O     O_R   0.319640 0.499990 0.567910 -0.450639
O19   O     O_R   0.680360 0.500010 0.432090 -0.445254
O20   O     O_R   0.319650 0.500020 0.432090 -0.486644
O21   O     O_R   0.680350 0.499980 0.567910 -0.569776
O22   O     O_2   0.209637 0.512876 0.044161 -0.364209

loop_
_geom_bond_atom_site_label_1
_geom_bond_atom_site_label_2
_ccdc_geom_bond_type
C58   C62   S    
C12   O12   A    
C20   N1    A    
C34   C56   A    
C23   C45   A    
C14   C18   A    
C49   H14   S    
Cu1   O1    S    
C39   C41   A    
C15   C19   A    
C39   Cl2   S    
C52   O8    D    
Cu1   O18   S    
C17   C23   S    
C23   C42   A    
C55   O11   D    
C54   O10   D    
C53   H3    S    
C24   C26   A    
C17   O21   A    
C29   C51   S    
C1    O16   A    
C52   H2    S    
C21   N2    A    
C33   C36   A    
C60   C62   A    
C30   C52   S    
C3    C12   S    
C16   C34   S    
C22   C25   A    
Cu2   O20   S    
C41   C46   S    
C31   C33   A    
C30   C41   A    
C55   H5    S    
C2    C61   A    
Cu2   N2    S    
C33   C56   S    
C38   C40   A    
C55   C60   S    
C44   H10   S    
C32   C54   S    
C54   H4    S    
C37   C39   A    
C17   O19   A    
C43   H9    S    
C32   C35   A    
C59   H8    S    
C5    Cl3   S    
C5    C7    A    
C2    C59   S    
C15   C26   A    
C6    C8    A    
C21   Cl7   S    
C7    C47   S    
C2    C4    A    
Cu1   Cu2   S    
C8    C48   S    
C51   H16   S    
C49   O5    D    
C43   C45   A    
C40   C44   S    
C1    O1    A    
C15   Cl5   S    
Cu2   O19   S    
C31   C53   S    
C42   C56   A    
C9    C11   S    
C19   N2    A    
C4    C6    A    
C57   O13   D    
C20   C22   A    
C48   H13   S    
C10   C61   A    
Cu1   O21   S    
C24   Cl9   S    
C35   C45   S    
C16   O18   A    
C46   H11   S    
C38   Cl12  S    
C3    C62   A    
C7    C9    A    
C37   Cl11  S    
Cu2   O12   S    
C35   C37   A    
Cu1   O17   S    
C20   Cl6   S    
C34   C43   A    
C3    C5    A    
C10   C13   S    
C16   O20   A    
C57   C61   S    
C25   C27   S    
C48   O4    D    
C26   C28   S    
C47   O3    D    
Cu2   O16   S    
C9    C60   A    
C47   H12   S    
C1    C4    S    
C36   C38   A    
C29   C31   A    
C58   H7    S    
C30   C32   A    
C11   C13   T    
C19   C50   S    
C53   O9    D    
Cu1   N1    S    
C14   Cl1   S    
C29   C40   A    
C59   O15   D    
C58   O14   D    
C14   C25   A    
C50   O6    D    
C50   H15   S    
C6    Cl4   S    
C46   O2    D    
C44   O22   D    
C42   H1    S    
C8    C10   A    
C21   C24   A    
C27   C28   T    
C18   N1    A    
C57   H6    S    
C22   Cl8   S    
C12   O17   A    
C51   O7    D    
C36   Cl10  S    
C18   C49   S    
