data_mof_unit_58193.cif
_audit_creation_date              2012-12-11T15:41:22-0500
_audit_creation_method            fapswitch 2.2
_symmetry_space_group_name_H-M    P1
_symmetry_Int_Tables_number       1
_space_group_crystal_system       triclinic
_cell_length_a                    14.969466
_cell_length_b                    14.962129
_cell_length_c                    14.933746
_cell_angle_alpha                 108.99711
_cell_angle_beta                  110.069667
_cell_angle_gamma                 109.588764
_cell_volume                      2566.93430173

loop_
_atom_site_label
_atom_site_type_symbol
_atom_type_description
_atom_site_fract_x
_atom_site_fract_y
_atom_site_fract_z
_atom_type_partial_charge
C1    C     C_R   0.196360 0.995833 0.903556 -0.126642
C2    C     C_R   0.814610 0.764597 0.289388 -0.127964
C3    C     C_R   0.290964 0.187815 0.659308 -0.145648
C4    C     C_R   0.713543 0.688985 0.191884 -0.151257
C5    C     C_R   0.294703 0.272393 0.740445 0.112635
C6    C     C_R   0.708892 0.654126 0.090010 0.110050
C7    C     C_R   0.196514 0.258250 0.739629 -0.168582
C8    C     C_R   0.806954 0.693326 0.087581 -0.197305
C9    C     C_R   0.097045 0.161116 0.659996 -0.114731
C10   C     C_R   0.907691 0.768922 0.185131 -0.117527
C11   C     C_R   0.094386 0.077360 0.580437 -0.100735
C12   C     C_R   0.771698 0.956415 0.047674 -0.131910
C13   C     C_R   0.911539 0.804373 0.285909 -0.089366
C14   C     C_R   0.407191 0.474972 0.858826 -0.230469
C15   C     C_R   0.598990 0.468249 0.940515 -0.222576
C16   C     C_R   0.747922 0.222381 0.314395 -0.120769
C17   C     C_R   0.195711 0.790611 0.699165 -0.138316
C18   C     C_R   0.505176 0.571323 0.946648 0.062427
C19   C     C_R   0.498074 0.372156 0.882781 0.042143
C20   C     C_R   0.603746 0.567152 0.987479 0.028866
C21   C     C_R   0.401327 0.373613 0.827765 0.032771
C22   C     C_R   0.870909 0.527628 0.427829 -0.166782
C23   C     C_R   0.773374 0.325113 0.325045 0.039809
C24   C     C_R   0.964361 0.522547 0.621610 -0.170250
C25   C     C_R   0.963226 0.620935 0.520995 -0.171245
C26   C     C_R   0.872200 0.429254 0.528360 -0.164892
C27   C     C_R   0.016780 0.615347 0.614913 0.140831
C28   C     C_R   0.833082 0.428416 0.428161 0.141501
C29   C     C_R   0.595376 0.944415 0.569423 -0.168686
C30   C     C_R   0.396817 0.845036 0.375372 -0.173162
C31   C     C_R   0.596142 0.938752 0.475464 -0.177366
C32   C     C_R   0.396164 0.851688 0.469465 -0.171758
C33   C     C_R   0.497216 0.899815 0.381641 0.143446
C34   C     C_R   0.132270 0.697083 0.696798 0.048164
C35   C     C_R   0.495910 0.912590 0.569290 0.148322
C36   C     C_R   0.969880 0.847063 0.944509 -0.172464
C37   C     C_R   0.891939 0.965854 0.864294 -0.169892
C38   C     C_R   0.892601 0.866056 0.963542 -0.177938
C39   C     C_R   0.969875 0.947473 0.845781 -0.171442
C40   C     C_R   0.407739 0.906001 0.208253 -0.123185
C41   C     C_R   0.589542 0.036063 0.774469 -0.126150
C42   C     C_R   0.862948 0.935774 0.934092 0.153306
C43   C     C_R   0.018705 0.900313 0.898342 0.145810
C44   C     C_R   0.589197 0.293508 0.986558 -0.132922
C45   C     C_R   0.498848 0.933610 0.300922 0.045172
C46   C     C_R   0.408724 0.684339 0.955838 -0.126112
C47   C     C_R   0.590847 0.995260 0.299949 -0.142319
C48   C     C_R   0.405993 0.937465 0.684600 -0.129992
C49   C     C_R   0.406913 0.204960 0.900223 -0.131755
C50   C     C_R   0.592638 0.777989 0.051204 -0.136497
C51   C     C_R   0.747495 0.313969 0.221859 -0.126335
C52   C     C_R   0.196752 0.699094 0.790321 -0.130427
C53   C     C_R   0.196242 0.904103 0.995001 -0.122363
C54   C     C_R   0.772784 0.049592 0.957843 -0.128698
C55   C     C_R   0.132172 0.931654 0.930474 0.043580
C56   C     C_R   0.497011 0.957379 0.672185 0.040880
C57   C     C_R   0.806037 0.979798 0.979132 0.044185
C58   C     C_R   0.496861 0.291888 0.919317 0.065854
C59   C     C_R   0.502277 0.673414 0.986027 0.055704
C60   C     C_R   0.191166 0.090684 0.579902 -0.119650
H1    H     H_    0.170079 0.021510 0.844386 0.090678
H2    H     H_    0.982913 0.799046 0.182645 0.106044
H3    H     H_    0.333786 0.477327 0.816974 0.124220
H4    H     H_    0.674951 0.466936 0.971289 0.122024
H5    H     H_    0.837598 0.531720 0.353545 0.115174
H6    H     H_    0.999415 0.517314 0.694839 0.104399
H7    H     H_    0.997487 0.693264 0.514841 0.106718
H8    H     H_    0.839993 0.355773 0.533268 0.107066
H9    H     H_    0.673469 0.983468 0.643743 0.104258
H10   H     H_    0.318444 0.807380 0.302051 0.105467
H11   H     H_    0.674837 0.974913 0.480734 0.104758
H12   H     H_    0.798287 0.918975 0.093402 0.097287
H13   H     H_    0.317536 0.818995 0.464966 0.107454
H14   H     H_    0.999850 0.802410 0.978312 0.102788
H15   H     H_    0.862346 0.011271 0.831459 0.101958
H16   H     H_    0.757861 0.200300 0.377630 0.093627
H17   H     H_    0.167476 0.823374 0.647889 0.083757
H18   H     H_    0.864169 0.833924 0.009385 0.117273
H19   H     H_    0.000008 0.981899 0.801800 0.107128
H20   H     H_    0.322763 0.847554 0.174783 0.082038
H21   H     H_    0.671984 0.079798 0.791526 0.083012
H22   H     H_    0.673095 0.341016 0.007800 0.087581
H23   H     H_    0.189012 0.025589 0.518285 0.102848
H24   H     H_    0.323336 0.620660 0.908320 0.089166
H25   H     H_    0.674921 0.018548 0.351865 0.087292
H26   H     H_    0.320260 0.883549 0.622211 0.093108
H27   H     H_    0.321023 0.172320 0.845384 0.116860
H28   H     H_    0.677185 0.802867 0.095124 0.117255
H29   H     H_    0.756447 0.376324 0.198791 0.098086
H30   H     H_    0.170115 0.647520 0.823026 0.080234
H31   H     H_    0.169899 0.845107 0.020420 0.081125
H32   H     H_    0.800162 0.097263 0.922460 0.082446
H33   H     H_    0.017216 0.002145 0.519571 0.095339
H34   H     H_    0.817945 0.791482 0.367678 0.107641
H35   H     H_    0.989888 0.861607 0.361212 0.091134
H36   H     H_    0.365390 0.196668 0.658281 0.116272
H37   H     H_    0.639158 0.657137 0.195557 0.118072
H38   H     H_    0.197157 0.321195 0.802065 0.107270
H39   H     H_    0.805214 0.664205 0.010097 0.117195
H40   H     H_    0.022064 0.150425 0.660501 0.101783
N1    N     N_R   0.293810 0.002730 0.945950 -0.039257
N2    N     N_R   0.443210 0.997250 0.791090 -0.039249
N3    N     N_R   0.443180 0.152110 0.945950 -0.042089
N4    N     N_R   0.556820 0.847890 0.054050 -0.040199
N5    N     N_R   0.706170 0.208950 0.152090 -0.042248
N6    N     N_R   0.293830 0.791050 0.847910 -0.037018
N7    N     N_R   0.293800 0.945910 0.002760 -0.039146
N8    N     N_R   0.706200 0.054090 0.997240 -0.037891
N9    N     N_R   0.706190 0.997270 0.054050 -0.039189
N10   N     N_R   0.706160 0.152130 0.208910 -0.041766
N11   N     N_R   0.293840 0.847870 0.791090 -0.036846
N12   N     N_R   0.443140 0.945920 0.152090 -0.038951
N13   N     N_R   0.556860 0.054080 0.847910 -0.038758
N14   N     N_R   0.556830 0.208940 0.002760 -0.041717
N15   N     N_R   0.443170 0.791060 0.997240 -0.039665
N16   N     N_R   0.556790 0.002750 0.208910 -0.038887
Ni1   Ni    Ni4+2 0.369690 0.999990 0.869700 0.211191
Ni2   Ni    Ni4+2 0.630310 0.000010 0.130300 0.216412
Ni3   Ni    Ni4+2 0.369670 0.869670 0.000000 0.206889
Ni4   Ni    Ni4+2 0.630330 0.130330 0.000000 0.211175

loop_
_geom_bond_atom_site_label_1
_geom_bond_atom_site_label_2
_ccdc_geom_bond_type
N1    N7    A    
N5    N10   A    
C50   N4    A    
C7    H38   S    
N6    Ni3   S    
C33   C45   S    
C14   C18   A    
C52   H30   S    
C25   H7    S    
C24   C27   A    
C9    H40   S    
N10   Ni2   S    
C16   N10   A    
C40   N12   A    
N3    Ni1   S    
C15   C19   A    
C46   N15   A    
C13   H35   S    
C50   C59   A    
C47   H25   S    
C14   C21   A    
C19   C21   A    
C8    H39   S    
C24   C26   A    
C38   C42   A    
C41   C56   A    
C44   H22   S    
C46   C59   A    
C60   H23   S    
N4    N15   A    
N8    N9    A    
C48   C56   A    
C45   C47   A    
N7    Ni3   S    
C37   C42   A    
C2    C13   A    
N8    Ni4   S    
C44   C58   A    
C22   C25   A    
C53   H31   S    
C15   H4    S    
C40   H20   S    
N5    Ni4   S    
C3    H36   S    
C29   H9    S    
C50   H28   S    
C3    C60   A    
C11   H33   S    
C31   H11   S    
C12   H12   S    
C44   N14   A    
C19   C58   S    
C22   C28   A    
C4    H37   S    
C10   H2    S    
C17   N11   A    
C42   C57   S    
C17   H17   S    
C12   N9    A    
C30   H10   S    
N9    Ni2   S    
N4    Ni2   S    
N6    N11   A    
C53   C55   A    
C27   C34   S    
C15   C20   A    
C32   C35   A    
C2    H34   S    
N3    N14   A    
C4    C6    A    
C32   H13   S    
C5    C7    A    
C39   C43   A    
C38   H18   S    
C49   C58   A    
C39   H19   S    
C2    C4    A    
C49   H27   S    
C22   H5    S    
C54   H32   S    
N13   Ni4   S    
C53   N7    A    
C23   C51   A    
C51   N5    A    
C41   H21   S    
C31   C33   A    
C23   C28   S    
C9    C11   A    
N2    Ni1   S    
C36   H14   S    
C46   H24   S    
C12   C57   A    
C43   C55   S    
C16   C23   A    
N15   Ni3   S    
C48   H26   S    
C17   C34   A    
C11   C60   A    
C1    N1    A    
N12   N16   A    
C7    C9    A    
C30   C33   A    
C35   C56   S    
C16   H16   S    
C34   C52   A    
C8    C10   A    
C41   N13   A    
C3    C5    A    
C10   C13   A    
C1    H1    S    
C49   N3    A    
N12   Ni3   S    
C6    C8    A    
C24   H6    S    
C25   C27   A    
C6    C20   S    
C29   C35   A    
C26   C28   A    
C54   N8    A    
C48   N2    A    
N11   Ni1   S    
N1    Ni1   S    
C36   C38   A    
C1    C55   A    
C26   H8    S    
C29   C31   A    
N2    N13   A    
C51   H29   S    
C30   C32   A    
C14   H3    S    
C47   N16   A    
N16   Ni2   S    
C18   C20   A    
C37   H15   S    
C52   N6    A    
C18   C59   S    
C5    C21   S    
C40   C45   A    
C37   C39   A    
C36   C43   A    
N14   Ni4   S    
C54   C57   A    
