data_mof_unit_60451.cif
_audit_creation_date              2012-12-10T17:26:31-0500
_audit_creation_method            fapswitch 2.2
_symmetry_space_group_name_H-M    P1
_symmetry_Int_Tables_number       1
_space_group_crystal_system       triclinic
_cell_length_a                    42.568458
_cell_length_b                    29.421979
_cell_length_c                    30.747244
_cell_angle_alpha                 90.003005
_cell_angle_beta                  136.274303
_cell_angle_gamma                 89.997793
_cell_volume                      26617.9045719

loop_
_atom_site_label
_atom_site_type_symbol
_atom_type_description
_atom_site_fract_x
_atom_site_fract_y
_atom_site_fract_z
_atom_type_partial_charge
C1    C     C_R   0.585494 0.500000 0.585943 0.825656
C2    C     C_R   0.085494 1.000000 0.585943 0.825656
C3    C     C_3   0.452224 0.505201 0.173784 -0.526131
C4    C     C_3   0.952285 0.005727 0.173844 -0.526140
C5    C     C_3   0.452160 0.505232 0.223861 -0.391270
C6    C     C_3   0.952221 0.005763 0.223921 -0.391261
C7    C     C_1   0.500734 0.499857 0.158948 -0.021265
C8    C     C_1   0.000733 0.999844 0.158947 -0.021263
C9    C     C_1   0.500817 0.499934 0.336204 -0.089450
C10   C     C_1   0.000816 0.999928 0.336203 -0.089450
C11   C     C_1   0.500340 0.499983 0.374049 -0.193659
C12   C     C_1   0.000340 0.999981 0.374049 -0.193659
C13   C     C_1   0.636540 0.500000 0.636896 -0.207049
C14   C     C_1   0.136540 1.000000 0.636896 -0.207049
C15   C     C_1   0.678861 0.500000 0.679139 0.001995
C16   C     C_1   0.178861 1.000000 0.679139 0.001995
C17   C     C_1   0.729025 0.500000 0.729213 0.003701
C18   C     C_1   0.229025 1.000000 0.729213 0.003701
C19   C     C_1   0.771346 0.500000 0.771464 0.003744
C20   C     C_1   0.271346 1.000000 0.771464 0.003744
C21   C     C_1   0.821509 0.500000 0.821556 0.003131
C22   C     C_1   0.321509 1.000000 0.821556 0.003131
C23   C     C_R   0.499886 0.499998 0.418713 0.866739
C24   C     C_R   0.999886 0.999998 0.418713 0.866739
C25   C     C_1   0.863831 0.500000 0.863836 -0.199327
C26   C     C_1   0.363831 1.000000 0.863836 -0.199327
C27   C     C_1   0.499978 0.500003 0.635285 -0.204012
C28   C     C_1   0.999978 0.000003 0.635285 -0.204012
C29   C     C_1   0.499982 0.500003 0.676670 0.013023
C30   C     C_1   0.999982 0.000003 0.676670 0.013023
C31   C     C_1   0.499988 0.500002 0.726100 0.002193
C32   C     C_1   0.999988 0.000002 0.726100 0.002193
C33   C     C_1   0.499993 0.500002 0.767487 0.002165
C34   C     C_1   0.999993 0.000002 0.767487 0.002165
C35   C     C_1   0.500000 0.500001 0.816918 0.012737
C36   C     C_1   1.000000 0.000001 0.816918 0.012737
C37   C     C_1   0.500007 0.500001 0.858306 -0.202830
C38   C     C_1   0.000007 0.000001 0.858306 -0.202831
C39   C     C_1   0.363415 0.500000 0.363777 -0.206645
C40   C     C_1   0.863415 0.000000 0.363777 -0.206645
C41   C     C_1   0.321095 0.500000 0.321395 0.002322
C42   C     C_1   0.821095 0.000000 0.321395 0.002321
C43   C     C_1   0.270934 0.500000 0.271163 0.004044
C44   C     C_1   0.770934 0.000000 0.271163 0.004044
C45   C     C_R   0.414457 0.500000 0.414898 0.825241
C46   C     C_R   0.914457 0.000000 0.414898 0.825241
C47   C     C_1   0.228615 0.500000 0.228788 0.004040
C48   C     C_1   0.728615 0.000000 0.228788 0.004039
C49   C     C_1   0.178454 0.500000 0.178566 0.003344
C50   C     C_1   0.678454 0.000000 0.178566 0.003344
C51   C     C_1   0.136135 0.500000 0.136202 -0.199187
C52   C     C_1   0.636135 0.000000 0.136202 -0.199187
C53   C     C_R   0.500034 0.585446 0.994564 0.824595
C54   C     C_R   0.500034 0.414554 0.994565 0.825482
C55   C     C_R   0.000033 0.085446 0.994564 0.824553
C56   C     C_R   0.000034 0.914554 0.994565 0.825529
C57   C     C_R   0.500040 0.500011 0.074820 0.863273
C58   C     C_R   0.000040 0.000013 0.074820 0.863278
C59   C     C_R   0.500022 0.500000 0.908659 0.811106
C60   C     C_R   0.000022 0.000000 0.908659 0.811106
C61   C     C_R   0.000015 0.414866 0.999129 0.815989
C62   C     C_R   0.000016 0.585134 0.999131 0.816003
C63   C     C_R   0.500015 0.914866 0.999129 0.815989
C64   C     C_R   0.500016 0.085134 0.999131 0.816003
C65   C     C_R   0.914877 0.500000 0.914880 0.816106
C66   C     C_R   0.414877 1.000000 0.914880 0.816106
C67   C     C_R   0.085092 0.500000 0.085124 0.816245
C68   C     C_R   0.585092 1.000000 0.085124 0.816245
C69   C     C_1   0.500048 0.636498 0.995400 -0.205656
C70   C     C_1   0.500048 0.363502 0.995403 -0.205086
C71   C     C_1   0.000048 0.136498 0.995400 -0.205681
C72   C     C_1   0.000048 0.863502 0.995403 -0.205056
C73   C     C_R   0.499974 0.500001 0.584944 0.812577
C74   C     C_R   0.999974 0.000001 0.584944 0.812578
C75   C     C_1   0.500050 0.678820 0.996123 0.002703
C76   C     C_1   0.500051 0.321180 0.996127 0.003055
C77   C     C_1   0.000050 0.178820 0.996123 0.002688
C78   C     C_1   0.000051 0.821180 0.996127 0.003074
C79   C     C_1   0.500047 0.728989 0.996980 0.004042
C80   C     C_1   0.500047 0.271011 0.996986 0.004219
C81   C     C_1   0.000047 0.228989 0.996980 0.004035
C82   C     C_1   0.000047 0.771011 0.996986 0.004228
C83   C     C_1   0.000042 0.271311 0.997675 0.003956
C84   C     C_1   0.000042 0.728689 0.997681 0.004062
C85   C     C_1   0.500042 0.771312 0.997675 0.003959
C86   C     C_1   0.500042 0.228689 0.997681 0.004057
C87   C     C_1   0.000034 0.321482 0.998422 0.003314
C88   C     C_1   0.000034 0.678519 0.998429 0.003374
C89   C     C_1   0.500034 0.821482 0.998422 0.003316
C90   C     C_1   0.500034 0.178518 0.998429 0.003371
C91   C     C_1   0.000026 0.363808 0.998906 -0.199231
C92   C     C_1   0.000026 0.636192 0.998911 -0.199195
C93   C     C_1   0.500026 0.863808 0.998906 -0.199230
C94   C     C_1   0.500026 0.136192 0.998911 -0.199197
C95   C     C_3   0.530995 0.539723 0.303426 -0.427833
C96   C     C_3   0.521663 0.454496 0.294125 -0.427310
C97   C     C_3   0.031435 0.039375 0.303864 -0.427880
C98   C     C_3   0.021156 0.954257 0.293619 -0.427270
C99   C     C_3   0.519760 0.453269 0.241844 0.020162
C100  C     C_3   0.529408 0.541269 0.251458 0.020512
C101  C     C_3   0.019242 0.953050 0.241327 0.020155
C102  C     C_3   0.029862 0.040938 0.251912 0.020528
C103  C     C_1   0.500197 0.499935 0.120093 -0.178436
C104  C     C_1   0.000197 0.999930 0.120093 -0.178437
C105  C     C_3   0.501351 0.499855 0.290330 0.287406
C106  C     C_3   0.001349 0.999840 0.290328 0.287405
C107  C     C_3   0.501646 0.499774 0.206355 0.322470
C108  C     C_3   0.001644 0.999752 0.206353 0.322468
Cu1   Cu    Cu3+1 0.499970 0.542470 0.500570 0.957639
Cu2   Cu    Cu3+1 0.499970 0.457530 0.500570 0.957552
Cu3   Cu    Cu3+1 0.999970 0.042470 0.500570 0.957641
Cu4   Cu    Cu3+1 0.999970 0.957530 0.500570 0.957550
Cu5   Cu    Cu3+1 0.542500 0.500000 0.035600 0.968993
Cu6   Cu    Cu3+1 0.042500 0.000000 0.035600 0.968981
Cu7   Cu    Cu3+1 0.457550 0.500000 0.950640 0.956721
Cu8   Cu    Cu3+1 0.957550 0.000000 0.950640 0.956725
Cu9   Cu    Cu3+1 0.999990 0.500000 0.958110 0.962966
Cu10  Cu    Cu3+1 0.499990 0.000000 0.958110 0.962965
Cu11  Cu    Cu3+1 0.999980 0.500000 0.041890 0.959349
Cu12  Cu    Cu3+1 0.499980 0.000000 0.041890 0.959348
H1    H     H_    0.566346 0.535844 0.351104 0.164613
H2    H     H_    0.557022 0.450650 0.341801 0.164872
H3    H     H_    0.066742 0.035103 0.351496 0.164612
H4    H     H_    0.056468 0.950018 0.341252 0.164882
H5    H     H_    0.501863 0.425351 0.287557 0.156882
H6    H     H_    0.517965 0.572477 0.303596 0.156971
H7    H     H_    0.001031 0.925336 0.286726 0.156872
H8    H     H_    0.018772 0.072273 0.304402 0.156974
H9    H     H_    0.494442 0.426763 0.207105 0.132461
H10   H     H_    0.510436 0.572621 0.223036 0.132242
H11   H     H_    0.993632 0.926826 0.206296 0.132459
H12   H     H_    0.011239 0.072498 0.223838 0.132254
H13   H     H_    0.437123 0.537600 0.220863 0.177526
H14   H     H_    0.430478 0.476897 0.214238 0.177200
H15   H     H_    0.937545 0.038298 0.221283 0.177543
H16   H     H_    0.930224 0.977672 0.213987 0.177184
H17   H     H_    0.437011 0.537460 0.146426 0.180154
H18   H     H_    0.430381 0.476995 0.139816 0.180470
H19   H     H_    0.937429 0.038151 0.146841 0.180138
H20   H     H_    0.930131 0.977763 0.139567 0.180484
O1    O     O_R   0.561950 0.535860 0.562460 -0.561676
O2    O     O_R   0.561950 0.464140 0.562460 -0.561700
O3    O     O_R   0.061950 0.035860 0.562460 -0.561675
O4    O     O_R   0.061950 0.964140 0.562460 -0.561701
O5    O     O_R   0.464160 0.500000 0.896130 -0.558824
O6    O     O_R   0.964160 0.000000 0.896130 -0.558824
O7    O     O_R   0.000010 0.438010 0.963800 -0.558003
O8    O     O_R   0.000010 0.561990 0.963800 -0.558010
O9    O     O_R   0.500010 0.938010 0.963800 -0.558004
O10   O     O_R   0.500010 0.061990 0.963800 -0.558010
O11   O     O_R   0.000000 0.438000 0.034540 -0.559161
O12   O     O_R   0.000000 0.562000 0.034540 -0.559142
O13   O     O_R   0.500000 0.938000 0.034540 -0.559161
O14   O     O_R   0.500000 0.062000 0.034540 -0.559143
O15   O     O_R   0.938010 0.500000 0.902650 -0.558210
O16   O     O_R   0.438010 0.000000 0.902650 -0.558210
O17   O     O_R   0.938010 0.500000 0.973390 -0.559058
O18   O     O_R   0.438010 0.000000 0.973390 -0.559058
O19   O     O_R   0.061960 0.500000 0.026610 -0.558077
O20   O     O_R   0.561960 0.000000 0.026610 -0.558077
O21   O     O_R   0.061960 0.500000 0.097350 -0.559019
O22   O     O_R   0.561960 0.000000 0.097350 -0.559020
O23   O     O_R   0.499980 0.535870 0.439370 -0.577569
O24   O     O_R   0.499980 0.464130 0.439370 -0.577598
O25   O     O_R   0.999980 0.035870 0.439370 -0.577567
O26   O     O_R   0.999980 0.964130 0.439370 -0.577600
O27   O     O_R   0.438000 0.535860 0.438500 -0.561764
O28   O     O_R   0.438000 0.464140 0.438500 -0.561801
O29   O     O_R   0.938000 0.035860 0.438500 -0.561764
O30   O     O_R   0.938000 0.964140 0.438500 -0.561801
O31   O     O_R   0.499970 0.535850 0.561590 -0.557335
O32   O     O_R   0.499970 0.464150 0.561590 -0.557348
O33   O     O_R   0.999970 0.035850 0.561590 -0.557336
O34   O     O_R   0.999970 0.964150 0.561590 -0.557348
O35   O     O_R   0.535890 0.561890 0.029840 -0.560518
O36   O     O_R   0.535890 0.438110 0.029840 -0.560105
O37   O     O_R   0.035890 0.061890 0.029840 -0.560539
O38   O     O_R   0.035890 0.938110 0.029840 -0.560087
O39   O     O_R   0.464160 0.561920 0.958100 -0.562354
O40   O     O_R   0.464160 0.438080 0.958100 -0.562398
O41   O     O_R   0.964160 0.061920 0.958100 -0.562351
O42   O     O_R   0.964160 0.938080 0.958100 -0.562398
O43   O     O_R   0.535890 0.500000 0.090110 -0.564217
O44   O     O_R   0.035890 0.000000 0.090110 -0.564232
O45   O     O_R   0.464150 0.500000 0.018360 -0.582328
O46   O     O_R   0.964150 0.000000 0.018360 -0.582320
O47   O     O_R   0.535900 0.500000 0.967880 -0.559028
O48   O     O_R   0.035900 0.000000 0.967880 -0.559028
N1    N     N_3   0.574848 0.544519 0.277263 -0.567199
H21   H     H_    0.598705 0.526208 0.319071 0.224898
H22   H     H_    0.585334 0.578454 0.289284 0.211363
N2    N     N_3   0.563409 0.440223 0.265854 -0.567993
H23   H     H_    0.590673 0.452969 0.311038 0.225087
H24   H     H_    0.566301 0.404826 0.270333 0.211325
N3    N     N_3   0.075336 0.043687 0.277749 -0.567162
H25   H     H_    0.098984 0.025096 0.319337 0.224927
H26   H     H_    0.086204 0.077501 0.290173 0.211366
N4    N     N_3   0.062745 0.939522 0.265193 -0.568048
H27   H     H_    0.090148 0.951948 0.310527 0.225059
H28   H     H_    0.065237 0.904093 0.269253 0.211327

loop_
_geom_bond_atom_site_label_1
_geom_bond_atom_site_label_2
_ccdc_geom_bond_type
C64   O10   A    
Cu4   O34   S    
C96   C105  S    
C87   C91   T    
Cu9   O19   S    
C2    O4    A    
C38   C60   S    
Cu10  O20   S    
C100  N1    S    
C8    C104  T    
C66   O18   A    
C28   C74   S    
C102  N3    S    
Cu11  O21   S    
C96   H2    S    
C39   C41   T    
C5    C105  S    
C98   H4    S    
C4    C108  S    
C75   C79   S    
C60   O6    A    
Cu9   O8    S    
C29   C31   S    
C35   C37   T    
C102  H12   S    
C74   O34   A    
Cu9   Cu11  S    
C99   N2    S    
Cu7   O45   S    
C100  H10   S    
C7    C103  T    
C27   C29   T    
C9    C105  S    
Cu5   O47   S    
C96   C99   S    
C64   O14   A    
Cu6   O48   S    
C18   C20   T    
C58   O44   A    
C54   O36   A    
C11   C23   S    
N1    H22   S    
C78   C82   S    
C63   O9    A    
C6    H16   S    
C1    O2    A    
Cu1   O27   S    
C33   C35   S    
C10   C12   T    
Cu2   O28   S    
Cu4   O30   S    
C88   C92   T    
C56   C72   S    
Cu8   O42   S    
Cu9   O15   S    
C80   C86   T    
C31   C33   T    
Cu10  O16   S    
N4    H27   S    
C3    H17   S    
C68   O22   A    
C73   O31   A    
C95   C105  S    
C57   O45   A    
C97   C102  S    
C52   C68   S    
Cu3   O3    S    
Cu5   O35   S    
C95   H1    S    
C101  C108  S    
C48   C50   S    
C53   C69   S    
C60   O48   A    
C62   O8    A    
Cu12  O18   S    
C2    O3    A    
C41   C43   S    
C9    C11   T    
Cu7   O5    S    
N1    H21   S    
C42   C44   S    
C97   H8    S    
C8    C108  S    
C81   C83   T    
Cu10  O10   S    
C90   C94   T    
C23   O23   A    
Cu11  O11   S    
C5    H14   S    
C57   C103  S    
C99   H9    S    
C26   C66   S    
C53   O39   A    
C84   C88   S    
N3    H25   S    
C25   C65   S    
C63   O13   A    
C74   O33   A    
C4    C6    S    
C86   C90   S    
Cu2   O24   S    
C95   C100  S    
Cu1   O1    S    
C56   O38   A    
C59   O47   A    
C49   C51   T    
C55   O37   A    
Cu8   O46   S    
C89   C93   T    
Cu7   O39   S    
C46   O30   A    
C62   C92   S    
Cu3   O29   S    
N2    H24   S    
Cu10  O9    S    
C40   C46   S    
C6    H15   S    
C45   O27   A    
C30   C32   S    
C4    H20   S    
Cu2   O2    S    
C67   O21   A    
C50   C52   T    
C54   C70   S    
C77   C81   S    
Cu11  O17   S    
Cu6   O37   S    
Cu4   O26   S    
Cu8   O41   S    
Cu12  O14   S    
C55   O41   A    
C3    H18   S    
C51   C67   S    
C73   O32   A    
C102  C108  S    
C61   O11   A    
C37   C59   S    
C62   O12   A    
Cu5   O36   S    
Cu3   O25   S    
C97   C106  S    
C59   O5    A    
C65   O17   A    
C98   H7    S    
C20   C22   S    
C82   C84   T    
C13   C15   T    
Cu1   O23   S    
C7    C107  S    
C58   O46   A    
C10   C106  S    
C1    C13   S    
C70   C76   T    
C101  H11   S    
C71   C77   T    
C53   O35   A    
C67   O19   A    
C23   O24   A    
Cu11  O12   S    
C15   C17   S    
C21   C25   T    
C100  C107  S    
C85   C89   S    
Cu3   Cu4   S    
C19   C21   S    
C101  N4    S    
C65   O15   A    
Cu6   O38   S    
C76   C80   S    
C3    C5    S    
C83   C87   S    
Cu7   O40   S    
Cu6   Cu8   S    
Cu12  O22   S    
C5    H13   S    
C47   C49   S    
C98   C101  S    
C99   C107  S    
C12   C24   S    
C98   C106  S    
C46   O29   A    
C39   C45   S    
Cu9   O7    S    
C3    C107  S    
N2    H23   S    
Cu4   O4    S    
C36   C38   T    
C24   O25   A    
C61   O7    A    
C64   C94   S    
C28   C30   T    
C97   H3    S    
C44   C48   T    
C27   C73   S    
Cu1   Cu2   S    
C4    H19   S    
C66   O16   A    
Cu8   O6    S    
C57   O43   A    
Cu5   O43   S    
C56   O42   A    
Cu6   O44   S    
C40   C42   T    
Cu12  O13   S    
C17   C19   T    
C79   C85   T    
C54   O40   A    
C96   H5    S    
C69   C75   T    
C14   C16   T    
C95   H6    S    
C24   O26   A    
C2    C14   S    
C45   O28   A    
Cu10  Cu12  S    
C1    O1    A    
Cu3   O33   S    
C61   C91   S    
C58   C104  S    
C34   C36   S    
C16   C18   S    
C22   C26   T    
C72   C78   T    
N4    H28   S    
Cu5   Cu7   S    
C63   C93   S    
C68   O20   A    
C43   C47   T    
C55   C71   S    
Cu1   O31   S    
C32   C34   T    
C6    C106  S    
N3    H26   S    
Cu2   O32   S    
