data_mof_unit_49920.cif
_audit_creation_date              2012-12-10T17:03:54-0500
_audit_creation_method            fapswitch 2.2
_symmetry_space_group_name_H-M    P1
_symmetry_Int_Tables_number       1
_space_group_crystal_system       triclinic
_cell_length_a                    9.84848
_cell_length_b                    11.080305
_cell_length_c                    15.821479
_cell_angle_alpha                 95.222853
_cell_angle_beta                  78.900954
_cell_angle_gamma                 112.120761
_cell_volume                      1569.17921154

loop_
_atom_site_label
_atom_site_type_symbol
_atom_type_description
_atom_site_fract_x
_atom_site_fract_y
_atom_site_fract_z
_atom_type_partial_charge
C1    C     C_R   0.557556 0.746136 0.506256 0.745427
C2    C     C_R   0.442449 0.253864 0.493734 0.745388
C3    C     C_R   0.323506 0.454324 0.078347 -0.231253
C4    C     C_R   0.676396 0.545181 0.921614 -0.231319
C5    C     C_R   0.215792 0.418670 0.025664 -0.037294
C6    C     C_R   0.784122 0.580819 0.974286 -0.037303
C7    C     C_2   0.592279 0.887586 0.509714 0.199016
C8    C     C_2   0.407759 0.112417 0.490229 0.199081
C9    C     C_2   0.486916 0.930559 0.498706 -0.106242
C10   C     C_2   0.513282 0.069470 0.501009 -0.106320
C11   C     C_2   0.922693 0.490628 0.491672 0.388832
C12   C     C_2   0.077289 0.509353 0.508332 0.388775
C13   C     C_R   0.410892 0.486222 0.662836 0.811087
C14   C     C_R   0.589104 0.513759 0.337162 0.811038
C15   C     C_R   0.355418 0.471336 0.756003 -0.072895
C16   C     C_R   0.644554 0.528536 0.243984 -0.072933
C17   C     C_R   0.154220 0.392626 0.876594 -0.010160
C18   C     C_R   0.845734 0.606969 0.123351 -0.010172
C19   C     C_R   0.204353 0.413148 0.788354 -0.197384
C20   C     C_R   0.795621 0.586588 0.211604 -0.197435
C21   C     C_R   0.457488 0.509079 0.812163 -0.217715
C22   C     C_R   0.542463 0.490768 0.187834 -0.217729
C23   C     C_R   0.414135 0.481769 0.900567 0.082846
C24   C     C_R   0.585796 0.517894 0.099407 0.082844
C25   C     C_R   0.258569 0.429178 0.934946 0.062969
C26   C     C_R   0.741363 0.570401 0.065009 0.062964
C27   C     C_R   0.522902 0.507458 0.955024 0.063876
C28   C     C_R   0.477014 0.492136 0.044948 0.063898
Cu1   Cu    Cu3+1 0.362980 0.479380 0.485080 1.002431
Cu2   Cu    Cu3+1 0.637020 0.520620 0.514920 1.002439
H1    H     H_    0.428636 0.437373 0.215287 0.151726
H2    H     H_    0.571312 0.562620 0.784748 0.151730
H3    H     H_    0.875151 0.617296 0.255511 0.161612
H4    H     H_    0.124842 0.382441 0.744435 0.161597
H5    H     H_    0.282465 0.453440 0.146614 0.142654
H6    H     H_    0.717395 0.545969 0.853342 0.142715
H7    H     H_    0.621626 0.138046 0.511839 0.210205
H8    H     H_    0.378680 0.861999 0.487725 0.210069
H9    H     H_    0.112501 0.379393 0.417529 0.163952
H10   H     H_    0.887548 0.620652 0.582423 0.164034
N1    N     N_2   0.842890 0.551600 0.537350 -0.285570
N2    N     N_2   0.157110 0.448400 0.462650 -0.285564
O1    O     O_R   0.426810 0.668300 0.492040 -0.536354
O2    O     O_R   0.573190 0.331700 0.507960 -0.536342
O3    O     O_R   0.658240 0.703130 0.517240 -0.584021
O4    O     O_R   0.341760 0.296870 0.482760 -0.584009
O5    O     O_R   0.319390 0.472820 0.610170 -0.528995
O6    O     O_R   0.680610 0.527180 0.389830 -0.529002
O7    O     O_R   0.550820 0.507640 0.635370 -0.587232
O8    O     O_R   0.449180 0.492360 0.364630 -0.587256
C29   C     C_1   0.063009 0.376328 0.069755 0.247592
N3    N     N_1   0.941433 0.342524 0.106045 -0.256546
C30   C     C_1   0.936894 0.623093 0.930181 0.247582
N4    N     N_1   0.058463 0.656845 0.893878 -0.256541
C31   C     C_1   0.995110 0.329473 0.902098 0.240951
N5    N     N_1   0.867489 0.278819 0.921466 -0.248449
C32   C     C_1   0.004849 0.669976 0.097822 0.240967
N6    N     N_1   0.132475 0.720512 0.078436 -0.248490
O9    O     O_3   0.270124 0.023836 0.476357 -0.727556
H11   H     H_    0.205449 0.071374 0.470050 0.347703
O10   O     O_3   0.729770 0.976141 0.523791 -0.727662
H12   H     H_    0.794251 0.928573 0.530356 0.347734
O11   O     O_3   0.136906 0.591633 0.573588 -0.684609
H13   H     H_    0.056545 0.580409 0.623940 0.289685
O12   O     O_3   0.863038 0.408313 0.426446 -0.684690
H14   H     H_    0.943396 0.419444 0.376089 0.289620

loop_
_geom_bond_atom_site_label_1
_geom_bond_atom_site_label_2
_ccdc_geom_bond_type
C5    C25   A    
C12   N2    D    
C31   N5    T    
C4    H6    S    
Cu2   N1    S    
H10   N1    S    
Cu1   Cu2   S    
C14   C16   S    
C23   C27   A    
Cu1   N2    S    
C2    O4    A    
C24   C28   A    
C9    C10   S    
C17   C31   S    
Cu2   O3    S    
C18   C26   A    
C3    H5    S    
Cu1   O4    S    
C16   C20   A    
C17   C25   A    
C13   C15   S    
O9    H11   S    
C1    O3    A    
C14   O8    A    
C30   N4    T    
Cu1   O1    S    
C15   C19   A    
Cu2   O2    S    
C32   N6    T    
C6    C26   A    
Cu1   O5    S    
C10   H7    S    
C13   O7    A    
C20   H3    S    
Cu2   O6    S    
C3    C28   A    
C17   C19   A    
Cu2   O7    S    
C24   C26   A    
C11   N1    D    
H9    N2    S    
C18   C20   A    
Cu1   O8    S    
C23   C25   A    
C8    O9    S    
O10   H12   S    
C21   H2    S    
C22   C24   A    
C22   H1    S    
C6    C30   S    
C29   N3    T    
C9    H8    S    
C7    C9    D    
C15   C21   A    
C4    C27   A    
C4    C6    A    
O12   H14   S    
C2    C8    S    
C27   C28   A    
C13   O5    A    
C12   O11   S    
C14   O6    A    
C7    O10   S    
C16   C22   A    
C18   C32   S    
C1    C7    S    
C21   C23   A    
C1    O1    A    
C8    C10   D    
C5    C29   S    
C11   O12   S    
C11   C12   S    
C2    O2    A    
O11   H13   S    
C3    C5    A    
C19   H4    S    
