data_mof_unit_18446.cif
_audit_creation_date              2013-03-05T15:51:04-0500
_audit_creation_method            fapswitch 2.2
_symmetry_space_group_name_H-M    P1
_symmetry_Int_Tables_number       1
_space_group_crystal_system       triclinic
_cell_length_a                    19.083757
_cell_length_b                    10.965302
_cell_length_c                    18.812376
_cell_angle_alpha                 90.034792
_cell_angle_beta                  90.149395
_cell_angle_gamma                 90.042722
_cell_volume                      3936.64676987

loop_
_atom_site_label
_atom_site_type_symbol
_atom_site_description
_atom_site_fract_x
_atom_site_fract_y
_atom_site_fract_z
_atom_type_partial_charge
O1    O     O_R   0.784290 0.290360 0.830540 -0.449338
O2    O     O_R   0.215710 0.290360 0.169460 -0.467813
O3    O     O_R   0.284290 0.790360 0.830540 -0.449013
O4    O     O_R   0.715710 0.790360 0.169460 -0.468506
O5    O     O_R   0.762610 0.041070 0.825230 -0.489434
O6    O     O_R   0.237390 0.041070 0.174770 -0.503562
O7    O     O_R   0.262610 0.541070 0.825230 -0.488971
O8    O     O_R   0.737390 0.541070 0.174770 -0.504056
C1    C     C_R   0.724328 0.962333 0.856353 0.545574
C2    C     C_R   0.274098 0.957969 0.145286 0.545872
C3    C     C_R   0.224320 0.462351 0.856360 0.545591
C4    C     C_R   0.774092 0.457955 0.145293 0.545407
O9    O     O_R   0.667390 0.924160 0.829970 -0.523533
O10   O     O_R   0.332610 0.924160 0.170030 -0.521633
O11   O     O_R   0.167390 0.424160 0.829970 -0.523660
O12   O     O_R   0.832610 0.424160 0.170030 -0.521520
O13   O     O_R   0.553980 0.081420 0.821780 -0.478851
O14   O     O_R   0.446020 0.081420 0.178220 -0.470125
O15   O     O_R   0.053980 0.581420 0.821780 -0.478143
O16   O     O_R   0.946020 0.581420 0.178220 -0.471107
C5    C     C_R   0.530041 0.178022 0.850790 0.569847
C6    C     C_R   0.470012 0.177569 0.149220 0.566392
C7    C     C_R   0.030044 0.678025 0.850791 0.570618
C8    C     C_R   0.970013 0.677567 0.149221 0.564895
O17   O     O_R   0.543210 0.283170 0.826740 -0.519000
O18   O     O_R   0.456790 0.283170 0.173260 -0.526239
O19   O     O_R   0.043210 0.783170 0.826740 -0.518977
O20   O     O_R   0.956790 0.783170 0.173260 -0.526814
O21   O     O_R   0.678350 0.375000 0.822720 -0.508486
O22   O     O_R   0.321650 0.375000 0.177280 -0.507946
O23   O     O_R   0.178350 0.875000 0.822720 -0.509419
O24   O     O_R   0.821650 0.875000 0.177280 -0.508424
C9    C     C_R   0.738879 0.365996 0.851950 0.572395
C10   C     C_R   0.261346 0.365955 0.148057 0.566179
C11   C     C_R   0.238882 0.866008 0.851942 0.572026
C12   C     C_R   0.761350 0.865951 0.148054 0.565029
O25   O     O_R   0.785060 0.289300 0.670580 -0.509671
O26   O     O_R   0.214940 0.289300 0.329420 -0.505490
O27   O     O_R   0.285060 0.789300 0.670580 -0.515882
O28   O     O_R   0.714940 0.789300 0.329420 -0.505857
O29   O     O_R   0.763330 0.040090 0.676940 -0.508286
O30   O     O_R   0.236670 0.040090 0.323060 -0.508162
O31   O     O_R   0.263330 0.540090 0.676940 -0.511544
O32   O     O_R   0.736670 0.540090 0.323060 -0.508018
C13   C     C_R   0.727675 0.955074 0.647531 0.545992
C14   C     C_R   0.273550 0.958781 0.354045 0.544535
C15   C     C_R   0.228497 0.452714 0.648420 0.542315
C16   C     C_R   0.772192 0.455584 0.352593 0.548683
O33   O     O_R   0.668160 0.923110 0.670000 -0.521635
O34   O     O_R   0.331840 0.923110 0.330000 -0.515504
O35   O     O_R   0.168160 0.423110 0.670000 -0.522094
O36   O     O_R   0.831840 0.423110 0.330000 -0.521147
O37   O     O_R   0.554690 0.080440 0.673480 -0.505739
O38   O     O_R   0.445310 0.080440 0.326520 -0.500518
O39   O     O_R   0.054690 0.580440 0.673480 -0.503754
O40   O     O_R   0.945310 0.580440 0.326520 -0.503186
C17   C     C_R   0.528105 0.176530 0.646085 0.552038
C18   C     C_R   0.466649 0.176420 0.357517 0.552817
C19   C     C_R   0.031911 0.676625 0.643217 0.549656
C20   C     C_R   0.971761 0.676414 0.354033 0.558724
O41   O     O_R   0.543980 0.282110 0.666770 -0.526592
O42   O     O_R   0.456020 0.282110 0.333230 -0.518323
O43   O     O_R   0.043980 0.782110 0.666770 -0.519156
O44   O     O_R   0.956020 0.782110 0.333230 -0.525699
O45   O     O_R   0.679070 0.374030 0.674430 -0.512556
O46   O     O_R   0.320930 0.374030 0.325570 -0.508048
O47   O     O_R   0.179070 0.874030 0.674430 -0.508908
O48   O     O_R   0.820930 0.874030 0.325570 -0.509466
C21   C     C_R   0.738916 0.360080 0.645476 0.546974
C22   C     C_R   0.262900 0.354112 0.356745 0.552175
C23   C     C_R   0.239756 0.862794 0.646636 0.549182
C24   C     C_R   0.761161 0.859855 0.354655 0.552936
Cr1   Cr    Cr6+3 0.769260 0.163750 0.750730 1.062532
Cr2   Cr    Cr6+3 0.230740 0.163750 0.249270 1.051470
Cr3   Cr    Cr6+3 0.269260 0.663750 0.750730 1.059291
Cr4   Cr    Cr6+3 0.730740 0.663750 0.249270 1.051318
Cr5   Cr    Cr6+3 0.612640 0.009910 0.748780 1.044608
Cr6   Cr    Cr6+3 0.387360 0.009910 0.251220 1.055478
Cr7   Cr    Cr6+3 0.112640 0.509910 0.748780 1.045684
Cr8   Cr    Cr6+3 0.887360 0.509910 0.251220 1.052210
Cr9   Cr    Cr6+3 0.614190 0.322400 0.747710 1.019025
Cr10  Cr    Cr6+3 0.385810 0.322400 0.252290 1.022504
Cr11  Cr    Cr6+3 0.114190 0.822400 0.747710 1.022285
Cr12  Cr    Cr6+3 0.885810 0.822400 0.252290 1.019258
O49   O     O_3   0.665360 0.165350 0.749070 -0.265575
O50   O     O_3   0.334640 0.165350 0.250930 -0.270896
O51   O     O_3   0.165360 0.665350 0.749070 -0.265612
O52   O     O_3   0.834640 0.665350 0.250930 -0.266182
C25   C     C_2   0.498231 0.171734 0.921127 -0.107232
C26   C     C_2   0.501641 0.168010 0.078822 -0.094722
C27   C     C_2   0.998234 0.671749 0.921129 -0.107612
C28   C     C_2   0.001640 0.667995 0.078824 -0.094350
C29   C     C_2   0.486511 0.072113 0.036949 -0.103828
C30   C     C_2   0.502503 0.070776 0.960754 -0.109688
C31   C     C_2   0.986458 0.572135 0.036940 -0.103518
C32   C     C_2   0.002464 0.570781 0.960749 -0.109876
H1    H     H_    0.460951 0.992101 0.058606 0.199905
H2    H     H_    0.517098 0.984624 0.936875 0.213158
H3    H     H_    0.960837 0.492170 0.058584 0.199996
H4    H     H_    0.017026 0.484612 0.936868 0.213181
H5    H     H_    0.528664 0.247219 0.057597 0.100436
H6    H     H_    0.480429 0.256498 0.944683 0.093611
H7    H     H_    0.028708 0.747167 0.057610 0.100474
H8    H     H_    0.980460 0.756527 0.944691 0.093584
C33   C     C_R   0.758702 0.420175 0.072681 -0.023546
C34   C     C_R   0.234441 0.444471 0.932349 -0.031934
C35   C     C_R   0.258725 0.920237 0.072661 -0.023714
C36   C     C_R   0.734464 0.944405 0.932337 -0.031910
C37   C     C_R   0.696264 0.449499 0.037646 -0.018530
C38   C     C_R   0.296287 0.480689 0.965797 0.033992
C39   C     C_R   0.196279 0.949528 0.037632 -0.018527
C40   C     C_R   0.796298 0.980675 0.965794 0.033918
C41   C     C_R   0.691349 0.442586 0.964101 -0.024989
C42   C     C_R   0.303570 0.469000 0.038737 -0.009070
C43   C     C_R   0.191360 0.942620 0.964087 -0.024991
C44   C     C_R   0.803582 0.969000 0.038734 -0.008979
C45   C     C_R   0.814285 0.387568 0.957962 0.184553
C46   C     C_R   0.180498 0.419887 0.049091 0.171925
C47   C     C_R   0.314308 0.887702 0.957931 0.184610
C48   C     C_R   0.680518 0.919832 0.049075 0.172033
C49   C     C_R   0.815598 0.379649 0.031684 -0.141710
C50   C     C_R   0.175407 0.421807 0.974959 -0.155874
C51   C     C_R   0.315633 0.879791 0.031654 -0.141809
C52   C     C_R   0.675437 0.921678 0.974948 -0.155918
C53   C     C_3   0.652325 0.561650 0.041392 -0.217823
C54   C     C_3   0.368860 0.437077 0.951982 -0.271791
C55   C     C_3   0.152322 0.061658 0.041387 -0.217859
C56   C     C_3   0.868877 0.937108 0.951988 -0.271932
C57   C     C_3   0.646820 0.554741 0.961176 -0.253715
C58   C     C_3   0.376842 0.422119 0.031726 -0.256593
C59   C     C_3   0.146816 0.054758 0.961172 -0.253748
C60   C     C_3   0.876858 0.922170 0.031732 -0.256475
C61   C     C_R   0.750435 0.415827 0.922879 0.003801
C62   C     C_R   0.247625 0.428792 0.081014 0.000081
C63   C     C_R   0.250445 0.915888 0.922858 0.003934
C64   C     C_R   0.747636 0.928778 0.081007 0.000397
H9    H     H_    0.864821 0.355505 0.056615 0.179580
H10   H     H_    0.124959 0.405360 0.950720 0.171487
H11   H     H_    0.364863 0.855695 0.056582 0.179489
H12   H     H_    0.624995 0.905177 0.950716 0.171456
H13   H     H_    0.181986 0.142945 0.059817 0.184014
H14   H     H_    0.902711 0.010171 0.929673 0.184815
H15   H     H_    0.682001 0.642922 0.059820 0.184178
H16   H     H_    0.402706 0.510130 0.929668 0.184798
H17   H     H_    0.601621 0.545213 0.068719 0.165604
H18   H     H_    0.369530 0.349467 0.922198 0.130603
H19   H     H_    0.101621 0.045198 0.068715 0.165584
H20   H     H_    0.869571 0.849493 0.922217 0.130565
H21   H     H_    0.592829 0.534508 0.942185 0.164656
H22   H     H_    0.381805 0.325105 0.047997 0.142650
H23   H     H_    0.092827 0.034512 0.942183 0.164592
H24   H     H_    0.881839 0.825172 0.048008 0.142974
H25   H     H_    0.673025 0.632023 0.933622 0.145741
H26   H     H_    0.416137 0.485225 0.055366 0.168858
H27   H     H_    0.173007 0.132053 0.933620 0.145737
H28   H     H_    0.916129 0.985307 0.055367 0.168918
C65   C     C_R   0.479741 0.169802 0.432710 0.018574
C66   C     C_R   0.489644 0.170108 0.580138 0.021334
C67   C     C_R   0.009083 0.667946 0.420560 0.022171
C68   C     C_R   0.016287 0.671517 0.568426 0.023262
C69   C     C_R   0.471845 0.277362 0.470987 0.042150
C70   C     C_R   0.475670 0.278560 0.543317 0.031214
C71   C     C_R   0.029265 0.774526 0.456183 0.024501
C72   C     C_R   0.032262 0.775274 0.528769 0.046198
C73   C     C_R   0.482413 0.058636 0.544029 -0.163228
C74   C     C_R   0.478549 0.058489 0.469794 -0.161783
C75   C     C_R   0.007803 0.560382 0.532852 -0.175155
C76   C     C_R   0.007136 0.557994 0.458693 -0.170752
C77   C     C_3   0.508481 0.396303 0.462075 -0.276546
C78   C     C_3   0.512601 0.400067 0.542064 -0.268971
C79   C     C_3   0.000621 0.902315 0.455043 -0.269144
C80   C     C_3   0.002907 0.900683 0.535143 -0.271932
H29   H     H_    0.486734 0.972841 0.572033 0.123554
H30   H     H_    0.477511 0.972614 0.441625 0.129624
H31   H     H_    0.999698 0.477051 0.562267 0.115855
H32   H     H_    0.998373 0.472615 0.431667 0.121231
H33   H     H_    0.946367 0.908921 0.434967 0.168277
H34   H     H_    0.040293 0.967236 0.558021 0.134586
H35   H     H_    0.474619 0.468593 0.439283 0.136989
H36   H     H_    0.567389 0.395736 0.561060 0.172778
H37   H     H_    0.560355 0.386151 0.436001 0.142797
H38   H     H_    0.480605 0.474178 0.565852 0.126463
H39   H     H_    0.037840 0.968484 0.431190 0.124299
H40   H     H_    0.950228 0.901034 0.560139 0.137703
C81   C     C_R   0.750747 0.411592 0.422139 0.015103
C82   C     C_R   0.251673 0.397691 0.581672 0.016383
C83   C     C_R   0.261697 0.935572 0.428988 0.017989
C84   C     C_R   0.747909 0.909149 0.578077 0.017176
C85   C     C_R   0.791217 0.324016 0.457411 0.021151
C86   C     C_R   0.207159 0.317539 0.544834 0.029600
C87   C     C_R   0.318651 0.894582 0.468844 0.041071
C88   C     C_R   0.702525 0.831063 0.541103 0.022626
C89   C     C_R   0.789123 0.315142 0.530299 0.041715
C90   C     C_R   0.210759 0.308288 0.472034 0.039254
C91   C     C_R   0.315418 0.885970 0.541535 0.028507
C92   C     C_R   0.705566 0.822626 0.468365 0.036667
C93   C     C_R   0.699310 0.468601 0.535869 -0.170351
C94   C     C_R   0.313105 0.435159 0.470699 -0.158991
C95   C     C_R   0.200543 0.976835 0.539601 -0.150092
C96   C     C_R   0.804808 0.957708 0.466063 -0.161505
C97   C     C_R   0.700960 0.477885 0.461660 -0.164942
C98   C     C_R   0.310090 0.444090 0.545158 -0.161900
C99   C     C_R   0.203999 0.984530 0.465293 -0.151439
C100  C     C_R   0.802725 0.964909 0.540378 -0.161702
C101  C     C_3   0.868863 0.303933 0.456843 -0.268256
C102  C     C_3   0.128891 0.306943 0.543032 -0.269878
C103  C     C_3   0.358984 0.779021 0.460962 -0.277723
C104  C     C_3   0.624003 0.824966 0.540016 -0.269914
C105  C     C_3   0.866310 0.297545 0.536810 -0.269126
C106  C     C_3   0.133400 0.299781 0.462987 -0.271726
C107  C     C_3   0.356043 0.769086 0.540913 -0.270312
C108  C     C_3   0.627893 0.816782 0.460040 -0.275163
C109  C     C_R   0.746368 0.390902 0.570957 0.020538
C110  C     C_R   0.259143 0.375634 0.433039 0.015105
C111  C     C_R   0.254021 0.917393 0.577713 0.018339
C112  C     C_R   0.753533 0.890836 0.429191 0.021124
H41   H     H_    0.663111 0.524542 0.565742 0.120263
H42   H     H_    0.355484 0.478918 0.442628 0.126552
H43   H     H_    0.154089 0.008241 0.566458 0.122207
H44   H     H_    0.844652 0.007240 0.437419 0.115415
H45   H     H_    0.667621 0.544281 0.436078 0.133786
H46   H     H_    0.349756 0.495838 0.573053 0.119393
H47   H     H_    0.161016 0.024278 0.436117 0.120856
H48   H     H_    0.840323 0.021371 0.567772 0.122553
H49   H     H_    0.897916 0.384441 0.437995 0.165084
H50   H     H_    0.102843 0.390701 0.561377 0.170401
H51   H     H_    0.412797 0.793582 0.440443 0.135833
H52   H     H_    0.599456 0.910942 0.558071 0.166992
H53   H     H_    0.883696 0.216352 0.431331 0.129046
H54   H     H_    0.109862 0.221320 0.567979 0.126283
H55   H     H_    0.328554 0.706828 0.433070 0.139096
H56   H     H_    0.603592 0.740560 0.565312 0.128383
H57   H     H_    0.881381 0.207438 0.558235 0.135183
H58   H     H_    0.115539 0.211243 0.441174 0.133348
H59   H     H_    0.323843 0.691099 0.558659 0.164268
H60   H     H_    0.609261 0.728051 0.438832 0.134247
H61   H     H_    0.892127 0.375956 0.563535 0.138686
H62   H     H_    0.111741 0.380907 0.435412 0.146060
H63   H     H_    0.408129 0.778111 0.566982 0.131544
H64   H     H_    0.606240 0.898266 0.432537 0.143507
N1    N     N_R   0.878551 0.369093 0.919507 0.080114
O53   O     O_R   0.892742 0.435487 0.864016 -0.349410
O54   O     O_R   0.925343 0.292410 0.942723 -0.363401
N2    N     N_R   0.118381 0.399531 0.090509 0.082200
O55   O     O_R   0.109752 0.456250 0.150661 -0.330368
O56   O     O_R   0.068507 0.329605 0.066501 -0.366896
N3    N     N_R   0.378571 0.869260 0.919464 0.080154
O57   O     O_R   0.392714 0.935598 0.863938 -0.349252
O58   O     O_R   0.425405 0.792674 0.942702 -0.363434
N4    N     N_R   0.618400 0.899549 0.090500 0.082232
O59   O     O_R   0.609726 0.956552 0.150541 -0.330543
O60   O     O_R   0.568593 0.829355 0.066625 -0.366824

loop_
_geom_bond_atom_site_label_1
_geom_bond_atom_site_label_2
_geom_bond_distance
_ccdc_geom_bond_type
C18   O42   1.262351 A    
Cr11  O51   1.980479 S    
C79   C80   1.507517 S    
O4    C12   1.268446 A    
O47   Cr11  1.939795 S    
C29   C30   1.466371 S    
O39   C19   1.275000 A    
C25   H6    1.084644 S    
C102  H54   1.111102 S    
C42   C58   1.496276 S    
C77   C78   1.507162 S    
C98   H46   1.080417 S    
C101  H53   1.110535 S    
C31   C32   1.466355 S    
C20   C67   1.441467 S    
C97   H45   1.079798 S    
C27   H8    1.084654 S    
C17   C66   1.441477 S    
C45   C61   1.418791 A    
C43   C63   1.401320 A    
O26   C22   1.266153 A    
C69   C70   1.362524 A    
C54   H18   1.111931 S    
O1    C9    1.266326 A    
O27   Cr3   2.064938 S    
C43   C59   1.496331 S    
N2    O56   1.301565 A    
C67   C76   1.403831 A    
C1    C36   1.455432 S    
O7    C3    1.274323 A    
C89   C109  1.394408 A    
C73   C74   1.398288 A    
C17   O41   1.257711 A    
C41   C57   1.496334 S    
C95   C111  1.406467 A    
C88   C92   1.372829 A    
C79   H39   1.110673 S    
C105  H61   1.110101 S    
O25   C21   1.264966 A    
O30   C14   1.276509 A    
C4    C33   1.456328 S    
C92   C112  1.394141 A    
C31   H3    1.083758 S    
O47   C23   1.277934 A    
O20   Cr12  2.059343 S    
O34   Cr6   2.057506 S    
C30   H2    1.082746 S    
C73   H29   1.081618 S    
C55   C59   1.514261 S    
O21   C9    1.281925 A    
O8    Cr4   1.946506 S    
O23   Cr11  1.952449 S    
N2    O55   1.301817 A    
C82   C98   1.406095 A    
C96   H44   1.079538 S    
C76   H32   1.077826 S    
N1    O53   1.302004 A    
C46   C50   1.397900 A    
C68   C75   1.399025 A    
C81   C97   1.409960 A    
C25   C30   1.337436 D    
O32   Cr4   1.944263 S    
C1    O9    1.264326 A    
O44   Cr12  2.073652 S    
C47   N3    1.439924 S    
C28   H7    1.086560 S    
C60   H28   1.111663 S    
C27   C32   1.337408 D    
C3    O11   1.264300 A    
C86   C102  1.498359 S    
O11   Cr7   2.074503 S    
C58   H22   1.111173 S    
C4    O12   1.264555 A    
C40   C56   1.488905 S    
C85   C101  1.498274 S    
C56   H14   1.111766 S    
C44   C60   1.496147 S    
C106  H62   1.109625 S    
C94   C98   1.405449 A    
C101  H49   1.101432 S    
C101  C105  1.506954 S    
C14   C83   1.451091 S    
C71   C79   1.504621 S    
Cr4   O52   1.983033 S    
C91   C111  1.399736 A    
O2    Cr2   2.065143 S    
C37   C41   1.388513 A    
C83   C99   1.404076 A    
C69   C77   1.489096 S    
O2    C10   1.268414 A    
C106  H58   1.106983 S    
O42   Cr10  2.073652 S    
Cr5   O49   1.978585 S    
O18   Cr10  2.059343 S    
C41   C61   1.401314 A    
C100  H48   1.077374 S    
C95   C99   1.402222 A    
C103  C107  1.509260 S    
C88   C104  1.500021 S    
C2    C35   1.456349 S    
C94   H42   1.079432 S    
C36   C52   1.406470 A    
C93   H41   1.082376 S    
C12   C64   1.460697 S    
Cr7   O51   1.978585 S    
C108  H60   1.109288 S    
C46   N2    1.437624 S    
Cr9   O49   1.980479 S    
O6    Cr2   1.946506 S    
C107  H59   1.104983 S    
C105  H57   1.105313 S    
N3    O58   1.301817 A    
O31   Cr3   1.942967 S    
O24   Cr12  1.953493 S    
O9    Cr5   2.074503 S    
C74   H30   1.080369 S    
O30   Cr2   1.944263 S    
O22   C10   1.277854 A    
C99   H47   1.078217 S    
C22   C110  1.456370 S    
O16   C8    1.272811 A    
C95   H43   1.078123 S    
C102  C106  1.510510 S    
C50   H10   1.079207 S    
C2    O10   1.264551 A    
C11   C63   1.457749 S    
C75   C76   1.395365 A    
O16   Cr8   1.939592 S    
C102  H50   1.100412 S    
C56   H20   1.111860 S    
O7    Cr3   1.947552 S    
O26   Cr2   2.064019 S    
N4    O59   1.301598 A    
Cr10  O50   1.979185 S    
C49   H9    1.081979 S    
C35   C51   1.405670 A    
C84   C100  1.405191 A    
C28   C31   1.344258 D    
O13   C5    1.276688 A    
O40   C20   1.275700 A    
C78   H36   1.105122 S    
O48   C24   1.275795 A    
N1    O54   1.301812 A    
O48   Cr12  1.939845 S    
C82   C86   1.403369 A    
O15   C7    1.276699 A    
C26   H5    1.086557 S    
O5    C1    1.274302 A    
C85   C89   1.375396 A    
C96   C100  1.400908 A    
C90   C106  1.488503 S    
O39   Cr7   1.955059 S    
C91   C107  1.498464 S    
C80   H40   1.110965 S    
C29   H1    1.083749 S    
C89   C105  1.490481 S    
C70   C78   1.507042 S    
C10   C62   1.460703 S    
C13   O33   1.262367 A    
C104  C108  1.509183 S    
Cr1   O49   1.983060 S    
C34   C50   1.406428 A    
C3    C34   1.455429 S    
O13   Cr5   1.939589 S    
C6    C26   1.460590 S    
C33   C49   1.405667 A    
C58   H26   1.111785 S    
C87   C103  1.490619 S    
Cr2   O50   1.983033 S    
C15   C82   1.462444 S    
C93   C97   1.400250 A    
C77   H37   1.111597 S    
C108  H64   1.112104 S    
C83   C87   1.393710 A    
C38   C54   1.488986 S    
C55   H13   1.110404 S    
C37   C53   1.490696 S    
O14   Cr6   1.939592 S    
C24   C112  1.450283 S    
C104  H56   1.111646 S    
O21   Cr9   1.952449 S    
O31   C15   1.282303 A    
C7    O19   1.264098 A    
C53   C57   1.514280 S    
C39   C55   1.490703 S    
O37   Cr5   1.955059 S    
C8    C28   1.460572 S    
C51   H11   1.081938 S    
C7    C27   1.458901 S    
C19   O43   1.259253 A    
C72   C80   1.490158 S    
O3    C11   1.266336 A    
C94   C110  1.408212 A    
C68   C72   1.394869 A    
C38   C42   1.384865 A    
C40   C44   1.384858 A    
C8    O20   1.268648 A    
O3    Cr3   2.063631 S    
C26   C29   1.344252 D    
C75   H31   1.079776 S    
C42   C62   1.403901 A    
C34   C38   1.393478 A    
C80   H34   1.106377 S    
O45   C21   1.275878 A    
C107  H63   1.111581 S    
C5    O17   1.264120 A    
C56   C60   1.516467 S    
O37   C17   1.278002 A    
O22   Cr10  1.953493 S    
O28   C24   1.264238 A    
C87   C91   1.372351 A    
O14   C6    1.272826 A    
C35   C39   1.397959 A    
C52   H12   1.079128 S    
C9    C61   1.457770 S    
C5    C25   1.458899 S    
C48   N4    1.437591 S    
C65   C69   1.389994 A    
O17   Cr9   2.059297 S    
C46   C62   1.416687 A    
C65   C74   1.406442 A    
C90   C110  1.392556 A    
C15   O35   1.264146 A    
N3    O57   1.302004 A    
O24   C12   1.277825 A    
C13   C84   1.453275 S    
C81   C85   1.399340 A    
O6    C2    1.277139 A    
C44   C64   1.403924 A    
C47   C51   1.389831 A    
C14   O34   1.264142 A    
O25   Cr1   2.064938 S    
O40   Cr8   1.953726 S    
C21   C109  1.449573 S    
C20   O44   1.259805 A    
C84   C88   1.400748 A    
O1    Cr1   2.063631 S    
C60   H24   1.111063 S    
C59   H27   1.112700 S    
C103  H51   1.109514 S    
O15   Cr7   1.939589 S    
C16   C81   1.454360 S    
Cr8   O52   1.979882 S    
O32   C16   1.275333 A    
O29   C13   1.278514 A    
C104  H52   1.106656 S    
O46   Cr10  1.939845 S    
C57   H25   1.112725 S    
C103  H55   1.111955 S    
O46   C22   1.273278 A    
Cr12  O52   1.979185 S    
C33   C37   1.397978 A    
C53   H15   1.110390 S    
C23   C111  1.454741 S    
C18   C65   1.437699 S    
C32   H4    1.082759 S    
O23   C11   1.281909 A    
C54   H16   1.111824 S    
C86   C90   1.375117 A    
C96   C112  1.403951 A    
O33   Cr5   2.057409 S    
C59   H23   1.111796 S    
C67   C71   1.400112 A    
C77   H35   1.108837 S    
O10   Cr6   2.072955 S    
O5    Cr1   1.947552 S    
O35   Cr7   2.057409 S    
C47   C63   1.418746 A    
C71   C72   1.366583 A    
C48   C52   1.397784 A    
C66   C70   1.402019 A    
O29   Cr1   1.942967 S    
O19   Cr11  2.059297 S    
C92   C108  1.491469 S    
C36   C40   1.393527 A    
C16   O36   1.267329 A    
C93   C109  1.402436 A    
O38   C18   1.269214 A    
O4    Cr4   2.065143 S    
C39   C43   1.388507 A    
Cr6   O50   1.979882 S    
C6    O18   1.268632 A    
O28   Cr4   2.064019 S    
O43   Cr11  2.072831 S    
C54   C58   1.516497 S    
O45   Cr9   1.939795 S    
C79   H33   1.103631 S    
O41   Cr9   2.072831 S    
C45   C49   1.389809 A    
C19   C68   1.438518 S    
O12   Cr8   2.072955 S    
C57   H21   1.111823 S    
O36   Cr8   2.057506 S    
N4    O60   1.301495 A    
C48   C64   1.416610 A    
C53   H17   1.111527 S    
C78   H38   1.111396 S    
Cr3   O51   1.983060 S    
O8    C4    1.277134 A    
C66   C73   1.404573 A    
C55   H19   1.111526 S    
O38   Cr6   1.953726 S    
O27   C23   1.264624 A    
C45   N1    1.439918 S    
