data_mof_unit_54775.cif
_audit_creation_date              2012-12-11T14:03:31-0500
_audit_creation_method            fapswitch 2.2
_symmetry_space_group_name_H-M    P1
_symmetry_Int_Tables_number       1
_space_group_crystal_system       triclinic
_cell_length_a                    6.936712
_cell_length_b                    11.397719
_cell_length_c                    18.677099
_cell_angle_alpha                 90.000347
_cell_angle_beta                  92.829958
_cell_angle_gamma                 89.999847
_cell_volume                      1474.86091635

loop_
_atom_site_label
_atom_site_type_symbol
_atom_type_description
_atom_site_fract_x
_atom_site_fract_y
_atom_site_fract_z
_atom_type_partial_charge
O1    O     O_R   0.330540 0.606360 0.598870 -0.537954
O2    O     O_R   0.669460 0.106360 0.401130 -0.537954
O3    O     O_R   0.026770 0.620470 0.750430 -0.540888
O4    O     O_R   0.973230 0.120470 0.249570 -0.540890
O5    O     O_R   0.856460 0.393640 0.750930 -0.537482
O6    O     O_R   0.143540 0.893640 0.249070 -0.537482
C1    C     C_R   0.198613 0.648391 0.774588 0.700435
C2    C     C_R   0.801387 0.148389 0.225411 0.700442
O7    O     O_R   0.000920 0.620350 0.599420 -0.549252
O8    O     O_R   0.999080 0.120350 0.400580 -0.549252
O9    O     O_R   0.830430 0.393520 0.598850 -0.538436
O10   O     O_R   0.169570 0.893520 0.401150 -0.538435
C3    C     C_R   0.166667 0.647860 0.574526 0.765240
C4    C     C_R   0.833333 0.147860 0.425473 0.765243
O11   O     O_R   0.356570 0.606480 0.750960 -0.539144
O12   O     O_R   0.643430 0.106480 0.249040 -0.539146
O13   O     O_3   0.176990 0.425580 0.674890 -0.373868
O14   O     O_3   0.823010 0.925580 0.325110 -0.373868
V1    V     V_3+5 0.902170 0.513810 0.674910 1.416104
V2    V     V_3+5 0.097830 0.013810 0.325090 1.416102
O15   O     O_R   0.500800 0.379530 0.599380 -0.549760
O16   O     O_R   0.499200 0.879530 0.400620 -0.549760
C5    C     C_R   0.666566 0.352015 0.574501 0.762977
C6    C     C_R   0.333433 0.852015 0.425499 0.762976
O17   O     O_R   0.526650 0.379650 0.750390 -0.541060
O18   O     O_R   0.473350 0.879650 0.249610 -0.541059
C7    C     C_R   0.698467 0.351222 0.774233 0.695996
C8    C     C_R   0.301534 0.851223 0.225765 0.695997
V3    V     V_3+5 0.402160 0.486190 0.674900 1.415260
V4    V     V_3+5 0.597840 0.986190 0.325100 1.415263
O19   O     O_3   0.677210 0.574420 0.674910 -0.373078
O20   O     O_3   0.322790 0.074420 0.325090 -0.373078
C9    C     C_R   0.704933 0.070850 0.879698 -0.131641
C10   C     C_R   0.295212 0.570856 0.120298 -0.131645
H1    H     H_    0.678607 0.114596 0.767953 0.092709
H2    H     H_    0.321612 0.614607 0.232043 0.092716
H3    H     H_    0.722247 0.939742 0.996859 0.146918
H4    H     H_    0.277836 0.439750 0.003136 0.146925
H5    H     H_    0.693130 0.977537 0.869129 0.114356
H6    H     H_    0.307097 0.477549 0.130866 0.114362
C11   C     C_R   0.713550 0.268862 0.834218 -0.017275
C12   C     C_R   0.286455 0.768860 0.165782 -0.017294
C13   C     C_R   0.797814 0.351330 0.180859 -0.273366
C14   C     C_R   0.202246 0.851335 0.819146 -0.273361
C15   C     C_R   0.788164 0.434512 0.125998 0.037554
C16   C     C_R   0.211895 0.934519 0.874008 0.037555
C17   C     C_R   0.768505 0.397213 0.054454 -0.165596
C18   C     C_R   0.231474 0.897216 0.945552 -0.165591
C19   C     C_R   0.757930 0.276398 0.036457 0.035031
C20   C     C_R   0.242028 0.776395 0.963546 0.035038
C21   C     C_R   0.765020 0.192831 0.093330 0.067019
C22   C     C_R   0.234952 0.692830 0.906670 0.067018
C23   C     C_R   0.740116 0.235731 0.963925 0.111227
C24   C     C_R   0.259853 0.735727 0.036076 0.111235
C25   C     C_R   0.725990 0.113089 0.950268 0.180445
C26   C     C_R   0.274064 0.613090 0.049730 0.180435
C27   C     C_R   0.732502 0.033280 0.006965 -0.198278
C28   C     C_R   0.267541 0.533284 0.993032 -0.198283
C29   C     C_R   0.752524 0.072228 0.077306 -0.196495
C30   C     C_R   0.247460 0.572229 0.922692 -0.196489
C31   C     C_R   0.735520 0.312260 0.904173 -0.182513
C32   C     C_R   0.264388 0.812251 0.095827 -0.182508
C33   C     C_R   0.697252 0.148423 0.822055 -0.182419
C34   C     C_R   0.302885 0.648429 0.177942 -0.182405
C35   C     C_R   0.785746 0.231550 0.165354 -0.070032
C36   C     C_R   0.214253 0.731551 0.834647 -0.070039
H7    H     H_    0.746738 0.406109 0.909691 0.093185
H8    H     H_    0.253038 0.906088 0.090306 0.093193
H9    H     H_    0.814482 0.379858 0.236225 0.095872
H10   H     H_    0.185635 0.879867 0.763780 0.095870
H11   H     H_    0.761192 0.464726 0.014172 0.156235
H12   H     H_    0.238780 0.964729 0.985836 0.156225
H13   H     H_    0.757490 0.006476 0.119187 0.134710
H14   H     H_    0.242491 0.506480 0.880809 0.134713
C37   C     C_2   0.832004 0.233693 0.484704 -0.352522
C38   C     C_2   0.167996 0.733692 0.515296 -0.352521
H15   H     H_    0.969651 0.270499 0.503760 0.149686
H16   H     H_    0.030349 0.770499 0.496240 0.149686
C39   C     C_2   0.667909 0.266167 0.515279 -0.351669
C40   C     C_2   0.332091 0.766168 0.484721 -0.351669
H17   H     H_    0.530262 0.229361 0.496222 0.149797
H18   H     H_    0.469738 0.729361 0.503778 0.149798
C41   C     C_2   0.799233 0.560778 0.144502 0.376480
H19   H     H_    0.815743 0.587626 0.200237 0.038882
O21   O     O_2   0.790058 0.636297 0.098061 -0.533414
C42   C     C_2   0.201011 0.060795 0.855503 0.376487
H20   H     H_    0.184755 0.087657 0.799764 0.038895
O22   O     O_2   0.210193 0.136309 0.901942 -0.533421

loop_
_geom_bond_atom_site_label_1
_geom_bond_atom_site_label_2
_ccdc_geom_bond_type
C9    C25   A    
C10   C26   A    
O13   V3    S    
C14   C36   A    
C11   C31   A    
O4    C2    A    
V1    O19   S    
C17   C19   A    
O9    V1    S    
C9    H5    S    
C10   H6    S    
C38   H16   S    
O3    C1    A    
C42   O22   D    
C27   C29   A    
C28   C30   A    
C21   C35   A    
C15   C17   A    
C30   H14   S    
C31   H7    S    
O7    C3    A    
C22   C30   A    
O5    C7    A    
C23   C31   A    
C6    C40   S    
O6    C8    A    
C14   C16   A    
C19   C21   A    
C20   C22   A    
O3    V1    S    
O14   V4    S    
C12   C32   A    
C9    C33   A    
C18   C20   A    
C2    C35   S    
C2    O12   A    
H4    C28   S    
C8    C12   S    
C15   C41   S    
C18   H12   S    
C10   C34   A    
O7    V1    S    
O11   V3    S    
C16   C18   A    
C23   C25   A    
O17   V3    S    
C24   C26   A    
C40   H18   S    
O8    C4    A    
O8    V2    S    
C39   H17   S    
C42   H20   S    
C1    O11   A    
C24   C32   A    
O15   V3    S    
C37   H15   S    
C7    C11   S    
C41   H19   S    
C3    C38   S    
C13   C35   A    
O10   V2    S    
O1    V3    S    
C20   C24   A    
C14   H10   S    
C13   C15   A    
C17   H11   S    
C41   O21   D    
O18   V4    S    
C25   C27   A    
O16   C6    A    
C21   C29   A    
C11   C33   A    
C12   C34   A    
C22   C36   A    
V2    O20   S    
C29   H13   S    
O16   V4    S    
C38   C40   D    
O5    V1    S    
O17   C7    A    
O6    V2    S    
O10   C6    A    
O18   C8    A    
C32   H8    S    
O2    V4    S    
C4    C37   S    
O15   C5    A    
V3    O19   S    
C1    C36   S    
V4    O20   S    
C37   C39   D    
C19   C23   A    
O9    C5    A    
O13   V1    S    
C26   C28   A    
O14   V2    S    
O2    C4    A    
O4    V2    S    
O1    C3    A    
C13   H9    S    
H1    C33   S    
C5    C39   S    
H2    C34   S    
O12   V4    S    
H3    C27   S    
C16   C42   S    
