data_mof_unit_67609.cif
_audit_creation_date              2013-03-05T16:07:31-0500
_audit_creation_method            fapswitch 2.2
_symmetry_space_group_name_H-M    P1
_symmetry_Int_Tables_number       1
_space_group_crystal_system       triclinic
_cell_length_a                    11.288415
_cell_length_b                    10.900577
_cell_length_c                    9.848137
_cell_angle_alpha                 94.829128
_cell_angle_beta                  91.035441
_cell_angle_gamma                 89.156558
_cell_volume                      1207.21074387

loop_
_atom_site_label
_atom_site_type_symbol
_atom_site_description
_atom_site_fract_x
_atom_site_fract_y
_atom_site_fract_z
_atom_type_partial_charge
O1    O     O_R   0.499990 0.319660 0.618740 -0.558985
O2    O     O_R   0.500010 0.680340 0.381260 -0.594352
O3    O     O_R   0.499990 0.319630 0.381170 -0.558808
O4    O     O_R   0.500010 0.680370 0.618830 -0.556666
C1    C     C_R   0.505770 0.262673 0.494792 0.960221
C2    C     C_R   0.495238 0.737403 0.505232 0.952720
O5    O     O_R   0.319650 0.500020 0.618780 -0.544872
O6    O     O_R   0.680350 0.499980 0.381220 -0.564629
O7    O     O_R   0.319640 0.500000 0.381210 -0.562705
O8    O     O_R   0.680360 0.500000 0.618790 -0.548835
C3    C     C_R   0.262682 0.500485 0.499031 0.812025
C4    C     C_R   0.737192 0.501521 0.501201 0.823100
Cu1   Cu    Cu3+1 0.500000 0.500020 0.640660 1.057416
Cu2   Cu    Cu3+1 0.500000 0.499980 0.359340 1.024740
C5    C     C_R   0.223070 0.661997 0.112091 0.059208
C6    C     C_R   0.780050 0.347760 0.892342 0.070710
C7    C     C_R   0.167872 0.645029 0.235070 0.414893
C8    C     C_R   0.837712 0.362452 0.770127 0.428061
C9    C     C_R   0.110473 0.533545 0.250134 -0.081340
C10   C     C_R   0.886635 0.477831 0.750371 -0.131880
C11   C     C_R   0.102873 0.440738 0.142887 0.160640
C12   C     C_R   0.879438 0.576499 0.850147 0.148956
C13   C     C_R   0.153350 0.459323 0.017981 0.163107
C14   C     C_R   0.850537 0.551757 0.982137 0.155771
C15   C     C_R   0.210631 0.570508 0.000000 0.317854
C16   C     C_R   0.798081 0.437989 0.004675 0.306611
C17   C     C_R   0.933586 0.514922 0.384408 -0.285732
C18   C     C_R   0.066294 0.495830 0.618362 -0.326136
H1    H     H_    0.885149 0.523167 0.292773 0.254358
H2    H     H_    0.115815 0.491032 0.710858 0.238136
C19   C     C_R   0.871634 0.503891 0.503346 -0.073320
C20   C     C_R   0.128065 0.503191 0.498015 -0.084794
C21   C     C_R   0.941165 0.495703 0.621726 0.154550
C22   C     C_R   0.057922 0.514246 0.380010 0.149273
C23   C     C_R   0.593348 0.051202 0.429061 0.359957
C24   C     C_R   0.409265 0.949092 0.572651 0.359478
C25   C     C_R   0.596390 0.925454 0.455445 0.320728
C26   C     C_R   0.406849 0.075399 0.548619 0.323383
C27   C     C_R   0.499883 0.872836 0.514683 -0.341203
C28   C     C_R   0.501643 0.127243 0.485697 -0.329283
C29   C     C_R   0.453565 0.404263 0.065484 0.567930
C30   C     C_R   0.544173 0.596981 0.934769 0.611318
C31   C     C_R   0.453914 0.405004 0.917791 -0.104216
C32   C     C_R   0.541773 0.596951 0.081990 -0.176289
H3    H     H_    0.414810 0.329701 0.856160 0.182237
H4    H     H_    0.571833 0.677376 0.142534 0.156680
N1    N     N_R   0.500030 0.500030 0.852070 -0.202910
N2    N     N_R   0.499970 0.499970 0.147930 -0.203056
O9    O     O_3   0.264301 0.575037 0.875374 -0.571260
C33   C     C_3   0.263298 0.691659 0.825576 -0.155924
H5    H     H_    0.355662 0.721058 0.822777 0.224957
H6    H     H_    0.207147 0.761351 0.880950 0.147919
H7    H     H_    0.229910 0.685397 0.719299 0.193309
O10   O     O_3   0.750048 0.427832 0.131320 -0.577505
C34   C     C_3   0.772866 0.312876 0.183110 -0.227273
H8    H     H_    0.829128 0.322859 0.275719 0.209708
H9    H     H_    0.816154 0.242486 0.112681 0.133734
H10   H     H_    0.687870 0.279725 0.216600 0.225841
N3    N     N_2   0.301392 0.762810 0.107383 -0.417716
H11   H     H_    0.373525 0.755948 0.171781 0.283929
C35   C     C_3   0.248700 0.885141 0.124809 -0.755824
H12   H     H_    0.305669 0.950200 0.077475 0.200222
H13   H     H_    0.245019 0.918053 0.234141 0.259702
H14   H     H_    0.158884 0.888092 0.077086 0.216125
N4    N     N_2   0.692709 0.254323 0.896519 -0.383287
H15   H     H_    0.636033 0.266226 0.976341 0.245296
C36   C     C_3   0.725672 0.126593 0.863041 -0.687969
H16   H     H_    0.658757 0.066513 0.903800 0.181225
H17   H     H_    0.813380 0.104880 0.908666 0.199025
H18   H     H_    0.724532 0.104377 0.751215 0.279109
O11   O     O_3   0.188682 0.728189 0.347234 -0.554866
C37   C     C_3   0.086238 0.801041 0.374586 -0.359214
H19   H     H_    0.018055 0.749194 0.423638 0.177729
H20   H     H_    0.049191 0.840175 0.281901 0.150385
H21   H     H_    0.110494 0.879043 0.448279 0.193821
O12   O     O_3   0.824503 0.275523 0.660199 -0.538022
C38   C     C_3   0.929080 0.203516 0.646251 -0.394742
H22   H     H_    0.936838 0.138284 0.726515 0.156161
H23   H     H_    0.009785 0.260079 0.649408 0.179670
H24   H     H_    0.925743 0.148903 0.546056 0.194553
N5    N     N_2   0.039787 0.330806 0.159251 -0.412222
H25   H     H_    0.000188 0.289029 0.073039 0.252268
C39   C     C_3   0.093384 0.245032 0.247015 -0.708225
H26   H     H_    0.108826 0.154419 0.189145 0.204673
H27   H     H_    0.031616 0.231531 0.330563 0.224026
H28   H     H_    0.179756 0.278704 0.290237 0.264302
N6    N     N_2   0.868294 0.699864 0.811202 -0.382626
H29   H     H_    0.807881 0.752889 0.867494 0.299893
C40   C     C_3   0.974250 0.768846 0.796104 -0.783337
H30   H     H_    0.950233 0.859111 0.758044 0.213215
H31   H     H_    0.032828 0.720779 0.720384 0.260560
H32   H     H_    0.018584 0.787877 0.896355 0.213684
N7    N     N_2   0.136013 0.372264 0.903442 -0.391886
H33   H     H_    0.049541 0.371837 0.871746 0.211939
C41   C     C_3   0.180380 0.247606 0.908176 -0.682929
H34   H     H_    0.107478 0.180778 0.887931 0.175590
H35   H     H_    0.219653 0.231290 0.007913 0.282642
H36   H     H_    0.246069 0.228877 0.827694 0.274761
N8    N     N_2   0.893018 0.633512 0.092211 -0.450506
H37   H     H_    0.967070 0.681530 0.070222 0.234116
C42   C     C_3   0.808699 0.710582 0.168154 -0.635816
H38   H     H_    0.761118 0.770760 0.101047 0.210860
H39   H     H_    0.856173 0.769276 0.247706 0.220348
H40   H     H_    0.747505 0.654500 0.221655 0.298943
O13   O     O_3   0.680158 0.101986 0.353634 -0.582518
C43   C     C_3   0.708395 0.023512 0.235679 -0.306280
H41   H     H_    0.795718 0.978598 0.251327 0.205124
H42   H     H_    0.716045 0.077175 0.146930 0.131849
H43   H     H_    0.639528 0.954172 0.203725 0.161422
O14   O     O_3   0.324123 0.899468 0.650727 -0.580206
C44   C     C_3   0.311378 0.970197 0.777803 -0.337043
H44   H     H_    0.216734 0.995208 0.792775 0.186963
H45   H     H_    0.367428 0.053006 0.794991 0.175464
H46   H     H_    0.340304 0.916060 0.860727 0.148409
O15   O     O_3   0.694690 0.852432 0.423489 -0.589016
C45   C     C_3   0.770895 0.856999 0.538720 -0.342917
H47   H     H_    0.837693 0.782084 0.523335 0.192016
H48   H     H_    0.723713 0.841454 0.634209 0.189973
H49   H     H_    0.817981 0.946215 0.550740 0.176406
O16   O     O_3   0.315353 0.152818 0.594822 -0.579297
C46   C     C_3   0.211729 0.125409 0.517773 -0.329804
H50   H     H_    0.228260 0.087081 0.411160 0.146530
H51   H     H_    0.161819 0.212625 0.512402 0.175688
H52   H     H_    0.156003 0.062281 0.570743 0.186058
O17   O     O_3   0.389609 0.318182 0.127716 -0.561293
C47   C     C_3   0.436713 0.198674 0.098989 -0.421296
H53   H     H_    0.527017 0.190116 0.141357 0.195348
H54   H     H_    0.434556 0.168787 0.988695 0.133523
H55   H     H_    0.382035 0.134609 0.151691 0.193216
O18   O     O_3   0.602572 0.687419 0.872319 -0.564795
C48   C     C_3   0.565370 0.808102 0.917746 -0.466358
H56   H     H_    0.640000 0.859560 0.967272 0.152223
H57   H     H_    0.489838 0.814094 0.988044 0.165041
H58   H     H_    0.540325 0.857211 0.827341 0.218424

loop_
_geom_bond_atom_site_label_1
_geom_bond_atom_site_label_2
_geom_bond_distance
_ccdc_geom_bond_type
N6    H29   1.026935 S    
N7    H33   1.019402 S    
C17   H1    1.056321 S    
C14   N8    1.424923 S    
C44   H44   1.108089 S    
C34   H8    1.100634 S    
C48   H58   1.107180 S    
N5    H25   1.027246 S    
C41   H36   1.099675 S    
C38   H22   1.108334 S    
O5    C3    1.333352 A    
C47   H53   1.100159 S    
O1    C1    1.324446 A    
C9    C11   1.402025 A    
C14   C16   1.417940 A    
C5    C15   1.430389 A    
C43   H41   1.108213 S    
O15   C45   1.409517 S    
C45   H47   1.106141 S    
O4    Cu1   1.995550 S    
C35   H13   1.107195 S    
O14   C44   1.421993 S    
C46   H52   1.107429 S    
C41   H34   1.111267 S    
C18   H2    1.064771 S    
N4    C36   1.448321 S    
C33   H6    1.097657 S    
C19   C21   1.401985 A    
C40   H31   1.099860 S    
C26   O16   1.382989 S    
N3    H11   1.028763 S    
N7    C41   1.445424 S    
Cu1   Cu2   2.770442 S    
C29   C31   1.455273 A    
O2    C2    1.324360 A    
C30   C32   1.450627 A    
C37   H21   1.104712 S    
C16   O10   1.382476 S    
N5    C39   1.444916 S    
C32   H4    1.073618 S    
C38   H23   1.106067 S    
C17   C22   1.404889 A    
C6    C16   1.430805 A    
N3    C35   1.450249 S    
C33   H7    1.103003 S    
C17   C19   1.389720 A    
C36   H16   1.109230 S    
C42   H38   1.097883 S    
C29   O17   1.382052 S    
C18   C20   1.394592 A    
O12   C38   1.410312 S    
O4    C2    1.324722 A    
Cu1   N1    2.081979 S    
Cu2   N2    2.081979 S    
O6    Cu2   2.043360 S    
C47   H55   1.106035 S    
C48   H57   1.105729 S    
C9    C22   1.452071 S    
C13   N7    1.424261 S    
C36   H17   1.110454 S    
C20   C22   1.406955 A    
C35   H14   1.110964 S    
O7    Cu2   2.051202 S    
C23   O13   1.389258 S    
O7    C3    1.336262 A    
C39   H26   1.111108 S    
O6    C4    1.333316 A    
C33   H5    1.096775 S    
C44   H45   1.109497 S    
C12   N6    1.432274 S    
C40   H32   1.104054 S    
C31   H3    1.074309 S    
C46   H50   1.114759 S    
O3    Cu2   1.995550 S    
O8    C4    1.335396 A    
C10   C21   1.447476 S    
C37   H20   1.111999 S    
C39   H27   1.108588 S    
C10   C12   1.396878 A    
C3    C20   1.519341 S    
C7    O11   1.387576 S    
C42   H40   1.099241 S    
C34   H9    1.104624 S    
C4    C19   1.517972 S    
C24   O14   1.385495 S    
O17   C47   1.408125 S    
C12   C14   1.394900 A    
C34   H10   1.096199 S    
O1    Cu1   1.959698 S    
N4    H15   1.021109 S    
C48   H56   1.102388 S    
O16   C46   1.404776 S    
C23   C25   1.416281 A    
C42   H39   1.104917 S    
C38   H24   1.108992 S    
C5    C7    1.399160 A    
O10   C34   1.410694 S    
C47   H54   1.107350 S    
N8    C42   1.437883 S    
C5    N3    1.424829 S    
C24   C27   1.406920 A    
C11   N5    1.425093 S    
C37   H19   1.103346 S    
O3    C1    1.324748 A    
O8    Cu1   2.051201 S    
C18   C21   1.413520 A    
C41   H35   1.097409 S    
C25   O15   1.381454 S    
O13   C43   1.421550 S    
C30   O18   1.385841 S    
C45   H49   1.111696 S    
C36   H18   1.107390 S    
C11   C13   1.396260 A    
O18   C48   1.413687 S    
O11   C37   1.410228 S    
C25   C27   1.397796 A    
N8    H37   1.028671 S    
C26   C28   1.396116 A    
C43   H42   1.097187 S    
C24   C26   1.416305 A    
C7    C9    1.405576 A    
C29   N2    1.371189 A    
C45   H48   1.115486 S    
C23   C28   1.409808 A    
C44   H46   1.089779 S    
C8    C10   1.410742 A    
C30   N1    1.372733 A    
C13   C15   1.407733 A    
C35   H12   1.101689 S    
O2    Cu2   1.959698 S    
C15   O9    1.383396 S    
C46   H51   1.102583 S    
O5    Cu1   2.043361 S    
C39   H28   1.111650 S    
C6    C8    1.400634 A    
O9    C33   1.400372 S    
C1    C28   1.472804 S    
N6    C40   1.438703 S    
C2    C27   1.473033 S    
C6    N4    1.431515 S    
C40   H30   1.110260 S    
C31   N1    1.379781 A    
C32   N2    1.379595 A    
C8    O12   1.384825 S    
C43   H43   1.114935 S    
