data_mof_unit_34818.cif
_audit_creation_date              2012-12-10T17:15:48-0500
_audit_creation_method            fapswitch 2.2
_symmetry_space_group_name_H-M    P1
_symmetry_Int_Tables_number       1
_space_group_crystal_system       triclinic
_cell_length_a                    10.146966
_cell_length_b                    10.674152
_cell_length_c                    10.756639
_cell_angle_alpha                 89.097922
_cell_angle_beta                  95.513607
_cell_angle_gamma                 80.414781
_cell_volume                      1142.87588339

loop_
_atom_site_label
_atom_site_type_symbol
_atom_type_description
_atom_site_fract_x
_atom_site_fract_y
_atom_site_fract_z
_atom_type_partial_charge
C1    C     C_R   0.443864 0.499203 0.267664 0.927988
C2    C     C_2   0.489936 0.449657 0.934535 -0.078539
C3    C     C_2   0.073244 0.490108 0.489940 -0.106344
C4    C     C_R   0.500936 0.260190 0.500261 0.942061
C5    C     C_2   0.926783 0.509904 0.510030 -0.110995
C6    C     C_R   0.556491 0.488480 0.733225 0.987686
C7    C     C_R   0.496553 0.739860 0.491036 0.924712
C8    C     C_R   0.562953 0.128376 0.277200 -0.183625
C9    C     C_R   0.586981 0.064534 0.168073 -0.223284
C10   C     C_R   0.560502 0.941254 0.154269 0.006631
C11   C     C_R   0.504995 0.883631 0.251971 -0.013287
C12   C     C_R   0.526046 0.065577 0.382074 0.034659
C13   C     C_R   0.507650 0.938673 0.372262 0.068943
C14   C     C_2   0.454688 0.120081 0.725408 0.378246
C15   C     C_2   0.586426 0.879905 0.034119 0.336124
C16   C     C_2   0.411927 0.793682 0.217186 0.348412
C17   C     C_R   0.502670 0.127234 0.495632 -0.114562
C18   C     C_R   0.473882 0.062262 0.602158 -0.001623
C19   C     C_R   0.469118 0.934926 0.594342 -0.310321
C20   C     C_R   0.489032 0.873631 0.483175 -0.049159
C21   C     C_2   0.412080 0.483421 0.135805 -0.384178
C22   C     C_2   0.513146 0.443189 0.067849 -0.158588
C23   C     C_2   0.588864 0.466919 0.866266 -0.272892
H1    H     H_    0.309186 0.509817 0.093623 0.165913
H2    H     H_    0.616410 0.417541 0.109541 0.190869
H3    H     H_    0.690874 0.465977 0.908271 0.149596
H4    H     H_    0.404513 0.073760 0.793199 0.057158
H5    H     H_    0.590485 0.938207 0.951425 0.074679
H6    H     H_    0.426909 0.732421 0.139199 0.130855
H7    H     H_    0.889777 0.577794 0.577888 0.167497
H8    H     H_    0.110252 0.422283 0.422023 0.163295
H9    H     H_    0.881103 0.384845 0.385174 0.167257
H10   H     H_    0.118905 0.615042 0.614927 0.167431
H11   H     H_    0.577334 0.226162 0.278138 0.158855
H12   H     H_    0.622512 0.113558 0.092219 0.156033
H13   H     H_    0.453512 0.881460 0.676953 0.141516
H14   H     H_    0.387707 0.450539 0.892849 0.189474
N1    N     N_2   0.157290 0.551390 0.551110 -0.186872
N2    N     N_2   0.842740 0.448550 0.448960 -0.190948
O1    O     O_R   0.568950 0.489660 0.307530 -0.623300
O2    O     O_2   0.611249 0.764467 0.027374 -0.594423
O3    O     O_2   0.309357 0.795583 0.268413 -0.560270
O4    O     O_R   0.348880 0.522640 0.340350 -0.579930
O5    O     O_R   0.610060 0.300270 0.483590 -0.623855
O6    O     O_R   0.389990 0.333260 0.516410 -0.606223
O7    O     O_R   0.651120 0.477360 0.659650 -0.611180
O8    O     O_R   0.431050 0.510340 0.692470 -0.609500
O9    O     O_R   0.610010 0.666740 0.483590 -0.625822
O10   O     O_R   0.389940 0.699730 0.516410 -0.574442
O11   O     O_2   0.498932 0.215859 0.755186 -0.600361
Zn1   Zn    Zn3+2 0.646940 0.477980 0.478090 0.962089
Zn2   Zn    Zn3+2 0.353060 0.522020 0.521910 0.996545

loop_
_geom_bond_atom_site_label_1
_geom_bond_atom_site_label_2
_ccdc_geom_bond_type
C12   C17   A    
C2    C22   S    
N2    Zn1   S    
C1    C21   S    
O8    Zn2   S    
C14   H4    S    
O1    Zn1   S    
C6    O7    A    
C9    C10   A    
C14   C18   S    
C19   C20   A    
C1    O1    A    
C8    C12   A    
O10   Zn2   S    
C7    O9    A    
C17   C18   A    
C16   H6    S    
C8    H11   S    
C21   C22   D    
C3    H8    S    
C11   C13   A    
C2    H14   S    
C7    O10   A    
C15   H5    S    
C14   O11   D    
C6    C23   S    
O5    Zn1   S    
C7    C20   S    
C19   H13   S    
C5    N2    D    
O6    Zn2   S    
O4    Zn2   S    
C21   H1    S    
C11   C16   S    
N1    Zn2   S    
C10   C11   A    
C4    C17   S    
C4    O6    A    
C16   O3    D    
C12   C13   A    
C15   O2    D    
C9    H12   S    
C5    H7    S    
C6    O8    A    
H9    N2    S    
C2    C23   D    
C23   H3    S    
C18   C19   A    
C4    O5    A    
C13   C20   A    
C10   C15   S    
O7    Zn1   S    
C1    O4    A    
O9    Zn1   S    
H10   N1    S    
C3    N1    D    
C8    C9    A    
C3    C5    S    
C22   H2    S    
