data_mof_unit_9919.cif
_audit_creation_date              2012-10-26T18:32:57-0400
_audit_creation_method            fapswitch 2.2
_symmetry_space_group_name_H-M    P1
_symmetry_Int_Tables_number       1
_space_group_crystal_system       triclinic
_cell_length_a                    13.79481
_cell_length_b                    13.923626
_cell_length_c                    15.033148
_cell_angle_alpha                 88.488615
_cell_angle_beta                  88.978353
_cell_angle_gamma                 85.948587
_cell_volume                      2878.88668585

loop_
_atom_site_label
_atom_site_type_symbol
_atom_type_description
_atom_site_fract_x
_atom_site_fract_y
_atom_site_fract_z
_atom_type_partial_charge
C1    C     C_R   0.500654 0.501006 0.328725 0.530176
C2    C     C_R   0.663044 0.423119 0.952448 -0.134769
C3    C     C_R   0.789725 0.577427 0.462860 0.434228
C4    C     C_R   0.210981 0.423150 0.538321 0.440245
C5    C     C_R   0.799097 0.421286 0.531108 -0.018941
C6    C     C_R   0.201447 0.577005 0.465571 -0.014369
C7    C     C_R   0.901887 0.417691 0.526491 -0.068443
C8    C     C_R   0.098966 0.579587 0.467981 -0.069259
C9    C     C_R   0.948799 0.499568 0.497596 -0.045510
C10   C     C_R   0.051956 0.498149 0.497490 -0.043385
C11   C     C_R   0.892511 0.582726 0.468961 0.023233
C12   C     C_R   0.499497 0.501822 0.671238 0.534427
C13   C     C_R   0.108377 0.415461 0.526722 0.009218
C14   C     C_R   0.958083 0.332748 0.548064 -0.148072
C15   C     C_R   0.043444 0.663071 0.442544 -0.147687
C16   C     C_R   0.514703 0.317361 0.500572 0.549225
C17   C     C_R   0.485018 0.682753 0.499267 0.545450
C18   C     C_R   0.061671 0.328529 0.543320 0.258506
C19   C     C_R   0.940171 0.667521 0.444732 0.270648
C20   C     C_1   0.476758 0.785422 0.496485 -0.022465
C21   C     C_1   0.521342 0.214924 0.501511 -0.029898
C22   C     C_2   0.459119 0.976140 0.489769 0.290157
C23   C     C_R   0.502933 0.509231 0.953226 0.058579
C24   C     C_2   0.538873 0.024187 0.501890 0.284545
C25   C     C_1   0.527786 0.128573 0.502085 -0.018157
C26   C     C_1   0.468531 0.871869 0.493501 -0.005103
C27   C     C_R   0.580530 0.462976 0.813782 -0.133490
C28   C     C_R   0.421772 0.547163 0.186303 -0.137255
C29   C     C_R   0.500168 0.505328 0.767930 -0.017039
C30   C     C_R   0.501987 0.504275 0.231960 -0.018184
C31   C     C_R   0.422860 0.552842 0.814309 -0.148655
C32   C     C_R   0.583327 0.464813 0.185194 -0.152805
C33   C     C_R   0.422638 0.553291 0.907058 0.010789
C34   C     C_R   0.503182 0.508797 0.046456 0.059468
C35   C     C_R   0.584124 0.465903 0.092500 0.011175
C36   C     C_3   0.709061 0.030092 0.510093 0.020245
C37   C     C_3   0.734537 0.063954 0.414772 -0.269003
C38   C     C_3   0.807634 0.141029 0.414856 -0.490845
C39   C     C_3   0.311400 0.987098 0.415198 0.005151
C40   C     C_3   0.353218 0.001140 0.320656 -0.271038
C41   C     C_3   0.284091 0.969843 0.250621 -0.486206
C42   C     C_3   0.729540 0.618475 0.324366 0.048203
C43   C     C_3   0.795798 0.671508 0.260339 -0.288872
C44   C     C_3   0.781229 0.642895 0.164342 -0.492828
C45   C     C_R   0.582790 0.465120 0.906235 0.012458
C46   C     C_3   0.229808 0.336808 0.673975 0.035820
C47   C     C_3   0.297087 0.371388 0.743553 -0.268388
C48   C     C_3   0.269131 0.337194 0.837239 -0.496600
C49   C     C_3   0.075092 0.156671 0.552782 0.015373
C50   C     C_3   0.044385 0.125786 0.647228 -0.277170
C51   C     C_3   0.986758 0.036319 0.646089 -0.481161
C52   C     C_3   0.924493 0.822189 0.375260 0.019104
C53   C     C_3   0.973176 0.899140 0.426365 -0.265703
C54   C     C_3   0.022587 0.967821 0.362381 -0.500147
C55   C     C_R   0.422137 0.550492 0.093586 0.011042
C56   C     C_R   0.343279 0.596147 0.954424 -0.137631
C57   C     C_R   0.663923 0.423961 0.045133 -0.138719
C58   C     C_R   0.342774 0.594257 0.047250 -0.137602
Cu1   Cu    Cu3+1 0.597420 0.500010 0.499990 0.972191
Cu2   Cu    Cu3+1 0.402580 0.499990 0.500010 0.988902
H1    H     H_    0.640895 0.427398 0.777455 0.120653
H2    H     H_    0.237419 0.638104 0.438450 0.126133
H3    H     H_    0.919523 0.270354 0.567179 0.091519
H4    H     H_    0.082392 0.725108 0.423513 0.091512
H5    H     H_    0.772142 0.985357 0.536733 0.158223
H6    H     H_    0.697947 0.091123 0.556436 0.118358
H7    H     H_    0.765208 0.001500 0.376562 0.162015
H8    H     H_    0.668713 0.094139 0.379659 0.161494
H9    H     H_    0.776191 0.205936 0.449287 0.154807
H10   H     H_    0.826937 0.161869 0.345330 0.147061
H11   H     H_    0.874423 0.112838 0.449075 0.134056
H12   H     H_    0.359550 0.578723 0.222994 0.117963
H13   H     H_    0.238420 0.025911 0.418273 0.155055
H14   H     H_    0.299599 0.910118 0.430426 0.118140
H15   H     H_    0.366138 0.078350 0.308646 0.180356
H16   H     H_    0.423736 0.958085 0.313489 0.149466
H17   H     H_    0.268586 0.893273 0.262349 0.139249
H18   H     H_    0.317894 0.977589 0.183465 0.150120
H19   H     H_    0.214962 0.015784 0.252588 0.148079
H20   H     H_    0.653942 0.638541 0.303259 0.167030
H21   H     H_    0.744342 0.539288 0.315634 0.118392
H22   H     H_    0.778414 0.750201 0.265115 0.174958
H23   H     H_    0.362874 0.589001 0.778201 0.112435
H24   H     H_    0.872922 0.653486 0.277356 0.159021
H25   H     H_    0.799151 0.564423 0.156972 0.147753
H26   H     H_    0.829771 0.682744 0.119225 0.147629
H27   H     H_    0.704762 0.660760 0.144395 0.159519
H28   H     H_    0.226346 0.257806 0.684158 0.189185
H29   H     H_    0.155760 0.371204 0.687338 0.098783
H30   H     H_    0.373273 0.344592 0.728584 0.189526
H31   H     H_    0.290271 0.450974 0.741062 0.172386
H32   H     H_    0.193489 0.364079 0.854165 0.144129
H33   H     H_    0.318880 0.365306 0.886032 0.167232
H34   H     H_    0.644982 0.431421 0.220974 0.111447
H35   H     H_    0.275244 0.257268 0.842244 0.146761
H36   H     H_    0.129387 0.100431 0.528443 0.162234
H37   H     H_    0.015334 0.158739 0.504333 0.112123
H38   H     H_    0.110419 0.109821 0.687825 0.161562
H39   H     H_    0.999579 0.184623 0.679783 0.152581
H40   H     H_    0.918764 0.051860 0.608346 0.131544
H41   H     H_    0.967325 0.014374 0.715298 0.151407
H42   H     H_    0.030786 0.975901 0.614980 0.148970
H43   H     H_    0.863995 0.859590 0.337550 0.139970
H44   H     H_    0.973877 0.788376 0.323671 0.097403
H45   H     H_    0.281202 0.630047 0.919711 0.107845
H46   H     H_    0.917607 0.940520 0.466527 0.162112
H47   H     H_    0.027666 0.866245 0.473416 0.155053
H48   H     H_    0.080364 0.927608 0.323259 0.141435
H49   H     H_    0.056153 0.023597 0.400367 0.128169
H50   H     H_    0.968727 0.004005 0.316253 0.149486
H51   H     H_    0.726492 0.391017 0.079796 0.102214
H52   H     H_    0.280332 0.626821 0.082800 0.104101
H53   H     H_    0.724921 0.389423 0.916919 0.105256
H54   H     H_    0.763443 0.359492 0.557049 0.126915
N1    N     N_R   0.743820 0.499960 0.499930 -0.247459
N2    N     N_R   0.256180 0.500040 0.500070 -0.235387
O1    O     O_R   0.582280 0.500030 0.370250 -0.525993
O2    O     O_3   0.369151 0.027526 0.479587 -0.580887
O3    O     O_3   0.737088 0.648018 0.413701 -0.491793
O4    O     O_3   0.267504 0.353801 0.586436 -0.490368
O5    O     O_3   0.121646 0.243693 0.553699 -0.555233
O6    O     O_3   0.883729 0.754494 0.434540 -0.520367
O7    O     O_R   0.417720 0.499970 0.629750 -0.498604
O8    O     O_R   0.417740 0.500020 0.370270 -0.501839
O9    O     O_R   0.582260 0.499980 0.629730 -0.499780
O10   O     O_R   0.593900 0.362160 0.500010 -0.531006
O11   O     O_R   0.406100 0.637840 0.499990 -0.529759
O12   O     O_R   0.429360 0.362150 0.500030 -0.421300
O13   O     O_R   0.570640 0.637850 0.499970 -0.429340
O14   O     O_3   0.628935 0.971805 0.510975 -0.574874

loop_
_geom_bond_atom_site_label_1
_geom_bond_atom_site_label_2
_ccdc_geom_bond_type
C32   H34   S    
C38   H10   S    
C19   O6    S    
C42   H20   S    
C16   C21   S    
C23   C45   A    
C48   H35   S    
C5    H54   S    
C27   C29   A    
C14   C18   A    
C2    C57   A    
C52   H43   S    
C46   H29   S    
C53   C54   S    
C51   H42   S    
C15   C19   A    
C11   C19   A    
C50   H39   S    
C13   C18   A    
C58   H52   S    
C36   C37   S    
C41   H17   S    
C12   C29   S    
C2    H53   S    
C36   H6    S    
C42   O3    S    
C37   H8    S    
C17   C20   S    
C31   H23   S    
C54   H50   S    
C7    C9    A    
C34   C35   A    
C39   H14   S    
C4    C13   A    
Cu2   O8    S    
C27   H1    S    
C38   H11   S    
C52   O6    S    
C53   H46   S    
C7    C14   A    
Cu1   O13   S    
C23   C33   A    
C15   H4    S    
C31   C33   A    
C44   H27   S    
C9    C10   A    
C27   C45   A    
C33   C56   A    
C38   H9    S    
C34   C55   A    
Cu1   O1    S    
C5    N1    A    
C43   H24   S    
C28   H12   S    
C42   H21   S    
C44   H26   S    
C28   C55   A    
C46   H28   S    
C2    C45   A    
C50   H38   S    
C48   H33   S    
C17   O13   A    
C32   C35   A    
Cu2   O12   S    
C24   C25   S    
C41   H18   S    
C5    C7    A    
C36   H5    S    
C17   O11   A    
C6    C8    A    
C12   O9    A    
C40   H16   S    
C54   H49   S    
Cu1   O10   S    
Cu2   O7    S    
C43   C44   S    
C37   C38   S    
C36   O14   S    
C16   O12   A    
C53   H47   S    
C47   C48   S    
C23   C34   A    
C49   O5    S    
C50   C51   S    
C46   O4    S    
C1    O1    A    
C9    C11   A    
C6    N2    A    
C3    O3    S    
C8    C10   A    
C40   C41   S    
C8    C15   A    
C22   C26   S    
C47   H30   S    
C22   C24   D    
Cu2   N2    S    
Cu1   O9    S    
C42   C43   S    
C44   H25   S    
C39   C40   S    
C52   C53   S    
C51   H40   S    
C22   O2    S    
C21   C25   T    
C46   C47   S    
C52   H44   S    
C47   H31   S    
C4    N2    A    
Cu2   O11   S    
C10   C13   A    
C41   H19   S    
C51   H41   S    
C39   O2    S    
C40   H15   S    
C54   H48   S    
C35   C57   A    
C6    H2    S    
C28   C30   A    
C1    O8    A    
C29   C31   A    
C3    N1    A    
C30   C32   A    
C57   H51   S    
C12   O7    A    
C20   C26   T    
C14   H3    S    
C37   H7    S    
C1    C30   S    
C56   C58   A    
C39   H13   S    
C49   H36   S    
C56   H45   S    
C3    C11   A    
C18   O5    S    
C49   H37   S    
C24   O14   S    
Cu1   Cu2   S    
Cu1   N1    S    
C49   C50   S    
C48   H32   S    
C55   C58   A    
C43   H22   S    
C4    O4    S    
C16   O10   A    
