data_mof_unit_45410.cif
_audit_creation_date              2013-03-05T16:06:18-0500
_audit_creation_method            fapswitch 2.2
_symmetry_space_group_name_H-M    P1
_symmetry_Int_Tables_number       1
_space_group_crystal_system       triclinic
_cell_length_a                    10.840008
_cell_length_b                    9.663034
_cell_length_c                    27.820118
_cell_angle_alpha                 90.439806
_cell_angle_beta                  93.510976
_cell_angle_gamma                 90.24363
_cell_volume                      2908.49634763

loop_
_atom_site_label
_atom_site_type_symbol
_atom_site_description
_atom_site_fract_x
_atom_site_fract_y
_atom_site_fract_z
_atom_type_partial_charge
O1    O     O_R   0.319640 0.618740 0.500000 -0.572235
O2    O     O_R   0.680360 0.381260 0.500000 -0.570544
O3    O     O_R   0.680360 0.618740 0.500000 -0.573123
O4    O     O_R   0.319640 0.381260 0.500000 -0.566574
C1    C     C_R   0.262661 0.499800 0.501030 0.844972
C2    C     C_R   0.737463 0.500108 0.499601 0.841874
O5    O     O_R   0.500020 0.618770 0.430260 -0.567354
O6    O     O_R   0.499980 0.381230 0.569740 -0.578221
O7    O     O_R   0.499980 0.618770 0.569740 -0.565596
O8    O     O_R   0.500020 0.381230 0.430260 -0.568615
C3    C     C_R   0.497092 0.498963 0.407794 0.859098
C4    C     C_R   0.503396 0.499528 0.592337 0.863690
Cu1   Cu    Cu3+1 0.500000 0.640660 0.500000 1.027473
Cu2   Cu    Cu3+1 0.500000 0.359340 0.500000 1.023631
C5    C     C_R   0.396406 0.426551 0.174991 0.616390
C6    C     C_R   0.612546 0.501917 0.827319 0.631572
O9    O     O_2   0.305054 0.363995 0.197519 -0.499354
O10   O     O_2   0.722899 0.481690 0.808530 -0.485326
N1    N     N_R   0.495320 0.479629 0.202138 -0.441240
N2    N     N_R   0.505682 0.485315 0.798761 -0.443338
C7    C     C_R   0.591756 0.540616 0.180975 0.617003
C8    C     C_R   0.394234 0.480071 0.819476 0.608870
C9    C     C_R   0.591204 0.416411 0.282935 0.016329
C10   C     C_R   0.439746 0.384227 0.717662 0.008585
C11   C     C_R   0.591053 0.429860 0.333179 -0.235816
C12   C     C_R   0.431956 0.400717 0.667496 -0.242565
C13   C     C_R   0.390537 0.542670 0.326241 -0.021178
C14   C     C_R   0.599526 0.567439 0.674201 -0.034790
C15   C     C_R   0.396854 0.542282 0.276145 -0.130550
C16   C     C_R   0.587758 0.573841 0.723970 -0.140740
C17   C     C_R   0.494853 0.478499 0.254039 0.244484
C18   C     C_R   0.510282 0.480807 0.746687 0.223678
C19   C     C_R   0.493559 0.492835 0.102016 -0.047780
C20   C     C_R   0.496814 0.505859 0.898689 -0.065599
C21   C     C_R   0.388811 0.440796 0.124215 -0.158334
C22   C     C_R   0.607200 0.536176 0.876578 -0.129379
C23   C     C_R   0.278626 0.414443 0.095328 -0.039202
C24   C     C_R   0.706452 0.600100 0.903998 -0.113543
C25   C     C_R   0.600515 0.531606 0.130763 -0.055792
C26   C     C_R   0.390502 0.466373 0.869773 -0.051436
C27   C     C_R   0.492896 0.493897 0.355016 -0.076440
C28   C     C_R   0.509325 0.494468 0.645366 -0.110277
H1    H     H_    0.321920 0.585952 0.253646 0.194132
H2    H     H_    0.646876 0.643722 0.745603 0.221435
C29   C     C_R   0.385342 0.470589 0.971663 0.051179
C30   C     C_R   0.600448 0.546047 0.028875 0.069569
C31   C     C_R   0.598617 0.559415 0.977826 0.012475
C32   C     C_R   0.381411 0.477599 0.022728 -0.065768
C33   C     C_R   0.493508 0.512369 0.949519 0.027126
C34   C     C_R   0.491859 0.505179 0.051073 0.030002
C35   C     C_R   0.287407 0.412868 0.942212 -0.226254
C36   C     C_R   0.710303 0.562657 0.058222 -0.129219
C37   C     C_R   0.285854 0.415514 0.892030 -0.025705
C38   C     C_R   0.711243 0.560829 0.108394 -0.081110
O11   O     O_2   0.288245 0.491224 0.791794 -0.502932
O12   O     O_2   0.676449 0.613038 0.208516 -0.506288
C39   C     C_R   0.271425 0.453217 0.046810 0.317782
C40   C     C_R   0.696470 0.622398 0.954039 0.336742
H3    H     H_    0.371548 0.333491 0.645200 0.202250
H4    H     H_    0.665934 0.386091 0.355748 0.176931
H5    H     H_    0.212885 0.357820 0.957743 0.213104
H6    H     H_    0.798919 0.569249 0.042647 0.234680
C41   C     C_R   0.063563 0.374085 0.501895 -0.142373
C42   C     C_R   0.936782 0.625263 0.499960 -0.168280
C43   C     C_R   0.935722 0.374226 0.500341 -0.118036
C44   C     C_R   0.064549 0.625100 0.502043 -0.164788
H7    H     H_    0.110864 0.275744 0.503046 0.209147
H8    H     H_    0.889603 0.723564 0.498464 0.216372
H9    H     H_    0.887637 0.275840 0.499514 0.202953
H10   H     H_    0.112554 0.723399 0.503634 0.217528
C45   C     C_R   0.871579 0.499919 0.499655 -0.036263
C46   C     C_R   0.128688 0.499564 0.502006 -0.044610
C47   C     C_R   0.431198 0.073288 0.465664 0.007902
C48   C     C_R   0.569527 0.927877 0.533907 0.024277
C49   C     C_R   0.569056 0.075574 0.534185 0.011761
C50   C     C_R   0.430288 0.925419 0.465975 0.022270
N3    N     N_R   0.500000 0.852070 0.500000 -0.252645
N4    N     N_R   0.500000 0.147930 0.500000 -0.254012
C51   C     C_2   0.271518 0.580246 0.346529 0.893417
O13   O     O_2   0.200037 0.658237 0.324520 -0.554383
O14   O     O_R   0.237490 0.520562 0.389371 -0.787051
H11   H     H_    0.151049 0.547339 0.397755 0.331281
C52   C     C_2   0.718693 0.611227 0.655436 0.909617
O15   O     O_2   0.783700 0.697397 0.677391 -0.549382
O16   O     O_R   0.761382 0.546022 0.614618 -0.773280
H12   H     H_    0.848446 0.575136 0.607753 0.336387
C53   C     C_2   0.357561 0.144633 0.426989 0.931604
O17   O     O_2   0.398289 0.155057 0.387136 -0.548979
O18   O     O_R   0.237395 0.187002 0.434529 -0.755966
H13   H     H_    0.195025 0.230423 0.404884 0.355807
C54   C     C_2   0.647685 0.859800 0.571234 0.912763
O19   O     O_2   0.609435 0.846533 0.611322 -0.559724
O20   O     O_R   0.771416 0.835246 0.563147 -0.774899
H14   H     H_    0.822869 0.813003 0.593643 0.351147
C55   C     C_2   0.643226 0.149309 0.572764 0.929149
O21   O     O_2   0.746529 0.191894 0.565486 -0.582384
O22   O     O_R   0.599079 0.158068 0.618856 -0.728576
H15   H     H_    0.659076 0.207287 0.642678 0.348597
C56   C     C_2   0.350543 0.854187 0.428939 0.915300
O23   O     O_2   0.387530 0.836464 0.388745 -0.558394
O24   O     O_R   0.227316 0.828258 0.437686 -0.771364
H16   H     H_    0.176577 0.796098 0.407909 0.351874
C57   C     C_2   0.167232 0.350609 0.114304 1.004602
O25   O     O_2   0.070078 0.414296 0.113213 -0.543883
O26   O     O_R   0.172367 0.214818 0.131279 -0.697584
H17   H     H_    0.090265 0.181902 0.142704 0.356042
C58   C     C_2   0.816510 0.654101 0.880697 0.939318
O27   O     O_2   0.920255 0.629238 0.898169 -0.522237
O28   O     O_R   0.801205 0.736546 0.839679 -0.728609
H18   H     H_    0.882897 0.767466 0.827342 0.361375
C59   C     C_2   0.382450 0.259867 0.738178 0.965092
O29   O     O_2   0.290689 0.206829 0.717770 -0.548317
O30   O     O_R   0.436463 0.199782 0.779886 -0.733828
H19   H     H_    0.391069 0.113467 0.789636 0.363221
C60   C     C_2   0.689944 0.333396 0.261834 0.943047
O31   O     O_2   0.790457 0.320920 0.283828 -0.556039
O32   O     O_R   0.667464 0.266114 0.217454 -0.731826
H20   H     H_    0.741929 0.213057 0.207061 0.363617
C61   C     C_2   0.178627 0.349457 0.864937 0.944527
O33   O     O_2   0.073762 0.372488 0.876759 -0.521781
O34   O     O_R   0.197466 0.256187 0.827481 -0.722684
H21   H     H_    0.117228 0.217235 0.812233 0.362778
C62   C     C_2   0.832703 0.576047 0.135636 0.999273
O35   O     O_2   0.905428 0.665431 0.124278 -0.527054
O36   O     O_R   0.865690 0.485335 0.173175 -0.697934
H22   H     H_    0.949553 0.507897 0.189563 0.371477
O37   O     O_3   0.155142 0.474688 0.025093 -0.686940
H23   H     H_    0.161258 0.552209 0.002177 0.357751
O38   O     O_3   0.773222 0.715860 0.979409 -0.706460
H24   H     H_    0.807393 0.783465 0.957171 0.346446

loop_
_geom_bond_atom_site_label_1
_geom_bond_atom_site_label_2
_geom_bond_distance
_ccdc_geom_bond_type
C38   C62   1.484572 S    
C41   C43   1.383835 A    
O20   H14   1.011410 S    
C13   C15   1.399534 A    
C55   O21   1.220419 D    
C35   H5    1.079270 S    
C53   O17   1.222947 D    
O3    C2    1.305396 A    
N1    C17   1.444336 S    
O14   H11   1.013540 S    
C49   C55   1.477738 S    
C32   C39   1.422559 A    
C31   C33   1.416063 A    
O16   H12   1.013401 S    
C50   C56   1.468882 S    
C5    N1    1.368683 A    
C19   C25   1.415031 A    
C20   C26   1.413779 A    
C42   H8    1.080591 S    
N1    C7    1.364624 A    
C10   C12   1.403347 A    
O30   H19   1.013747 S    
C1    C46   1.454174 S    
C13   C51   1.484906 S    
C62   O36   1.399222 S    
C25   C38   1.413866 A    
C29   C35   1.410969 A    
C40   O38   1.384884 S    
C60   O31   1.223374 D    
C30   C36   1.409847 A    
C42   C45   1.399456 A    
C14   C28   1.409301 A    
C24   C58   1.486755 S    
O7    Cu1   1.953298 S    
C47   C53   1.476807 S    
C4    C28   1.473929 S    
C24   C40   1.417849 A    
C44   C46   1.400770 A    
C59   O29   1.223296 D    
C60   O32   1.398564 S    
C48   N3    1.375520 A    
C47   N4    1.373517 A    
C11   H4    1.084673 S    
C12   H3    1.084421 S    
O3    Cu1   1.967439 S    
C6    N2    1.372084 A    
C32   C34   1.415889 A    
Cu1   Cu2   2.718405 S    
C15   H1    1.083676 S    
C14   C52   1.483779 S    
C58   O28   1.398656 S    
C16   H2    1.082445 S    
O2    C2    1.302757 A    
C10   C59   1.484313 S    
C5    C21   1.417754 A    
O7    C4    1.316384 A    
C36   C38   1.395449 A    
O22   H15   1.013975 S    
C41   H7    1.081459 S    
C61   O34   1.397502 S    
C2    C45   1.453742 S    
Cu1   N3    2.042862 S    
C48   C49   1.427198 A    
O24   H16   1.011994 S    
C62   O35   1.223209 D    
C50   N3    1.377200 A    
C57   O26   1.398139 S    
O8    Cu2   1.953298 S    
C11   C27   1.401104 A    
C54   O19   1.220866 D    
C23   C57   1.481211 S    
C19   C34   1.422165 A    
C43   C45   1.401755 A    
C35   C37   1.395591 A    
C9    C17   1.416671 A    
C48   C54   1.461635 S    
O5    C3    1.310743 A    
C10   C18   1.419290 A    
C54   O20   1.394526 S    
C13   C27   1.412637 A    
C52   O15   1.223699 D    
C7    C25   1.407957 A    
C29   C33   1.416194 A    
O6    C4    1.299644 A    
C8    C26   1.409572 A    
C55   O22   1.397938 S    
C59   O30   1.398673 S    
O34   H21   1.013756 S    
C52   O16   1.398741 S    
N2    C8    1.370905 A    
C53   O18   1.394654 S    
O36   H22   1.013829 S    
C47   C50   1.428951 A    
O1    C1    1.303802 A    
O1    Cu1   1.965649 S    
C58   O27   1.223044 D    
O37   H23   0.992006 S    
C12   C28   1.403010 A    
C51   O14   1.397080 S    
O38   H24   0.989404 S    
N2    C18   1.452926 S    
C29   C32   1.424969 A    
C5    O9    1.347414 S    
C30   C31   1.425982 A    
C20   C33   1.417669 A    
O6    Cu2   1.950070 S    
C21   C23   1.419157 A    
O4    C1    1.304629 A    
C39   O37   1.381238 S    
C7    O12   1.348999 S    
C61   O33   1.223394 D    
C37   C61   1.485123 S    
C8    O11   1.348572 S    
O26   H17   1.013922 S    
C30   C34   1.418360 A    
C56   O23   1.221885 D    
C14   C16   1.399120 A    
C15   C17   1.402256 A    
C36   H6    1.079557 S    
O32   H20   1.013828 S    
C6    C22   1.412013 A    
C31   C40   1.421313 A    
C16   C18   1.407209 A    
C44   H10   1.080428 S    
C43   H9    1.081692 S    
C22   C24   1.416897 A    
C19   C21   1.417504 A    
C3    C27   1.466653 S    
C20   C22   1.409240 A    
Cu2   N4    2.042863 S    
O4    Cu2   1.967439 S    
O2    Cu2   1.965649 S    
C49   N4    1.371537 A    
O8    C3    1.301807 A    
C9    C60   1.486858 S    
C51   O13   1.223595 D    
O5    Cu1   1.950070 S    
C9    C11   1.402952 A    
C41   C46   1.400339 A    
C6    O10   1.348849 S    
C26   C37   1.413394 A    
C57   O25   1.220929 D    
O18   H13   1.013765 S    
O28   H18   1.013810 S    
C56   O24   1.394352 S    
C23   C39   1.401229 A    
C42   C44   1.382664 A    
