data_mof_unit_13171.cif
_audit_creation_date              2012-12-10T19:24:11-0500
_audit_creation_method            fapswitch 2.2
_symmetry_space_group_name_H-M    P1
_symmetry_Int_Tables_number       1
_space_group_crystal_system       triclinic
_cell_length_a                    10.532449
_cell_length_b                    10.498064
_cell_length_c                    9.831754
_cell_angle_alpha                 91.024215
_cell_angle_beta                  92.526783
_cell_angle_gamma                 90.512448
_cell_volume                      1085.81820342

loop_
_atom_site_label
_atom_site_type_symbol
_atom_type_description
_atom_site_fract_x
_atom_site_fract_y
_atom_site_fract_z
_atom_type_partial_charge
C1    C     C_R   0.498115 0.257939 0.499164 0.953507
C2    C     C_R   0.501892 0.742061 0.500835 0.953561
C3    C     C_3   0.403696 0.956309 0.572817 -0.202764
C4    C     C_3   0.596319 0.043692 0.427175 -0.202668
C5    C     C_3   0.476815 0.387903 0.043453 0.000179
C6    C     C_3   0.523185 0.612097 0.956538 0.000139
C7    C     C_3   0.584874 0.425324 0.954316 -0.032558
C8    C     C_3   0.415127 0.574679 0.045682 -0.032706
C9    C     C_3   0.390267 0.462742 0.944737 -0.123939
C10   C     C_3   0.609734 0.537263 0.055260 -0.124040
C11   C     C_R   0.257989 0.495321 0.496825 0.976692
C12   C     C_R   0.742012 0.504658 0.503173 0.976726
C13   C     C_3   0.043244 0.404273 0.576231 -0.058597
C14   C     C_3   0.956758 0.595677 0.423755 -0.058528
C15   C     C_3   0.946035 0.389811 0.454626 -0.323052
C16   C     C_3   0.053965 0.610141 0.545364 -0.323053
C17   C     C_3   0.876983 0.507474 0.508978 -0.080481
C18   C     C_3   0.123019 0.492479 0.491013 -0.080450
C19   C     C_3   0.973005 0.520668 0.630500 -0.052541
C20   C     C_3   0.026996 0.479281 0.369489 -0.052541
C21   C     C_3   0.512608 0.045214 0.629185 -0.175677
C22   C     C_3   0.487410 0.954785 0.370808 -0.175575
C23   C     C_3   0.610576 0.963950 0.556566 -0.021921
C24   C     C_3   0.389441 0.036050 0.443424 -0.021777
C25   C     C_3   0.503062 0.877004 0.501275 -0.046040
C26   C     C_3   0.496954 0.122996 0.498719 -0.045931
H1    H     H_    0.899548 0.299214 0.418432 0.178994
H2    H     H_    0.100448 0.700738 0.581559 0.178949
H3    H     H_    0.523206 0.084483 0.734787 0.179295
H4    H     H_    0.476813 0.915514 0.265207 0.179231
H5    H     H_    0.324869 0.917217 0.631346 0.191793
H6    H     H_    0.675144 0.082784 0.368645 0.191749
H7    H     H_    0.299026 0.431359 0.893537 0.201088
H8    H     H_    0.700977 0.568648 0.106454 0.200930
N1    N     N_3   0.499910 0.500030 0.863290 -0.127533
N2    N     N_3   0.500090 0.499970 0.136710 -0.127525
O1    O     O_R   0.500010 0.313960 0.616610 -0.629870
O2    O     O_R   0.499990 0.686040 0.383390 -0.629892
O3    O     O_R   0.500060 0.313950 0.383350 -0.584070
O4    O     O_R   0.499940 0.686050 0.616650 -0.584226
O5    O     O_R   0.313930 0.499970 0.616610 -0.603950
O6    O     O_R   0.686070 0.500030 0.383390 -0.603959
O7    O     O_R   0.313980 0.499960 0.383350 -0.581781
O8    O     O_R   0.686020 0.500040 0.616650 -0.581772
Zn1   Zn    Zn3+2 0.499970 0.500010 0.655740 1.028446
Zn2   Zn    Zn3+2 0.500030 0.499990 0.344260 1.028402
C27   C     C_2   0.086587 0.293003 0.659832 0.955529
O9    O     O_2   0.008879 0.232620 0.721841 -0.557609
O10   O     O_R   0.214342 0.258176 0.666096 -0.795067
H9    H     H_    0.231017 0.181637 0.725494 0.349163
C28   C     C_2   0.913417 0.706938 0.340139 0.955462
O11   O     O_2   0.991101 0.767248 0.278037 -0.557726
O12   O     O_R   0.785691 0.741842 0.333971 -0.795074
H10   H     H_    0.769017 0.818372 0.274559 0.349023
C29   C     C_2   0.957365 0.549398 0.778811 0.961801
O13   O     O_2   0.050697 0.548420 0.857191 -0.627632
O14   O     O_R   0.838944 0.581250 0.826569 -0.753850
H11   H     H_    0.843651 0.603694 0.927269 0.371541
C30   C     C_2   0.042634 0.450522 0.221183 0.961797
O15   O     O_2   0.949270 0.451308 0.142835 -0.627568
O16   O     O_R   0.161092 0.418845 0.173400 -0.754102
H12   H     H_    0.156382 0.396305 0.072721 0.371550
C31   C     C_2   0.736973 0.927688 0.618917 0.921924
O17   O     O_2   0.812386 0.011185 0.657561 -0.577365
O18   O     O_R   0.768739 0.799687 0.631933 -0.766584
H13   H     H_    0.857881 0.788748 0.672733 0.355262
C32   C     C_2   0.263061 0.072314 0.381024 0.921910
O19   O     O_2   0.187635 0.988818 0.342407 -0.577403
O20   O     O_R   0.231330 0.200314 0.367919 -0.766826
H14   H     H_    0.142200 0.211253 0.327081 0.355205
C33   C     C_1   0.679287 0.339259 0.898641 0.307589
N3    N     N_1   0.753500 0.271137 0.854679 -0.093730
C34   C     C_1   0.320720 0.660751 0.101357 0.307883
N4    N     N_1   0.246514 0.728880 0.145320 -0.093668
C35   C     C_2   0.452637 0.255159 0.089859 0.956454
O21   O     O_2   0.539679 0.194028 0.141557 -0.643964
O22   O     O_R   0.332615 0.199396 0.066428 -0.782081
H15   H     H_    0.329363 0.107871 0.097343 0.353761
C36   C     C_2   0.547309 0.744824 0.910050 0.956295
O23   O     O_2   0.460112 0.806055 0.858693 -0.644035
O24   O     O_R   0.667450 0.800414 0.932869 -0.781732
H16   H     H_    0.670635 0.891985 0.902080 0.353610

loop_
_geom_bond_atom_site_label_1
_geom_bond_atom_site_label_2
_ccdc_geom_bond_type
C16   H2    S    
C7    C10   S    
C29   O13   D    
C31   O18   S    
C11   C18   S    
C34   N4    T    
C21   C26   S    
O24   H16   S    
C6    C36   S    
C27   O10   S    
O22   H15   S    
C13   C18   S    
C24   C26   S    
C7    C33   S    
C5    N2    S    
C6    N1    S    
C8    N2    S    
C12   O6    A    
C24   C32   S    
C13   C27   S    
C14   C28   S    
C8    C9    S    
C22   C25   S    
C12   C17   S    
C11   O7    A    
C18   C20   S    
C1    O1    A    
C23   C31   S    
C30   O15   D    
C9    H7    S    
C14   C17   S    
C3    C24   S    
O16   H12   S    
C21   C23   S    
C15   C20   S    
C30   O16   S    
C13   C19   S    
C32   O19   D    
C14   C20   S    
C3    C25   S    
C36   O23   D    
C5    C7    S    
C4    C23   S    
C6    C8    S    
O12   H10   S    
C21   H3    S    
C28   O11   D    
C28   O12   S    
C5    C35   S    
C3    H5    S    
C35   O21   D    
C5    C9    S    
C4    C22   S    
C2    O2    A    
C15   H1    S    
C27   O9    D    
C10   H8    S    
C20   C30   S    
N2    Zn2   S    
C35   O22   S    
C4    H6    S    
O3    Zn2   S    
O18   H13   S    
C13   C15   S    
O6    Zn2   S    
C1    C26   S    
C22   C24   S    
C3    C21   S    
O1    Zn1   S    
N1    Zn1   S    
O8    Zn1   S    
C36   O24   S    
C19   C29   S    
C15   C17   S    
C22   H4    S    
C7    N1    S    
C6    C10   S    
C4    C26   S    
C29   O14   S    
C33   N3    T    
C12   O8    A    
O14   H11   S    
C16   C19   S    
C8    C34   S    
C17   C19   S    
C11   O5    A    
C2    C25   S    
C14   C16   S    
C23   C25   S    
O20   H14   S    
O7    Zn2   S    
O2    Zn2   S    
C1    O3    A    
C31   O17   D    
C2    O4    A    
O4    Zn1   S    
C16   C18   S    
O10   H9    S    
C9    N1    S    
O5    Zn1   S    
C10   N2    S    
C32   O20   S    
