data_mof_unit_25508.cif
_audit_creation_date              2012-12-11T17:37:46-0500
_audit_creation_method            fapswitch 2.2
_symmetry_space_group_name_H-M    P1
_symmetry_Int_Tables_number       1
_space_group_crystal_system       triclinic
_cell_length_a                    13.085772
_cell_length_b                    13.090177
_cell_length_c                    15.588625
_cell_angle_alpha                 117.178433
_cell_angle_beta                  62.78244
_cell_angle_gamma                 98.194189
_cell_volume                      2104.96120327

loop_
_atom_site_label
_atom_site_type_symbol
_atom_type_description
_atom_site_fract_x
_atom_site_fract_y
_atom_site_fract_z
_atom_type_partial_charge
C1    C     C_R   0.003493 0.833302 0.052971 -0.152931
C2    C     C_R   0.289807 0.604812 0.793242 -0.057157
C3    C     C_R   0.260906 0.416124 0.043802 -0.218719
C4    C     C_R   0.678176 0.467728 0.220769 -0.078202
C5    C     C_R   0.017190 0.285358 0.687289 -0.054408
C6    C     C_R   0.362057 0.429804 0.964767 0.086153
C7    C     C_R   0.978519 0.180983 0.682850 0.048757
C8    C     C_R   0.288742 0.571394 0.695645 0.090814
C9    C     C_R   0.033380 0.143780 0.015351 0.090000
C10   C     C_R   0.449231 0.829476 0.343106 -0.225215
C11   C     C_R   0.328184 0.848196 0.391047 0.515671
C12   C     C_R   0.667376 0.550692 0.320032 -0.067164
C13   C     C_R   0.277771 0.902736 0.358014 -0.141952
C14   C     C_R   0.349424 0.940264 0.279334 0.427989
C15   C     C_R   0.469252 0.921008 0.232917 -0.055124
C16   C     C_R   0.742567 0.544035 0.919020 -0.085975
C17   C     C_R   0.519031 0.865631 0.264431 -0.140299
C18   C     C_R   0.119870 0.036997 0.522044 -0.146919
C19   C     C_R   0.004335 0.079570 0.585638 0.052102
C20   C     C_R   0.919401 0.030618 0.551797 0.111168
C21   C     C_R   0.952399 0.935699 0.453222 -0.158292
C22   C     C_R   0.067948 0.890773 0.389686 0.065223
C23   C     C_R   0.642636 0.499415 0.969552 -0.158578
C24   C     C_R   0.153567 0.942331 0.422578 0.183556
C25   C     C_R   0.726639 0.053784 0.702344 -0.187803
C26   C     C_R   0.608392 0.084839 0.757093 0.484737
C27   C     C_R   0.559181 0.139746 0.724771 -0.422097
C28   C     C_R   0.032620 0.694479 0.292197 0.046330
C29   C     C_R   0.627514 0.167155 0.639406 0.516231
C30   C     C_R   0.747947 0.136101 0.583009 0.393405
C31   C     C_R   0.797195 0.077790 0.614978 -0.191783
C32   C     C_R   0.852694 0.444671 0.418587 0.638876
C33   C     C_R   0.736981 0.465807 0.450173 -0.277070
C34   C     C_R   0.090779 0.790105 0.291203 0.019560
C35   C     C_R   0.685309 0.578866 0.513339 -0.167762
C36   C     C_R   0.744726 0.669126 0.561406 0.564516
C37   C     C_R   0.861932 0.647386 0.528188 0.576013
C38   C     C_R   0.916494 0.535747 0.452737 -0.519029
C39   C     C_R   0.479701 0.618343 0.609041 -0.227952
C40   C     C_R   0.666790 0.441980 0.012926 0.503382
C41   C     C_R   0.372044 0.601266 0.610464 0.022671
C42   C     C_R   0.355943 0.591107 0.522679 -0.057962
C43   C     C_R   0.454199 0.586051 0.429253 0.417779
C44   C     C_R   0.564505 0.583500 0.423855 -0.012285
C45   C     C_R   0.335496 0.506188 0.939733 0.583076
C46   C     C_R   0.575939 0.601183 0.515919 -0.000424
C47   C     C_R   0.225922 0.457816 0.454924 -0.329135
C48   C     C_R   0.116246 0.417131 0.481373 0.367063
C49   C     C_R   0.020323 0.489132 0.573943 0.306560
C50   C     C_R   0.033209 0.604967 0.633599 0.417711
C51   C     C_R   0.144464 0.644336 0.607610 -0.368363
C52   C     C_R   0.101664 0.797612 0.202883 -0.111055
C53   C     C_R   0.241408 0.568303 0.523062 0.024331
C54   C     C_2   0.476718 0.417848 0.949752 -0.304503
C55   C     C_2   0.530832 0.512847 0.981570 0.545133
C56   C     C_R   0.933402 0.185408 0.783360 -0.110971
C57   C     C_2   0.844255 0.962274 0.086712 0.319757
C58   C     C_2   0.837280 0.048675 0.179094 -0.017289
C59   C     C_R   0.777767 0.575909 0.307769 0.469292
C60   C     C_R   0.904438 0.749848 0.956683 -0.036135
C61   C     C_R   0.918310 0.854379 0.031476 -0.032727
C62   C     C_R   0.201056 0.501004 0.693664 -0.098258
C63   C     C_R   0.065614 0.250034 0.071674 -0.045819
C64   C     C_R   0.968469 0.166698 0.975062 -0.087388
Cl1   Cl    Cl    0.292946 0.019887 0.243081 -0.561193
Cl2   Cl    Cl    0.521150 0.053356 0.865772 -0.550770
Cl3   Cl    Cl    0.918542 0.304807 0.329910 -0.607170
Cl4   Cl    Cl    0.104925 0.271146 0.405871 -0.512372
Cl5   Cl    Cl    0.884510 0.434528 0.618543 -0.576276
Cl6   Cl    Cl    0.460838 0.653220 0.070177 -0.674020
Cl7   Cl    Cl    0.755820 0.976282 0.034548 -0.629332
H1    H     H_    0.033797 0.894956 0.109500 0.131040
H2    H     H_    0.489749 0.789272 0.368275 0.160444
H3    H     H_    0.609608 0.422537 0.203761 0.226007
H4    H     H_    0.523975 0.950369 0.173091 0.222546
H5    H     H_    0.184121 0.078896 0.549813 0.133597
H6    H     H_    0.887667 0.896544 0.425352 0.168591
H7    H     H_    0.763259 0.007856 0.726006 0.223734
H8    H     H_    0.467076 0.162861 0.767256 0.206626
H9    H     H_    0.008522 0.519750 0.420326 0.168540
H10   H     H_    0.755113 0.582101 0.866672 0.207497
H11   H     H_    0.690201 0.395934 0.417120 0.186072
H12   H     H_    0.892052 0.118941 0.807198 0.133837
H13   H     H_    0.493179 0.625525 0.675150 0.181851
H14   H     H_    0.300322 0.398417 0.389701 0.223286
H15   H     H_    0.016708 0.658899 0.346519 0.114075
H16   H     H_    0.156484 0.730165 0.659218 0.173741
H17   H     H_    0.519176 0.332209 0.909299 0.166426
H18   H     H_    0.886588 0.045670 0.218120 0.139575
H19   H     H_    0.148446 0.858770 0.173487 0.180971
H20   H     H_    0.842855 0.736215 0.925547 0.181423
H21   H     H_    0.306484 0.791838 0.493459 0.314201
H22   H     H_    0.630483 0.240479 0.553797 0.378596
H23   H     H_    0.172757 0.457690 0.633036 0.099813
H24   H     H_    0.896160 0.147089 0.472788 0.385053
H25   H     H_    0.615249 0.786738 0.645389 0.325978
H26   H     H_    0.005793 0.712154 0.526155 0.319848
H27   H     H_    0.365799 0.591360 0.357882 0.345271
H28   H     H_    0.960225 0.755160 0.750377 0.341016
H29   H     H_    0.523396 0.381056 0.074810 0.332188
H30   H     H_    0.733972 0.733039 0.418660 0.317283
H31   H     H_    0.386436 0.641735 0.922292 0.334907
H32   H     H_    0.108656 0.264679 0.120537 0.163999
H33   H     H_    0.924215 0.104620 0.932460 0.159946
H34   H     H_    0.331888 0.677688 0.828503 0.115576
H35   H     H_    0.254154 0.370528 0.088651 0.161894
H36   H     H_    0.054387 0.310383 0.622948 0.151648
H37   H     H_    0.611949 0.851582 0.228419 0.161834
N1    N     N_R   0.037320 0.720000 0.995830 -0.046938
N2    N     N_R   0.824900 0.517970 0.936430 -0.081498
N3    N     N_R   0.003190 0.648180 0.211390 -0.029920
N4    N     N_R   0.774330 0.457010 0.995830 -0.073672
N5    N     N_R   0.053760 0.709130 0.151980 -0.063566
N6    N     N_R   0.853840 0.498830 0.211390 -0.079374
N7    N     N_R   0.974250 0.667320 0.936430 -0.052603
N8    N     N_R   0.225670 0.542990 0.004170 -0.114429
N9    N     N_R   0.946240 0.290870 0.848020 -0.051007
N10   N     N_R   0.146160 0.501170 0.788610 -0.057509
N11   N     N_R   0.025750 0.332680 0.063570 -0.060675
N12   N     N_R   0.962680 0.280000 0.004170 -0.053024
N13   N     N_R   0.209230 0.553860 0.848010 -0.061364
N14   N     N_R   0.175100 0.482030 0.063570 -0.077656
N15   N     N_R   0.996810 0.351820 0.788610 -0.056021
N16   N     N_R   0.790770 0.446140 0.151990 -0.076570
Ni1   Ni    Ni4+2 0.130310 0.630310 0.000000 0.223566
Ni2   Ni    Ni4+2 0.869690 0.369690 0.000000 0.288047
Ni3   Ni    Ni4+2 0.985660 0.509480 0.863750 0.240311
Ni4   Ni    Ni4+2 0.014340 0.490520 0.136250 0.236779
O1    O     O_3   0.257706 0.818765 0.473186 -0.767902
O2    O     O_3   0.414885 0.559231 0.881859 -0.721966
O3    O     O_3   0.572991 0.224037 0.613725 -0.715526
O4    O     O_3   0.813152 0.162354 0.497599 -0.691658
O5    O     O_3   0.697039 0.781534 0.629588 -0.707312
O6    O     O_3   0.922828 0.738882 0.564091 -0.693735
O7    O     O_3   0.446716 0.576578 0.340147 -0.779456
O8    O     O_3   0.936912 0.676157 0.719529 -0.692101
O9    O     O_3   0.606671 0.358374 0.041361 -0.744002
O10   O     O_3   0.804652 0.679101 0.370853 -0.808129

loop_
_geom_bond_atom_site_label_1
_geom_bond_atom_site_label_2
_ccdc_geom_bond_type
C25   C31   A    
C15   H4    S    
C6    C45   A    
C27   C29   A    
C9    C64   A    
C56   N9    A    
C52   H19   S    
C35   C36   A    
C3    C6    A    
C36   O5    S    
C16   N2    A    
C39   C41   A    
C52   N5    A    
C26   C27   A    
C29   C30   A    
N8    N14   A    
C18   C24   A    
C47   H14   S    
C36   C37   A    
C39   H13   S    
C27   H8    S    
C42   C53   S    
C5    H36   S    
C30   C31   A    
C10   H2    S    
N12   Ni2   S    
C60   H20   S    
N5    Ni1   S    
C10   C17   A    
C23   C40   A    
N7    Ni3   S    
C4    N16   A    
C15   C17   A    
C18   C19   A    
C41   C42   A    
C1    N1    A    
C12   C59   A    
C19   C20   A    
C32   C38   A    
C4    C12   A    
C33   H11   S    
N4    Ni2   S    
C3    N14   A    
N2    Ni3   S    
C47   C53   A    
N6    N16   A    
N11   Ni4   S    
C28   C34   A    
C45   O2    S    
C3    H35   S    
C49   Cl5   S    
C13   C14   A    
C7    C56   A    
C6    C54   S    
C11   O1    S    
C44   C46   A    
C28   N3    A    
C22   C34   S    
H22   O3    S    
C1    H1    S    
C25   H7    S    
C26   Cl2   S    
C8    C41   S    
C40   N4    A    
H29   O9    S    
C17   H37   S    
C51   H16   S    
C5    C7    A    
C59   O10   S    
C25   C26   A    
H27   O7    S    
C48   Cl4   S    
C13   C24   S    
C60   C61   A    
C51   C53   A    
N10   N13   A    
C43   C44   A    
N13   Ni1   S    
C37   C38   A    
N6    Ni4   S    
N15   Ni3   S    
C47   C48   A    
C14   C15   A    
N11   N12   A    
C40   O9    S    
C50   C51   A    
N3    N5    A    
C57   Cl7   S    
C43   O7    S    
C32   Cl3   S    
C63   H32   S    
C48   C49   A    
C49   C50   A    
C16   C23   A    
C7    C19   S    
N8    Ni1   S    
C39   C46   A    
C28   H15   S    
H24   O4    S    
C22   C24   A    
C42   C43   A    
H26   O6    S    
C56   H12   S    
N16   Ni2   S    
N9    Ni2   S    
C2    N13   A    
N1    Ni1   S    
C64   H33   S    
C54   C55   D    
C18   H5    S    
C9    C63   A    
C4    H3    S    
C2    C8    A    
H31   O2    S    
C1    C61   A    
H30   O10   S    
C57   C61   S    
H25   O5    S    
C23   C55   S    
C5    N15   A    
C2    H34   S    
C34   C52   A    
C64   N12   A    
C32   C33   A    
C62   H23   S    
H21   O1    S    
N9    N15   A    
C12   C44   S    
C50   O8    S    
C54   H17   S    
C11   C13   A    
C45   N8    A    
C57   C58   D    
C29   O3    S    
C38   H9    S    
C59   N6    A    
C30   O4    S    
C16   H10   S    
C33   C35   A    
C14   Cl1   S    
H28   O8    S    
N14   Ni4   S    
C58   H18   S    
N2    N4    A    
C62   N10   A    
C55   Cl6   S    
C10   C11   A    
N1    N7    A    
C20   C21   A    
C63   N11   A    
N10   Ni3   S    
C21   H6    S    
N3    Ni4   S    
C37   O6    S    
C60   N7    A    
C21   C22   A    
C35   C46   S    
C8    C62   A    
C20   C31   S    
