data_mof_unit_23056.cif
_audit_creation_date              2012-12-10T20:36:37-0500
_audit_creation_method            fapswitch 2.2
_symmetry_space_group_name_H-M    P1
_symmetry_Int_Tables_number       1
_space_group_crystal_system       triclinic
_cell_length_a                    10.521173
_cell_length_b                    10.682152
_cell_length_c                    9.907395
_cell_angle_alpha                 90.050178
_cell_angle_beta                  91.32337
_cell_angle_gamma                 90.431241
_cell_volume                      1113.15079031

loop_
_atom_site_label
_atom_site_type_symbol
_atom_type_description
_atom_site_fract_x
_atom_site_fract_y
_atom_site_fract_z
_atom_type_partial_charge
C1    C     C_R   0.503928 0.260215 0.500169 0.869694
C2    C     C_3   0.956262 0.596214 0.423010 -0.185278
C3    C     C_3   0.035271 0.485869 0.369543 -0.177593
C4    C     C_3   0.122704 0.498287 0.494759 -0.032504
C5    C     C_R   0.505724 0.064010 0.622464 0.140986
C6    C     C_R   0.522086 0.128790 0.502261 -0.100979
C7    C     C_R   0.558930 0.065102 0.385891 -0.233947
C8    C     C_R   0.558014 0.935480 0.385773 -0.235945
C9    C     C_R   0.519611 0.871667 0.501790 -0.098879
C10   C     C_R   0.503228 0.936296 0.621914 0.150249
C11   C     C_3   0.394829 0.930659 0.716820 -0.496574
C12   C     C_R   0.257574 0.498623 0.498309 0.867454
C13   C     C_3   0.399814 0.072116 0.719814 -0.500140
C14   C     C_R   0.448599 0.401740 0.070112 0.163687
C15   C     C_R   0.559290 0.591988 0.074256 -0.192315
C16   C     C_R   0.560155 0.592187 0.930620 0.229698
C17   C     C_R   0.444188 0.404521 0.928051 0.135731
C18   C     C_3   0.307032 0.362746 0.926458 -0.002638
C19   C     C_3   0.316469 0.352069 0.079786 -0.540682
C20   C     C_R   0.502885 0.739880 0.500103 0.874501
C21   C     C_R   0.742687 0.501021 0.501389 0.861958
C22   C     C_3   0.043886 0.403785 0.573964 -0.205140
C23   C     C_3   0.953878 0.391234 0.448959 -0.162307
C24   C     C_3   0.877903 0.501362 0.503294 -0.013765
C25   C     C_3   0.965408 0.513863 0.628964 -0.187353
C26   C     C_3   0.044933 0.605865 0.547254 0.272050
H1    H     H_    0.911522 0.302752 0.409080 0.135304
H2    H     H_    0.420599 0.887732 0.815482 0.196157
H3    H     H_    0.313094 0.116679 0.675787 0.194783
H4    H     H_    0.433332 0.109949 0.819017 0.196495
H5    H     H_    0.605297 0.667328 0.130288 0.150586
H6    H     H_    0.292263 0.270858 0.876120 0.114452
H7    H     H_    0.252644 0.413971 0.136546 0.219908
H8    H     H_    0.315900 0.253427 0.115425 0.176078
H9    H     H_    0.083960 0.324917 0.633761 0.138360
H10   H     H_    0.938170 0.524397 0.735350 0.139506
H11   H     H_    0.916654 0.675447 0.363455 0.134047
H12   H     H_    0.066873 0.474073 0.264276 0.142963
H13   H     H_    0.580793 0.114497 0.293724 0.168027
H14   H     H_    0.579851 0.886160 0.293661 0.161544
H15   H     H_    0.306451 0.893278 0.668065 0.208192
N1    N     N_R   0.499140 0.499140 0.142800 -0.108781
N2    N     N_R   0.499140 0.499180 0.857150 -0.116800
O1    O     O_R   0.500020 0.316790 0.614690 -0.620435
O2    O     O_R   0.500000 0.316760 0.385350 -0.619237
O3    O     O_R   0.313960 0.499990 0.614650 -0.603953
O4    O     O_R   0.313940 0.499950 0.385310 -0.625017
O5    O     O_R   0.500000 0.683240 0.614650 -0.599057
O6    O     O_R   0.499980 0.683210 0.385310 -0.628440
O7    O     O_R   0.686060 0.500050 0.614690 -0.609858
O8    O     O_R   0.686040 0.500010 0.385350 -0.619667
Zn1   Zn    Zn3+2 0.500010 0.500020 0.653130 0.958725
Zn2   Zn    Zn3+2 0.499990 0.499980 0.346870 0.937316
N3    N     N_2   0.619120 0.693329 0.863718 -0.257670
H16   H     H_    0.593417 0.779617 0.900381 0.193695
C27   C     C_3   0.755159 0.682775 0.851468 -0.762028
H17   H     H_    0.804727 0.753281 0.916788 0.202842
H18   H     H_    0.779586 0.700659 0.745014 0.255375
H19   H     H_    0.789560 0.588403 0.881428 0.228302
N4    N     N_2   0.213614 0.454601 0.879575 -0.255839
H20   H     H_    0.121787 0.420881 0.885148 0.213966
C28   C     C_3   0.225154 0.585524 0.918433 -0.725273
H21   H     H_    0.135021 0.634441 0.892822 0.209080
H22   H     H_    0.301233 0.632307 0.861424 0.250180
H23   H     H_    0.243901 0.596751 0.028285 0.226800
N5    N     N_2   0.102477 0.721613 0.595178 -0.317650
H24   H     H_    0.180137 0.708607 0.658498 0.231766
C29   C     C_3   0.015801 0.814514 0.644034 -0.848287
H25   H     H_    0.064947 0.906735 0.649411 0.246260
H26   H     H_    0.985443 0.789223 0.746959 0.237020
H27   H     H_    0.931504 0.823284 0.575134 0.250296

loop_
_geom_bond_atom_site_label_1
_geom_bond_atom_site_label_2
_ccdc_geom_bond_type
C4    C26   S    
C23   C24   S    
C17   N2    A    
C15   H5    S    
C20   O6    A    
C23   H1    S    
C4    C12   S    
C4    C22   S    
C9    C10   A    
C9    C20   S    
N5    C29   S    
C14   C17   A    
C27   H19   S    
C14   N1    A    
O4    Zn2   S    
C1    O1    A    
C5    C13   S    
O1    Zn1   S    
C16   N3    S    
C17   C18   S    
O2    Zn2   S    
C7    C8    A    
C2    C26   S    
C20   O5    A    
C24   C25   S    
C22   H9    S    
C11   C13   S    
C2    H11   S    
C1    O2    A    
C28   H21   S    
C11   H2    S    
N4    H20   S    
C12   O4    A    
O6    Zn2   S    
C13   H3    S    
C21   O7    A    
C22   C25   S    
C27   H18   S    
C11   H15   S    
C6    C7    A    
C2    C3    S    
C29   H27   S    
N1    Zn2   S    
C2    C24   S    
C5    C6    A    
N3    C27   S    
N2    Zn1   S    
C16   N2    A    
C21   O8    A    
C18   H6    S    
C10   C11   S    
C25   H10   S    
C5    C10   A    
C15   C16   A    
C26   N5    S    
O3    Zn1   S    
C13   H4    S    
O5    Zn1   S    
N5    H24   S    
C27   H17   S    
C15   N1    A    
N4    C28   S    
C18   C19   S    
C19   H7    S    
C21   C24   S    
C18   N4    S    
O7    Zn1   S    
C29   H26   S    
C7    H13   S    
C22   C23   S    
C29   H25   S    
C28   H22   S    
C8    H14   S    
C28   H23   S    
C25   C26   S    
N3    H16   S    
C3    C23   S    
C14   C19   S    
C19   H8    S    
C3    C4    S    
C1    C6    S    
C3    H12   S    
C8    C9    A    
O8    Zn2   S    
C12   O3    A    
