data_mof_unit_59919.cif
_audit_creation_date              2012-12-11T14:44:25-0500
_audit_creation_method            fapswitch 2.2
_symmetry_space_group_name_H-M    P1
_symmetry_Int_Tables_number       1
_space_group_crystal_system       triclinic
_cell_length_a                    24.866781
_cell_length_b                    16.780141
_cell_length_c                    15.590349
_cell_angle_alpha                 90.268425
_cell_angle_beta                  49.886016
_cell_angle_gamma                 89.939772
_cell_volume                      4974.93750006

loop_
_atom_site_label
_atom_site_type_symbol
_atom_type_description
_atom_site_fract_x
_atom_site_fract_y
_atom_site_fract_z
_atom_type_partial_charge
C1    C     C_R   0.334715 0.115736 0.800863 -0.127364
C2    C     C_3   0.741167 0.774532 0.602063 0.498276
C3    C     C_3   0.314831 0.109688 0.225787 -0.857373
C4    C     C_3   0.200742 0.003574 0.534292 0.296747
C5    C     C_3   0.203227 0.060039 0.607871 -0.847064
C6    C     C_3   0.850344 0.143936 0.357196 0.261013
C7    C     C_3   0.874238 0.057332 0.330036 -0.837747
C8    C     C_3   0.269282 0.423366 0.692154 0.271894
C9    C     C_3   0.220932 0.454283 0.812400 -0.893168
C10   C     C_3   0.788080 0.679888 0.306282 0.254810
C11   C     C_3   0.814821 0.609681 0.225798 -0.857374
C12   C     C_3   0.700741 0.503574 0.534300 0.296759
C13   C     C_3   0.735334 0.257638 0.558979 0.503167
C14   C     C_3   0.703220 0.560038 0.607885 -0.847069
C15   C     C_3   0.350345 0.643937 0.357196 0.261051
C16   C     C_3   0.374240 0.557334 0.330031 -0.837809
C17   C     C_3   0.422639 0.343342 0.217035 0.266582
C18   C     C_3   0.457843 0.369771 0.098253 -0.803886
C19   C     C_3   0.632369 0.765395 0.778453 0.246130
C20   C     C_3   0.595156 0.740687 0.898260 -0.843254
C21   C     C_3   0.712240 0.150570 0.671890 0.275283
C22   C     C_3   0.658786 0.164615 0.798005 -0.893714
C23   C     C_3   0.235483 0.857987 0.270302 0.246395
C24   C     C_3   0.208414 0.831754 0.439699 0.492710
C25   C     C_3   0.205138 0.888306 0.217395 -0.787540
C26   C     C_3   0.922631 0.843297 0.217013 0.266591
C27   C     C_3   0.957847 0.869798 0.098255 -0.803857
C28   C     C_3   0.132367 0.265387 0.778449 0.246138
C29   C     C_3   0.095154 0.240681 0.898257 -0.843258
C30   C     C_3   0.212241 0.650570 0.671887 0.275290
C31   C     C_3   0.158786 0.664612 0.798002 -0.893721
C32   C     C_3   0.735482 0.357988 0.270304 0.246397
C33   C     C_3   0.705137 0.388309 0.217397 -0.787547
C34   C     C_2   0.367203 0.726122 0.942125 0.997909
C35   C     C_3   0.815841 0.831613 0.395335 0.486663
C36   C     C_2   0.661602 0.248136 0.014800 1.012903
C37   C     C_2   0.589897 0.678086 0.151400 0.995814
C38   C     C_2   0.338094 0.229602 0.006534 1.005340
C39   C     C_2   0.867203 0.226122 0.942126 0.997910
C40   C     C_2   0.161602 0.748136 0.014800 1.012908
C41   C     C_2   0.089898 0.178086 0.151400 0.995814
C42   C     C_2   0.838093 0.729605 0.006533 1.005347
C43   C     C_3   0.241166 0.274529 0.602062 0.498257
C44   C     C_3   0.235334 0.757638 0.558978 0.503164
C45   C     C_3   0.708414 0.331754 0.439701 0.492712
C46   C     C_2   0.688517 0.176035 0.031635 -0.112507
C47   C     C_2   0.354882 0.740367 0.861555 -0.066479
C48   C     C_2   0.308636 0.168471 0.977682 -0.104327
C49   C     C_R   0.643299 0.849089 0.254436 -0.065666
C50   C     C_2   0.629430 0.721448 0.179364 -0.097041
C51   C     C_2   0.188517 0.676035 0.031635 -0.112510
C52   C     C_2   0.854882 0.240367 0.861555 -0.066479
C53   C     C_2   0.808635 0.668471 0.977682 -0.104329
C54   C     C_2   0.129430 0.221449 0.179364 -0.097044
C55   C     C_2   0.755383 0.149113 0.957585 -0.221938
C56   C     C_2   0.310651 0.695225 0.859683 -0.149564
C57   C     C_2   0.239993 0.147503 0.048086 -0.209748
C58   C     C_2   0.687305 0.688517 0.155908 -0.134539
C59   C     C_2   0.255382 0.649114 0.957585 -0.221938
C60   C     C_R   0.664330 0.117466 0.201674 -0.147910
C61   C     C_2   0.810651 0.195225 0.859683 -0.149566
C62   C     C_2   0.739993 0.647502 0.048086 -0.209746
C63   C     C_2   0.187305 0.188517 0.155908 -0.134537
C64   C     C_R   0.586574 0.148957 0.593491 -0.147737
C65   C     C_R   0.385610 0.891515 0.407275 -0.169689
C66   C     C_R   0.410673 0.147787 0.407884 -0.063333
C67   C     C_R   0.617504 0.900451 0.591143 -0.160738
C68   C     C_R   0.086574 0.648957 0.593491 -0.147737
C69   C     C_R   0.885610 0.391515 0.407275 -0.169689
C70   C     C_R   0.910672 0.647786 0.407884 -0.063323
C71   C     C_R   0.352075 0.853764 0.757263 -0.068213
C72   C     C_R   0.117503 0.400452 0.591144 -0.160739
C73   C     C_R   0.661525 0.148143 0.406639 -0.032677
C74   C     C_R   0.310573 0.892404 0.593679 -0.096299
C75   C     C_R   0.334912 0.146223 0.594859 -0.138620
C76   C     C_R   0.691733 0.901589 0.405823 -0.161491
C77   C     C_R   0.161525 0.648143 0.406639 -0.032677
C78   C     C_R   0.810573 0.392403 0.593680 -0.096297
C79   C     C_R   0.834911 0.646223 0.594860 -0.138627
C80   C     C_R   0.191733 0.401590 0.405824 -0.161489
C81   C     C_R   0.574973 0.114336 0.201804 -0.105833
C82   C     C_R   0.834715 0.615736 0.800863 -0.127354
C83   C     C_R   0.440656 0.857899 0.760498 -0.090846
C84   C     C_R   0.423917 0.112124 0.800651 -0.097693
C85   C     C_R   0.554633 0.852160 0.252463 -0.112842
C86   C     C_R   0.074973 0.614336 0.201804 -0.105830
C87   C     C_R   0.940656 0.357899 0.760499 -0.090845
C88   C     C_R   0.923917 0.612125 0.800651 -0.097697
C89   C     C_R   0.054633 0.352160 0.252463 -0.112841
C90   C     C_R   0.354892 0.136762 0.862352 0.063377
C91   C     C_R   0.609032 0.803738 0.227702 0.062687
C92   C     C_R   0.643100 0.140290 0.142698 0.067786
C93   C     C_R   0.143299 0.349089 0.254437 -0.065670
C94   C     C_R   0.382855 0.813244 0.793483 0.063878
C95   C     C_R   0.854892 0.636763 0.862352 0.063373
C96   C     C_R   0.109032 0.303738 0.227702 0.062685
C97   C     C_R   0.143100 0.640290 0.142698 0.067788
C98   C     C_R   0.882855 0.313244 0.793483 0.063879
C99   C     C_R   0.636290 0.192993 0.500003 0.157956
C100  C     C_R   0.318626 0.873617 0.500514 0.181000
C101  C     C_R   0.358119 0.190358 0.502330 0.120773
C102  C     C_R   0.686663 0.891186 0.497479 0.195698
C103  C     C_R   0.136290 0.692993 0.500003 0.157956
C104  C     C_R   0.164330 0.617466 0.201674 -0.147911
C105  C     C_R   0.818626 0.373616 0.500515 0.180999
C106  C     C_R   0.858118 0.690357 0.502330 0.120784
C107  C     C_R   0.186663 0.391187 0.497481 0.195697
C108  C     C_3   0.336593 0.342466 0.469802 -0.591213
C109  C     C_3   0.721552 0.763191 0.527662 -0.611617
C110  C     C_3   0.661647 0.285677 0.607139 -0.461484
C111  C     C_3   0.283291 0.804864 0.391168 -0.641442
C112  C     C_3   0.836595 0.842463 0.469795 -0.591164
C113  C     C_3   0.221554 0.263191 0.527657 -0.611628
C114  C     C_3   0.161647 0.785678 0.607137 -0.461483
C115  C     C_R   0.852075 0.353764 0.757263 -0.068215
C116  C     C_3   0.783291 0.304864 0.391168 -0.641443
C117  C     C_3   0.758367 0.862432 0.570943 0.496933
C118  C     C_3   0.298302 0.244052 0.426923 0.475419
C119  C     C_3   0.193459 0.865483 0.545330 0.561060
C120  C     C_3   0.752031 0.225235 0.453094 0.478799
C121  C     C_3   0.258364 0.362431 0.570950 0.496933
C122  C     C_3   0.798298 0.744047 0.426927 0.475364
C123  C     C_3   0.693459 0.365482 0.545331 0.561055
C124  C     C_3   0.252032 0.725235 0.453093 0.478789
C125  C     C_3   0.738904 0.852408 0.495980 -0.102690
C126  C     C_3   0.315841 0.331619 0.395339 0.486678
C127  C     C_3   0.318116 0.253404 0.502177 -0.120329
C128  C     C_3   0.266563 0.837485 0.499670 -0.193937
C129  C     C_3   0.678030 0.252230 0.499954 -0.161055
C130  C     C_3   0.238903 0.352409 0.495983 -0.102701
C131  C     C_3   0.818115 0.753403 0.502177 -0.120335
C132  C     C_3   0.766563 0.337485 0.499671 -0.193942
C133  C     C_3   0.178031 0.752230 0.499953 -0.161054
C134  C     C_3   0.769294 0.923382 0.692129 0.271884
C135  C     C_3   0.720942 0.954278 0.812386 -0.893157
C136  C     C_3   0.288092 0.179898 0.306266 0.254865
H1    H     H_    0.281712 0.115930 0.830340 0.107903
H2    H     H_    0.406357 0.893130 0.321412 0.111274
H3    H     H_    0.684486 0.129338 0.641619 0.118765
H4    H     H_    0.626169 0.218048 0.817761 0.270031
H5    H     H_    0.623684 0.112247 0.839678 0.227110
H6    H     H_    0.686713 0.173643 0.830972 0.251116
H7    H     H_    0.247380 0.793330 0.250104 0.101556
H8    H     H_    0.284995 0.890867 0.232743 0.110730
H9    H     H_    0.193833 0.953187 0.233970 0.251048
H10   H     H_    0.243461 0.877992 0.125293 0.241164
H11   H     H_    0.155774 0.856139 0.252783 0.249234
H12   H     H_    0.930454 0.777767 0.215154 0.142746
H13   H     H_    0.438345 0.163491 0.321564 0.126673
H14   H     H_    0.948709 0.874268 0.244758 0.121597
H15   H     H_    0.951537 0.935177 0.096713 0.245808
H16   H     H_    0.014805 0.855058 0.041799 0.242791
H17   H     H_    0.933769 0.838799 0.067308 0.265916
H18   H     H_    0.107193 0.233930 0.749499 0.103723
H19   H     H_    0.125280 0.330833 0.778440 0.128436
H20   H     H_    0.119015 0.271864 0.929475 0.276382
H21   H     H_    0.038524 0.256792 0.952519 0.214918
H22   H     H_    0.100236 0.175268 0.902035 0.260754
H23   H     H_    0.248057 0.601453 0.654495 0.149225
H24   H     H_    0.596092 0.901558 0.677364 0.105943
H25   H     H_    0.184489 0.629337 0.641614 0.118767
H26   H     H_    0.126164 0.718040 0.817761 0.270025
H27   H     H_    0.123689 0.612240 0.839673 0.227119
H28   H     H_    0.186713 0.673646 0.830970 0.251117
H29   H     H_    0.747378 0.293331 0.250105 0.101556
H30   H     H_    0.784994 0.390868 0.232745 0.110729
H31   H     H_    0.693833 0.453190 0.233973 0.251048
H32   H     H_    0.743460 0.377996 0.125295 0.241165
H33   H     H_    0.655773 0.356144 0.252785 0.249235
H34   H     H_    0.387875 0.773351 0.037460 0.307466
H35   H     H_    0.059619 0.663882 0.680079 0.117192
H36   H     H_    0.677253 0.362287 0.964209 0.321962
H37   H     H_    0.520867 0.682243 0.124361 0.318670
H38   H     H_    0.329533 0.339679 0.067031 0.320888
H39   H     H_    0.887875 0.273351 0.037461 0.307465
H40   H     H_    0.177253 0.862287 0.964208 0.321967
H41   H     H_    0.020868 0.182244 0.124358 0.318668
H42   H     H_    0.829530 0.839685 0.067024 0.320875
H43   H     H_    0.906357 0.393129 0.321412 0.111274
H44   H     H_    0.938343 0.663491 0.321564 0.126657
H45   H     H_    0.096091 0.401559 0.677365 0.105945
H46   H     H_    0.704990 0.162198 0.320454 0.098163
H47   H     H_    0.262229 0.893398 0.679935 0.116807
H48   H     H_    0.293356 0.160496 0.681924 0.170112
H49   H     H_    0.686731 0.832263 0.250244 0.119505
H50   H     H_    0.739135 0.903397 0.318922 0.155382
H51   H     H_    0.204990 0.662198 0.320454 0.098163
H52   H     H_    0.762229 0.393398 0.679935 0.116805
H53   H     H_    0.793354 0.660495 0.681924 0.170115
H54   H     H_    0.239135 0.403397 0.318923 0.155382
H55   H     H_    0.546326 0.112314 0.171378 0.129686
H56   H     H_    0.477019 0.843749 0.774193 0.117399
H57   H     H_    0.452692 0.108407 0.830728 0.136025
H58   H     H_    0.515863 0.836486 0.245111 0.161186
H59   H     H_    0.046326 0.612314 0.171378 0.129680
H60   H     H_    0.717459 0.118249 0.171685 0.134042
H61   H     H_    0.977019 0.343749 0.774193 0.117398
H62   H     H_    0.952692 0.608408 0.830728 0.136021
H63   H     H_    0.015863 0.336485 0.245111 0.161185
H64   H     H_    0.383480 0.373151 0.447950 0.177628
H65   H     H_    0.674537 0.731648 0.551029 0.174777
H66   H     H_    0.611586 0.279725 0.694444 0.187906
H67   H     H_    0.333107 0.812291 0.303898 0.172793
H68   H     H_    0.883483 0.873147 0.447939 0.177632
H69   H     H_    0.174541 0.231647 0.551019 0.174779
H70   H     H_    0.111586 0.779726 0.694443 0.187904
H71   H     H_    0.306267 0.837672 0.767556 0.141521
H72   H     H_    0.833106 0.312290 0.303899 0.172793
H73   H     H_    0.303715 0.706297 0.798787 0.148483
H74   H     H_    0.771462 0.096634 0.976763 0.195105
H75   H     H_    0.706708 0.710759 0.196617 0.130062
H76   H     H_    0.221696 0.104017 0.020480 0.186084
H77   H     H_    0.803715 0.206297 0.798787 0.148484
H78   H     H_    0.271462 0.596634 0.976763 0.195107
H79   H     H_    0.206708 0.210759 0.196618 0.130066
H80   H     H_    0.721697 0.604015 0.020480 0.186084
H81   H     H_    0.816322 0.962268 0.640137 0.105772
H82   H     H_    0.781712 0.615930 0.830340 0.107902
H83   H     H_    0.786823 0.862486 0.693521 0.122564
H84   H     H_    0.672586 0.917590 0.864952 0.261163
H85   H     H_    0.748264 0.951047 0.847165 0.227931
H86   H     H_    0.706205 0.017079 0.815430 0.251454
H87   H     H_    0.299348 0.235798 0.259211 0.135937
H88   H     H_    0.230291 0.173063 0.373206 0.090635
H89   H     H_    0.304297 0.052967 0.270595 0.238736
H90   H     H_    0.287674 0.108193 0.190713 0.209964
H91   H     H_    0.372320 0.115250 0.155950 0.278234
H92   H     H_    0.175904 0.034720 0.504788 0.131717
H93   H     H_    0.186731 0.332263 0.250244 0.119510
H94   H     H_    0.255761 0.988556 0.458602 0.080287
H95   H     H_    0.221628 0.028173 0.647045 0.247251
H96   H     H_    0.240417 0.108270 0.555699 0.250300
H97   H     H_    0.150298 0.085840 0.674710 0.255903
H98   H     H_    0.860437 0.167586 0.412534 0.127948
H99   H     H_    0.881976 0.177947 0.277474 0.108319
H100  H     H_    0.865725 0.032148 0.273635 0.279077
H101  H     H_    0.931041 0.053185 0.287640 0.221725
H102  H     H_    0.843868 0.022028 0.408470 0.263692
H103  H     H_    0.316322 0.462233 0.640154 0.105772
H104  H     H_    0.217459 0.618249 0.171685 0.134042
H105  H     H_    0.286790 0.362464 0.693570 0.122579
H106  H     H_    0.172554 0.417630 0.864967 0.261168
H107  H     H_    0.248240 0.451019 0.847201 0.227933
H108  H     H_    0.206234 0.517098 0.815417 0.251442
H109  H     H_    0.799332 0.735789 0.259233 0.135915
H110  H     H_    0.730279 0.673049 0.373225 0.090660
H111  H     H_    0.804290 0.552958 0.270601 0.238741
H112  H     H_    0.787663 0.608187 0.190726 0.209968
H113  H     H_    0.872310 0.615247 0.155960 0.278227
H114  H     H_    0.675905 0.534719 0.504792 0.131716
H115  H     H_    0.806267 0.337672 0.767556 0.141521
H116  H     H_    0.755761 0.488557 0.458613 0.080292
H117  H     H_    0.721620 0.528173 0.647061 0.247248
H118  H     H_    0.740408 0.608272 0.555719 0.250304
H119  H     H_    0.650290 0.585836 0.674724 0.255900
H120  H     H_    0.360436 0.667585 0.412536 0.127944
H121  H     H_    0.381977 0.677951 0.277476 0.108317
H122  H     H_    0.365732 0.532153 0.273624 0.279073
H123  H     H_    0.431043 0.553187 0.287638 0.221723
H124  H     H_    0.343870 0.522027 0.408462 0.263695
H125  H     H_    0.430494 0.277824 0.215231 0.142710
H126  H     H_    0.559619 0.163882 0.680080 0.117193
H127  H     H_    0.448700 0.374393 0.244758 0.121603
H128  H     H_    0.451488 0.435135 0.096661 0.245823
H129  H     H_    0.514812 0.355086 0.041815 0.242786
H130  H     H_    0.433792 0.338678 0.067324 0.265961
H131  H     H_    0.607194 0.733939 0.749503 0.103721
H132  H     H_    0.625282 0.830841 0.778445 0.128444
H133  H     H_    0.619019 0.771866 0.929478 0.276377
H134  H     H_    0.538526 0.756799 0.952523 0.214920
H135  H     H_    0.600237 0.675274 0.902036 0.260753
H136  H     H_    0.748054 0.101452 0.654499 0.149225
N1    N     N_R   0.389620 0.081040 0.705440 -0.044254
N2    N     N_R   0.417680 0.920160 0.443370 -0.047912
N3    N     N_R   0.417680 0.079840 0.443370 -0.051685
N4    N     N_R   0.582320 0.920160 0.556630 -0.049797
N5    N     N_R   0.082320 0.579840 0.556630 -0.046001
N6    N     N_R   0.917680 0.420160 0.443370 -0.047912
N7    N     N_R   0.917680 0.579840 0.443370 -0.051685
N8    N     N_R   0.082320 0.420160 0.556630 -0.049797
N9    N     N_R   0.627920 0.078930 0.443400 -0.046136
N10   N     N_R   0.372080 0.921070 0.556600 -0.056625
N11   N     N_R   0.372080 0.078930 0.556600 -0.055031
N12   N     N_R   0.610380 0.918960 0.294560 -0.050093
N13   N     N_R   0.627920 0.921070 0.443400 -0.055968
N14   N     N_R   0.127920 0.578930 0.443400 -0.046136
N15   N     N_R   0.872080 0.421070 0.556600 -0.056625
N16   N     N_R   0.872080 0.578930 0.556600 -0.055031
N17   N     N_R   0.127920 0.421070 0.443400 -0.055969
N18   N     N_R   0.555090 0.077730 0.294590 -0.050192
N19   N     N_R   0.444910 0.922270 0.705410 -0.049655
N20   N     N_R   0.444910 0.077730 0.705410 -0.048071
N21   N     N_R   0.555090 0.922270 0.294590 -0.051759
N22   N     N_R   0.055090 0.577730 0.294590 -0.050192
N23   N     N_R   0.610380 0.081040 0.294560 -0.046279
N24   N     N_R   0.944910 0.422270 0.705410 -0.049655
N25   N     N_R   0.944910 0.577730 0.705410 -0.048070
N26   N     N_R   0.055090 0.422270 0.294590 -0.051759
N27   N     N_R   0.389620 0.918960 0.705440 -0.054287
N28   N     N_R   0.889620 0.581040 0.705440 -0.044255
N29   N     N_R   0.110380 0.418960 0.294560 -0.050093
N30   N     N_R   0.110380 0.581040 0.294560 -0.046279
N31   N     N_R   0.889620 0.418960 0.705440 -0.054287
N32   N     N_R   0.582320 0.079840 0.556630 -0.046001
Ni1   Ni    Ni4+2 0.382970 0.000000 0.629840 0.211156
Ni2   Ni    Ni4+2 0.617030 1.000000 0.370160 0.231618
Ni3   Ni    Ni4+2 0.882970 0.500000 0.629840 0.211155
Ni4   Ni    Ni4+2 0.117030 0.500000 0.370160 0.231618
Ni5   Ni    Ni4+2 0.514540 0.000000 0.629840 0.217790
Ni6   Ni    Ni4+2 0.485460 1.000000 0.370160 0.213085
Ni7   Ni    Ni4+2 0.014540 0.500000 0.629840 0.217790
Ni8   Ni    Ni4+2 0.985460 0.500000 0.370160 0.213084
O1    O     O_3   0.733578 0.925119 0.649179 -0.651107
O2    O     O_3   0.704033 0.744351 0.711194 -0.647164
O3    O     O_3   0.753093 0.219907 0.618555 -0.649229
O4    O     O_3   0.186608 0.871732 0.387055 -0.623820
O5    O     O_3   0.850649 0.863633 0.287759 -0.661058
O6    O     O_3   0.204031 0.244343 0.711191 -0.647171
O7    O     O_3   0.253092 0.719909 0.618556 -0.649230
O8    O     O_3   0.686608 0.371733 0.387057 -0.623819
O9    O     O_2   0.366562 0.658399 0.971397 -0.660690
O10   O     O_R   0.380384 0.790450 0.983519 -0.833099
O11   O     O_2   0.601969 0.248435 0.046767 -0.683950
O12   O     O_3   0.322173 0.179418 0.351552 -0.649707
O13   O     O_R   0.702195 0.317033 0.969133 -0.817881
O14   O     O_2   0.592494 0.605274 0.145112 -0.657069
O15   O     O_R   0.547388 0.719211 0.137120 -0.851752
O16   O     O_2   0.393522 0.216722 0.986830 -0.678280
O17   O     O_R   0.304250 0.303154 0.051369 -0.815888
O18   O     O_2   0.866562 0.158400 0.971398 -0.660689
O19   O     O_R   0.880384 0.290450 0.983520 -0.833098
O20   O     O_2   0.101969 0.748435 0.046767 -0.683961
O21   O     O_R   0.202195 0.817032 0.969132 -0.817880
O22   O     O_2   0.092493 0.105274 0.145113 -0.657064
O23   O     O_3   0.158849 0.937819 0.599776 -0.614916
O24   O     O_R   0.047390 0.219212 0.137117 -0.851750
O25   O     O_2   0.893519 0.716727 0.986835 -0.678262
O26   O     O_R   0.804249 0.803158 0.051362 -0.815881
O27   O     O_3   0.778447 0.147824 0.409442 -0.633014
O28   O     O_3   0.233573 0.425115 0.649191 -0.651102
O29   O     O_3   0.822163 0.679409 0.351565 -0.649721
O30   O     O_3   0.658848 0.437818 0.599779 -0.614918
O31   O     O_3   0.278448 0.647825 0.409441 -0.633015
O32   O     O_3   0.350648 0.363635 0.287762 -0.661062

loop_
_geom_bond_atom_site_label_1
_geom_bond_atom_site_label_2
_ccdc_geom_bond_type
C51   C97   S    
N24   N31   A    
C32   H30   S    
C53   C95   S    
C19   C20   S    
N2    N10   A    
C122  O29   S    
C102  C125  S    
C120  O27   S    
N7    Ni8   S    
C80   C107  A    
C11   H113  S    
C61   H77   S    
C124  C133  S    
C52   C61   D    
C82   N28   A    
C39   O18   D    
C54   C63   D    
C134  H83   S    
N30   Ni4   S    
H34   O10   S    
N26   Ni8   S    
C8    O28   S    
C7    H101  S    
C46   C55   D    
C27   H15   S    
C2    O2    S    
C13   O3    S    
H37   O15   S    
C81   N18   A    
C15   H121  S    
C119  C128  S    
C71   H71   S    
C88   C95   A    
C44   C114  S    
C21   C22   S    
C23   H7    S    
C66   N3    A    
C49   C91   A    
C2    C117  S    
N4    N13   A    
C119  O23   S    
N6    N15   A    
C99   C129  S    
C83   H56   S    
C66   H13   S    
N10   Ni1   S    
C111  H67   S    
C18   H130  S    
C69   C105  A    
C74   C100  A    
C43   O6    S    
C110  C123  S    
C17   O32   S    
C16   H122  S    
C42   O26   S    
C41   O24   S    
C2    C131  S    
C36   O11   D    
C25   H11   S    
C26   H12   S    
C29   H22   S    
N21   Ni6   S    
C77   C103  A    
C33   H32   S    
C21   H3    S    
C84   N20   A    
C104  H104  S    
C7    H100  S    
C111  C124  S    
C35   C122  S    
C4    C5    S    
C86   N22   A    
C6    C7    S    
C134  H81   S    
C49   N12   A    
N8    N17   A    
C56   C59   S    
C110  H66   S    
C89   C96   A    
C56   H73   S    
C37   O14   D    
C37   C50   S    
C30   C31   S    
C82   H82   S    
C34   O9    D    
C52   C98   S    
C13   C132  S    
C112  C131  S    
C71   N27   A    
N23   Ni2   S    
C79   H53   S    
C75   C101  A    
C108  C126  S    
C20   H133  S    
C21   H136  S    
C28   O6    S    
C2    C109  S    
C108  H64   S    
C27   H16   S    
C123  C132  S    
H41   O24   S    
C121  C130  S    
C24   O4    S    
C48   C57   D    
C117  O1    S    
C58   H75   S    
C45   C123  S    
N8    Ni7   S    
C42   C53   S    
C16   H124  S    
C68   H35   S    
C115  H115  S    
C36   O13   S    
C110  C129  S    
C3    C136  S    
C67   N4    A    
C35   C125  S    
C86   C97   A    
C81   H55   S    
C81   C92   A    
N12   Ni2   S    
C64   C99   A    
C116  C132  S    
C36   C46   S    
N3    N11   A    
C38   C48   S    
C114  C119  S    
C6    H98   S    
C48   C90   S    
C66   C101  A    
C84   C90   A    
C75   H48   S    
C57   C63   S    
C60   C92   A    
C76   C102  A    
C30   H23   S    
C135  H85   S    
C113  C130  S    
C120  C129  S    
C121  O28   S    
N5    Ni7   S    
N27   Ni1   S    
N6    Ni8   S    
C116  C120  S    
C79   C106  A    
C72   N8    A    
C113  H69   S    
C10   O29   S    
C14   H118  S    
N24   Ni7   S    
C85   N21   A    
C22   H6    S    
C5    H95   S    
C17   C18   S    
C3    H90   S    
C74   N10   A    
C116  H72   S    
C10   H110  S    
N28   Ni3   S    
C118  C127  S    
C9    H107  S    
C122  C131  S    
C13   C120  S    
C1    H1    S    
C19   H131  S    
C73   N9    A    
C31   H28   S    
C82   C95   A    
C100  C128  S    
H40   O21   S    
C134  C135  S    
C40   C51   S    
C87   N24   A    
H36   O13   S    
C45   C116  S    
C98   C115  A    
C8    H105  S    
C135  H84   S    
C55   C61   S    
C101  C127  S    
C19   O2    S    
C23   O4    S    
C10   C11   S    
N2    Ni6   S    
C50   C91   S    
C49   H49   S    
C4    O23   S    
C111  C128  S    
C117  C125  S    
C35   C112  S    
C47   C56   D    
C58   C62   S    
C45   C129  S    
C1    C90   A    
N19   Ni5   S    
C108  C121  S    
C33   H33   S    
H39   O19   S    
C33   H31   S    
C26   C27   S    
C11   H112  S    
C28   C29   S    
C72   H45   S    
C112  C117  S    
C64   H126  S    
C85   H58   S    
C60   N23   A    
C46   C92   S    
C126  C130  S    
C136  H88   S    
C22   H4    S    
C12   H114  S    
C15   O31   S    
C88   H62   S    
N20   Ni5   S    
C28   H19   S    
C68   C103  A    
C25   H10   S    
C43   C121  S    
N13   Ni2   S    
C87   C98   A    
C31   H26   S    
C32   H29   S    
N32   Ni5   S    
C62   H80   S    
C107  C130  S    
C89   N26   A    
C105  C132  S    
C106  C131  S    
C89   H63   S    
C50   C58   D    
C26   H14   S    
C70   C106  A    
C3    H91   S    
C29   H21   S    
C68   N5    A    
C83   C94   A    
C1    N1    A    
C44   C124  S    
C70   N7    A    
N26   N29   A    
C7    H102  S    
C34   O10   S    
C5    H96   S    
C10   H109  S    
N9    N32   A    
C29   H20   S    
C65   H2    S    
N18   Ni6   S    
C78   H52   S    
C23   H8    S    
C87   H61   S    
C43   C127  S    
C20   H134  S    
C123  O30   S    
N14   Ni4   S    
C24   C119  S    
C83   N19   A    
C65   C100  A    
N15   Ni3   S    
C18   H129  S    
C20   H135  S    
C12   H116  S    
C32   C33   S    
C109  H65   S    
C30   O7    S    
C69   H43   S    
C55   H74   S    
C73   H46   S    
C70   H44   S    
C42   O25   D    
C47   C94   S    
C4    H92   S    
C17   H125  S    
C80   N17   A    
N22   N30   A    
C97   C104  A    
N22   Ni8   S    
H42   O26   S    
C115  N31   A    
C34   C47   S    
C30   H25   S    
C63   H79   S    
C38   O17   S    
C40   O20   D    
C24   C133  S    
C27   H17   S    
C6    H99   S    
C64   N32   A    
C77   N14   A    
C85   C91   A    
C59   H78   S    
C35   O5    S    
C71   C94   A    
N17   Ni4   S    
C136  H87   S    
C78   C105  A    
C93   N29   A    
C37   O15   S    
C109  C122  S    
C69   N6    A    
C15   C16   S    
C75   N11   A    
C118  O12   S    
N9    Ni2   S    
N25   Ni7   S    
C6    O27   S    
C14   H119  S    
C8    C9    S    
C67   H24   S    
N1    N20   A    
N19   N27   A    
C3    H89   S    
C45   O8    S    
C54   C96   S    
C12   O30   S    
C39   C52   S    
C57   H76   S    
C44   O7    S    
C5    H97   S    
C28   H18   S    
C24   C111  S    
C9    H106  S    
C15   H120  S    
H38   O17   S    
C31   H27   S    
N18   N23   A    
N1    Ni1   S    
C16   H123  S    
C40   O21   S    
N31   Ni3   S    
C74   H47   S    
N29   Ni4   S    
C114  H70   S    
C4    H94   S    
C17   H127  S    
N16   Ni3   S    
C18   H128  S    
C13   C110  S    
C86   H59   S    
C53   C62   D    
C134  O1    S    
C72   C107  A    
C84   H57   S    
N3    Ni6   S    
C109  C125  S    
C26   O5    S    
C12   C14   S    
C93   C96   A    
C77   H51   S    
N25   N28   A    
C76   N13   A    
C51   C59   D    
C78   N15   A    
C76   H50   S    
C60   H60   S    
C8    H103  S    
C93   H93   S    
C79   N16   A    
C73   C99   A    
C135  H86   S    
C44   C128  S    
C104  N30   A    
C65   N2    A    
C80   H54   S    
N4    Ni5   S    
C124  O31   S    
C21   O3    S    
C39   O19   S    
N5    N14   A    
C11   H111  S    
N7    N16   A    
C103  C133  S    
C43   C113  S    
C14   H117  S    
C126  O32   S    
N12   N21   A    
C22   H5    S    
C114  C133  S    
C136  O12   S    
C23   C25   S    
C108  C127  S    
C38   O16   D    
C41   C54   S    
C113  C118  S    
C32   O8    S    
C41   O22   D    
C112  H68   S    
C25   H9    S    
C88   N25   A    
C118  C126  S    
C9    H108  S    
N11   Ni1   S    
C67   C102  A    
C19   H132  S    
