data_mof_unit_14049.cif
_audit_creation_date              2012-12-10T16:52:07-0500
_audit_creation_method            fapswitch 2.2
_symmetry_space_group_name_H-M    P1
_symmetry_Int_Tables_number       1
_space_group_crystal_system       triclinic
_cell_length_a                    7.770508
_cell_length_b                    8.72954
_cell_length_c                    14.885185
_cell_angle_alpha                 91.119965
_cell_angle_beta                  85.773748
_cell_angle_gamma                 94.302586
_cell_volume                      1004.02297218

loop_
_atom_site_label
_atom_site_type_symbol
_atom_type_description
_atom_site_fract_x
_atom_site_fract_y
_atom_site_fract_z
_atom_type_partial_charge
C1    C     C_R   0.545707 0.793993 0.497050 0.914620
C2    C     C_R   0.572942 0.624323 0.810790 -0.244646
C3    C     C_R   0.493718 0.506341 0.232493 -0.137972
C4    C     C_R   0.506282 0.493660 0.767507 -0.137965
C5    C     C_R   0.558231 0.638109 0.186233 0.336488
C6    C     C_R   0.441770 0.361892 0.813767 0.336490
C7    C     C_R   0.562104 0.635930 0.092306 0.036197
C8    C     C_R   0.437896 0.364072 0.907694 0.036197
C9    C     C_R   0.496166 0.501952 0.047061 0.027896
C10   C     C_R   0.503834 0.498050 0.952939 0.027894
C11   C     C_R   0.423198 0.371838 0.096107 0.061291
C12   C     C_R   0.454293 0.206007 0.502956 0.914622
C13   C     C_R   0.576801 0.628164 0.903893 0.061291
C14   C     C_R   0.633839 0.763235 0.042977 -0.136501
C15   C     C_R   0.366161 0.236767 0.957023 -0.136499
C16   C     C_2   0.734017 0.895855 0.901967 0.932072
C17   C     C_2   0.265981 0.104147 0.098033 0.932071
C18   C     C_2   0.753234 0.016825 0.478643 0.972677
C19   C     C_2   0.246770 0.983176 0.521384 0.972679
C20   C     C_R   0.645034 0.760329 0.949281 -0.043387
C21   C     C_R   0.354965 0.239673 0.050719 -0.043387
C22   C     C_2   0.569944 0.956165 0.494054 -0.251257
C23   C     C_2   0.430059 0.043836 0.505968 -0.251224
C24   C     C_R   0.501892 0.498547 0.672572 0.959372
C25   C     C_R   0.498108 0.501454 0.327428 0.959387
C26   C     C_R   0.427058 0.375679 0.189210 -0.244647
Cl1   Cl    Cl    0.633484 0.803291 0.247470 -0.571471
Cl2   Cl    Cl    0.366518 0.196710 0.752530 -0.571476
H1    H     H_    0.383897 0.276222 0.229396 0.192788
H2    H     H_    0.047567 0.860249 0.469274 0.353153
H3    H     H_    0.616102 0.723780 0.770604 0.192787
H4    H     H_    0.686875 0.865059 0.076790 0.221590
H5    H     H_    0.313125 0.134943 0.923210 0.221591
H6    H     H_    0.013940 0.384477 0.432139 0.209342
H7    H     H_    0.986060 0.615522 0.567862 0.209334
H8    H     H_    0.908808 0.976679 0.803978 0.389329
H9    H     H_    0.091190 0.023324 0.196022 0.389327
H10   H     H_    0.952438 0.139751 0.530753 0.353153
N1    N     N_2   0.950330 0.457950 0.475660 -0.164686
N2    N     N_2   0.049670 0.542050 0.524340 -0.164691
O1    O     O_R   0.389250 0.738570 0.505970 -0.601837
O2    O     O_R   0.855863 0.875614 0.829563 -0.772093
O3    O     O_2   0.294078 0.974463 0.071111 -0.596192
O4    O     O_R   0.144135 0.124389 0.170436 -0.772096
O5    O     O_2   0.823093 0.019166 0.402305 -0.551407
O6    O     O_R   0.840155 0.079978 0.551125 -0.743980
O7    O     O_2   0.176928 0.980807 0.597724 -0.551417
O8    O     O_R   0.159835 0.920045 0.448902 -0.743981
O9    O     O_R   0.610750 0.261430 0.494030 -0.601835
O10   O     O_R   0.678390 0.711620 0.490370 -0.628894
O11   O     O_R   0.321610 0.288380 0.509630 -0.628903
O12   O     O_R   0.355420 0.513510 0.639950 -0.587283
O13   O     O_R   0.644580 0.486490 0.360050 -0.587279
O14   O     O_R   0.644560 0.486560 0.624350 -0.612607
O15   O     O_R   0.355440 0.513440 0.375650 -0.612605
O16   O     O_2   0.705921 0.025539 0.928889 -0.596192
Zn1   Zn    Zn3+2 0.306940 0.517990 0.510420 1.037385
Zn2   Zn    Zn3+2 0.693060 0.482010 0.489580 1.037391

loop_
_geom_bond_atom_site_label_1
_geom_bond_atom_site_label_2
_ccdc_geom_bond_type
C24   O12   A    
C19   C23   S    
O13   Zn2   S    
C16   O16   D    
O11   Zn1   S    
C16   O2    S    
C3    C26   A    
C1    O10   A    
H8    O2    S    
C11   C21   A    
C11   C26   A    
C15   C21   A    
C16   C20   S    
H9    O4    S    
C17   O3    D    
H7    N2    S    
C17   O4    S    
O1    Zn1   S    
C1    C22   S    
C18   C22   S    
C9    C11   A    
C12   C23   S    
C2    C4    A    
C18   O6    S    
H2    O8    S    
C25   O13   A    
C12   O9    A    
C8    C15   A    
C5    C7    A    
O15   Zn1   S    
O14   Zn2   S    
C4    C24   S    
C19   O7    D    
H10   O6    S    
C8    C10   A    
O12   Zn1   S    
C24   O14   A    
H6    N1    S    
O10   Zn2   S    
C18   O5    D    
C14   C20   A    
C3    C25   S    
C12   O11   A    
C26   H1    S    
C4    C6    A    
C9    C10   A    
C1    O1    A    
N1    N2    D    
C7    C9    A    
C2    C13   A    
C22   C23   D    
C6    C8    A    
N2    Zn1   S    
C19   O8    S    
C13   C20   A    
C5    Cl1   S    
N1    Zn2   S    
C15   H5    S    
C7    C14   A    
C6    Cl2   S    
O9    Zn2   S    
C25   O15   A    
C14   H4    S    
C2    H3    S    
C3    C5    A    
C10   C13   A    
C17   C21   S    
