data_mof_unit_31604.cif
_audit_creation_date              2012-12-11T14:22:55-0500
_audit_creation_method            fapswitch 2.2
_symmetry_space_group_name_H-M    P1
_symmetry_Int_Tables_number       1
_space_group_crystal_system       triclinic
_cell_length_a                    11.035705
_cell_length_b                    11.022685
_cell_length_c                    18.721705
_cell_angle_alpha                 90.235767
_cell_angle_beta                  89.715224
_cell_angle_gamma                 59.49096
_cell_volume                      1961.98028689

loop_
_atom_site_label
_atom_site_type_symbol
_atom_type_description
_atom_site_fract_x
_atom_site_fract_y
_atom_site_fract_z
_atom_type_partial_charge
C1    C     C_R   0.239921 0.644483 0.610883 0.541801
C2    C     C_3   0.664147 0.558546 0.800682 -0.251558
C3    C     C_3   0.699165 0.675676 0.811839 0.046329
C4    C     C_3   0.669152 0.649125 0.675974 0.055810
C5    C     C_3   0.818884 0.620192 0.689940 -0.246972
C6    C     C_3   0.643453 0.544745 0.720709 -0.213406
C7    C     C_R   0.688686 0.162714 0.824909 -0.012974
C8    C     C_R   0.804906 0.144351 0.782968 0.018562
C9    C     C_R   0.795690 0.142751 0.707182 0.014180
C10   C     C_R   0.552765 0.200325 0.719007 -0.158740
C11   C     C_R   0.562327 0.199285 0.791459 -0.164510
C12   C     C_R   0.653757 0.622957 0.600592 0.550635
C13   C     C_R   0.929165 0.128132 0.813357 -0.090536
C14   C     C_R   0.044290 0.099467 0.770466 -0.136269
C15   C     C_R   0.038236 0.087890 0.696860 -0.131189
C16   C     C_R   0.916138 0.107212 0.665355 -0.087411
C17   C     C_R   0.665956 0.176510 0.675643 -0.010011
C18   C     C_R   0.196623 0.655226 0.838029 -0.007464
C19   C     C_R   0.200074 0.542273 0.799911 0.023906
C20   C     C_R   0.191531 0.547851 0.724275 0.020044
C21   C     C_R   0.228830 0.747351 0.728225 -0.151445
C22   C     C_R   0.223303 0.749202 0.801739 -0.155444
C23   C     C_R   0.628999 0.227194 0.602450 0.529168
C24   C     C_R   0.210047 0.424992 0.835497 -0.098336
C25   C     C_R   0.197945 0.322458 0.798278 -0.150553
C26   C     C_R   0.173614 0.335734 0.725241 -0.161107
C27   C     C_R   0.168741 0.447835 0.688516 -0.113951
C28   C     C_R   0.206999 0.652598 0.687881 -0.003906
C29   C     C_R   0.709163 0.692637 0.181437 -0.006880
C30   C     C_R   0.794350 0.557498 0.212692 0.052702
C31   C     C_R   0.737267 0.519151 0.268443 0.027926
C32   C     C_R   0.558630 0.763337 0.285859 -0.132489
C33   C     C_R   0.591386 0.794527 0.218975 -0.155712
C34   C     C_R   0.276235 0.626343 0.391617 0.548899
C35   C     C_R   0.926057 0.452357 0.184868 -0.084853
C36   C     C_R   0.967932 0.312033 0.191681 -0.134868
C37   C     C_R   0.898635 0.273906 0.239387 -0.120356
C38   C     C_R   0.786169 0.375771 0.279113 -0.088971
C39   C     C_R   0.632722 0.625035 0.311369 -0.005325
C40   C     C_R   0.686614 0.071965 0.190584 -0.008820
C41   C     C_R   0.560792 0.113550 0.229505 0.019135
C42   C     C_R   0.570718 0.094842 0.303886 0.048888
C43   C     C_R   0.801010 0.062554 0.304009 -0.174131
C44   C     C_R   0.809993 0.031787 0.230327 -0.160592
C45   C     C_R   0.617811 0.592244 0.385273 0.535777
C46   C     C_R   0.424914 0.178081 0.200064 -0.116154
C47   C     C_R   0.310817 0.204230 0.242965 -0.162586
C48   C     C_R   0.329382 0.158236 0.313166 -0.126017
C49   C     C_R   0.462345 0.091161 0.341502 -0.078845
C50   C     C_R   0.673202 0.111610 0.339398 -0.001947
C51   C     C_R   0.203810 0.641552 0.167839 -0.004776
C52   C     C_R   0.254566 0.723119 0.198361 0.033681
C53   C     C_R   0.236981 0.746256 0.272413 0.023005
C54   C     C_R   0.225524 0.532813 0.282263 -0.143398
C55   C     C_R   0.202226 0.537672 0.209005 -0.155532
C56   C     C_R   0.625236 0.213082 0.400877 0.520018
C57   C     C_R   0.289269 0.806526 0.155882 -0.060302
C58   C     C_R   0.262142 0.935758 0.181899 -0.109615
C59   C     C_R   0.209916 0.975268 0.250953 -0.160680
C60   C     C_R   0.203841 0.880609 0.297222 -0.118689
C61   C     C_R   0.237163 0.640554 0.315734 -0.007196
C62   C     C_R   0.702225 0.103636 0.896617 0.547480
C63   C     C_R   0.724009 0.688502 0.887966 0.556793
C64   C     C_R   0.122543 0.702676 0.907096 0.535195
C65   C     C_R   0.699230 0.047201 0.112077 0.543406
C66   C     C_R   0.732523 0.715401 0.106406 0.544295
C67   C     C_3   0.576980 0.816306 0.781238 -0.229686
C68   C     C_R   0.108206 0.700907 0.106646 0.523639
C69   C     C_3   0.562698 0.801902 0.700410 -0.242431
C70   C     C_3   0.835559 0.638915 0.769733 -0.220621
Cr1   Cr    Cr6+3 0.392940 0.397950 0.502230 0.996719
Cr2   Cr    Cr6+3 0.398400 0.708500 0.501260 0.988478
Cr3   Cr    Cr6+3 0.708640 0.393530 0.496460 0.993075
Cr4   Cr    Cr6+3 0.937880 0.938320 0.007620 0.998583
Cr5   Cr    Cr6+3 0.625560 0.937220 0.994510 0.988010
Cr6   Cr    Cr6+3 0.938080 0.625010 0.001190 0.982418
H1    H     H_    0.597610 0.903968 0.790739 0.149107
H2    H     H_    0.717494 0.434224 0.703660 0.153015
H3    H     H_    0.924738 0.539533 0.790115 0.169590
H4    H     H_    0.896993 0.510570 0.673554 0.146422
H5    H     H_    0.452420 0.225276 0.697190 0.167742
H6    H     H_    0.938273 0.142198 0.869691 0.142589
H7    H     H_    0.471791 0.215631 0.821585 0.153986
H8    H     H_    0.140418 0.081736 0.794630 0.090436
H9    H     H_    0.129343 0.061867 0.663983 0.100192
H10   H     H_    0.918725 0.090601 0.608310 0.133570
H11   H     H_    0.251944 0.821001 0.702958 0.137181
H12   H     H_    0.476098 0.844442 0.808569 0.114324
H13   H     H_    0.233213 0.408355 0.891891 0.129967
H14   H     H_    0.231416 0.830548 0.830102 0.133684
H15   H     H_    0.207724 0.233067 0.826737 0.104867
H16   H     H_    0.160032 0.258431 0.696519 0.116166
H17   H     H_    0.142379 0.456120 0.632687 0.139600
H18   H     H_    0.474070 0.845747 0.316893 0.156329
H19   H     H_    0.989880 0.476072 0.151111 0.149268
H20   H     H_    0.525494 0.897181 0.196457 0.150072
H21   H     H_    0.054795 0.232896 0.160235 0.100543
H22   H     H_    0.937291 0.165037 0.246676 0.120530
H23   H     H_    0.453169 0.829609 0.688803 0.128101
H24   H     H_    0.731999 0.343769 0.314383 0.150299
H25   H     H_    0.890140 0.054018 0.332375 0.116704
H26   H     H_    0.401043 0.220237 0.146912 0.154233
H27   H     H_    0.910993 0.987437 0.203590 0.160761
H28   H     H_    0.207592 0.261772 0.222024 0.103653
H29   H     H_    0.240504 0.179137 0.346653 0.107101
H30   H     H_    0.475531 0.057166 0.396616 0.130170
H31   H     H_    0.226149 0.450141 0.313301 0.163494
H32   H     H_    0.317349 0.781264 0.100002 0.127297
H33   H     H_    0.178413 0.464672 0.184489 0.108851
H34   H     H_    0.582827 0.877628 0.671025 0.118578
H35   H     H_    0.272437 0.008274 0.147169 0.107919
H36   H     H_    0.168033 0.081024 0.268592 0.117433
H37   H     H_    0.158069 0.922116 0.348910 0.148173
H38   H     H_    0.861883 0.723182 0.777386 0.128377
H39   H     H_    0.840072 0.692687 0.658168 0.113350
H40   H     H_    0.750908 0.456530 0.820992 0.134829
H41   H     H_    0.566699 0.583775 0.830734 0.118180
O1    O     O_R   0.507340 0.255690 0.581430 -0.527566
O2    O     O_R   0.524510 0.695820 0.424050 -0.516162
O3    O     O_R   0.736370 0.504260 0.414810 -0.504622
O4    O     O_R   0.691220 0.277270 0.422180 -0.533300
O5    O     O_3   0.499990 0.499990 0.499980 -0.270970
O6    O     O_R   0.089570 0.825450 0.930590 -0.523426
O7    O     O_R   0.818700 0.054260 0.929860 -0.501434
O8    O     O_R   0.606310 0.077010 0.915520 -0.529409
O9    O     O_R   0.646730 0.806540 0.917560 -0.504783
O10   O     O_R   0.837290 0.593240 0.915240 -0.519318
O11   O     O_R   0.065320 0.635310 0.931580 -0.512072
O12   O     O_R   0.280360 0.527380 0.578910 -0.503586
O13   O     O_R   0.068470 0.828620 0.091850 -0.531899
O14   O     O_R   0.799150 0.057200 0.079350 -0.487561
O15   O     O_R   0.585220 0.080180 0.076770 -0.540711
O16   O     O_R   0.627170 0.809480 0.067050 -0.509617
O17   O     O_R   0.816200 0.596410 0.076500 -0.518205
O18   O     O_R   0.045770 0.638240 0.081070 -0.540972
O19   O     O_3   0.833840 0.833520 0.001110 -0.276295
O20   O     O_R   0.260600 0.739610 0.584580 -0.526347
O21   O     O_R   0.532370 0.695050 0.573830 -0.506812
O22   O     O_R   0.744850 0.503430 0.576380 -0.522872
O23   O     O_R   0.699080 0.276500 0.571950 -0.512422
O24   O     O_R   0.498860 0.256520 0.419860 -0.525088
O25   O     O_R   0.272490 0.528150 0.429140 -0.494660
O26   O     O_R   0.252110 0.740440 0.423010 -0.538027
H42   H     H_    0.535062 0.565174 0.711694 0.130147

loop_
_geom_bond_atom_site_label_1
_geom_bond_atom_site_label_2
_ccdc_geom_bond_type
Cr2   O26   S    
Cr4   O7    S    
C21   H11   S    
C8    C13   A    
C41   C42   A    
C54   C55   A    
Cr1   O5    S    
C32   H18   S    
C35   C36   A    
C67   H1    S    
C14   H8    S    
C24   H13   S    
C23   O1    A    
C62   O7    A    
Cr6   O19   S    
C7    C8    A    
C70   H38   S    
C7    C11   A    
C46   H26   S    
C26   C27   A    
C29   C30   A    
C54   H31   S    
C36   C37   A    
C9    C16   A    
C1    O12   A    
C30   C31   A    
C6    H2    S    
C10   C17   A    
C26   H16   S    
C15   C16   A    
C29   C33   A    
Cr6   O18   S    
C18   C19   A    
C32   C39   A    
C37   H22   S    
C66   O17   A    
C53   C61   A    
C44   H27   S    
C34   O25   A    
C19   C20   A    
C8    C9    A    
C64   O11   A    
Cr4   O19   S    
C1    C28   S    
C41   C46   A    
C36   H21   S    
C4    C12   S    
C39   C45   S    
C45   O2    A    
Cr2   O21   S    
Cr4   O6    S    
C59   C60   A    
Cr3   O3    S    
C13   C14   A    
C55   H33   S    
C16   H10   S    
C60   H37   S    
C2    C6    S    
C2    H40   S    
C4    C69   S    
C65   O14   A    
C2    H41   S    
C54   C61   A    
Cr1   O24   S    
Cr4   O14   S    
C34   O26   A    
C25   H15   S    
C58   H35   S    
C23   O23   A    
C3    C70   S    
C24   C25   A    
C4    C6    S    
C10   C11   A    
Cr6   O17   S    
Cr5   O19   S    
C20   C28   A    
C11   H7    S    
C58   C59   A    
C13   H6    S    
C34   C61   S    
C50   C56   S    
C51   C52   A    
Cr5   O8    S    
C43   C44   A    
C43   H25   S    
C7    C62   S    
C37   C38   A    
Cr1   O12   S    
C66   O16   A    
C69   H34   S    
C47   C48   A    
C53   C60   A    
C59   H36   S    
C22   H14   S    
C12   O22   A    
Cr3   O22   S    
C17   C23   S    
C52   C53   A    
C5    H4    S    
C68   O13   A    
C42   C50   A    
Cr1   O25   S    
C56   O24   A    
C69   H23   S    
C45   O3    A    
C9    C17   A    
C40   C41   A    
Cr3   O23   S    
C21   C28   A    
Cr3   O4    S    
C40   C65   S    
Cr4   O13   S    
Cr6   O11   S    
C12   O21   A    
C27   H17   S    
C6    H42   S    
C33   H20   S    
C65   O15   A    
C1    O20   A    
Cr5   O15   S    
C67   C69   S    
C46   C47   A    
Cr2   O20   S    
C47   H28   S    
Cr1   O1    S    
Cr2   O5    S    
C70   H3    S    
C18   C22   A    
C68   O18   A    
C3    C67   S    
C4    C5    S    
C5    C70   S    
C62   O8    A    
Cr5   O16   S    
C43   C50   A    
C67   H12   S    
C49   H30   S    
C20   C27   A    
C3    C63   S    
C64   O6    A    
C30   C35   A    
C10   H5    S    
C31   C38   A    
C15   H9    S    
Cr5   O9    S    
C32   C33   A    
C19   C24   A    
C25   C26   A    
C56   O4    A    
C38   H24   S    
C18   C64   S    
C57   C58   A    
C48   C49   A    
Cr2   O2    S    
C31   C39   A    
C2    C3    S    
C51   C55   A    
C51   C68   S    
C63   O10   A    
C63   O9    A    
C52   C57   A    
C42   C49   A    
C29   C66   S    
C40   C44   A    
C57   H32   S    
Cr3   O5    S    
Cr6   O10   S    
C14   C15   A    
C48   H29   S    
C21   C22   A    
C5    H39   S    
C35   H19   S    
