data_mof_unit_23515.cif
_audit_creation_date              2012-10-26T19:05:04-0400
_audit_creation_method            fapswitch 2.2
_symmetry_space_group_name_H-M    P1
_symmetry_Int_Tables_number       1
_space_group_crystal_system       triclinic
_cell_length_a                    15.873376
_cell_length_b                    10.830431
_cell_length_c                    9.626555
_cell_angle_alpha                 91.08939
_cell_angle_beta                  91.571079
_cell_angle_gamma                 92.599699
_cell_volume                      1652.28927043

loop_
_atom_site_label
_atom_site_type_symbol
_atom_type_description
_atom_site_fract_x
_atom_site_fract_y
_atom_site_fract_z
_atom_type_partial_charge
C1    C     C_R   0.501602 0.262993 0.499260 0.537443
C2    C     C_R   0.679507 0.082972 0.766793 0.144155
C3    C     C_R   0.690789 0.957437 0.743918 -0.118744
C4    C     C_R   0.340426 0.501560 0.498236 0.550895
C5    C     C_R   0.638832 0.888913 0.648723 -0.140325
C6    C     C_R   0.571083 0.943235 0.580266 0.015606
C7    C     C_R   0.567104 0.073155 0.586635 -0.008258
C8    C     C_R   0.508072 0.130078 0.498775 0.001899
C9    C     C_R   0.453322 0.059134 0.410006 -0.155193
C10   C     C_R   0.453153 0.931442 0.412305 -0.149171
C11   C     C_R   0.510041 0.872555 0.499268 0.007154
C12   C     C_3   0.955495 0.446707 0.631067 0.136107
C13   C     C_R   0.623041 0.645987 0.152117 -0.111483
C14   C     C_R   0.694910 0.690593 0.087232 -0.130238
C15   C     C_R   0.700969 0.675935 0.944308 0.112539
C16   C     C_R   0.504113 0.737719 0.500649 0.528354
C17   C     C_R   0.628884 0.632966 0.868451 -0.083939
C18   C     C_R   0.562068 0.567801 0.930790 0.116333
C19   C     C_R   0.560850 0.570430 0.079347 0.148275
C20   C     C_R   0.441697 0.432761 0.069697 -0.010474
C21   C     C_R   0.441374 0.433445 0.921919 -0.002196
C22   C     C_R   0.659677 0.500342 0.501589 0.520109
C23   C     C_3   0.917464 0.505450 0.498370 0.093931
C24   C     C_3   0.053186 0.453104 0.625238 -0.216620
C25   C     C_3   0.042375 0.429685 0.363593 0.045508
C26   C     C_3   0.944575 0.431516 0.368522 -0.153339
C27   C     C_1   0.749489 0.501574 0.504641 -0.039907
C28   C     C_3   0.083072 0.509833 0.487446 0.027628
C29   C     C_3   0.898468 0.290009 0.771519 0.006052
C30   C     C_3   0.971077 0.286486 0.880305 -0.282373
C31   C     C_3   0.939828 0.238572 0.018691 -0.473520
C32   C     C_3   0.918875 0.828242 0.387239 -0.007681
C33   C     C_3   0.835041 0.868682 0.444530 -0.269152
C34   C     C_3   0.953442 0.641587 0.489852 0.137021
C35   C     C_3   0.831453 0.009396 0.448698 -0.468540
C36   C     C_3   0.686839 0.244658 0.950495 -0.303219
C37   C     C_3   0.854569 0.666927 0.936379 -0.309609
C38   C     C_3   0.144003 0.419859 0.169905 -0.323667
C39   C     C_3   0.051546 0.643185 0.482470 -0.196051
C40   C     C_1   0.825116 0.503045 0.503624 -0.017057
C41   C     C_1   0.175380 0.509945 0.488683 -0.063438
C42   C     C_1   0.250885 0.506602 0.493293 -0.048048
C43   C     C_R   0.623768 0.142071 0.677956 -0.076303
Cu1   Cu    Cu3+1 0.499990 0.499990 0.640660 0.910884
Cu2   Cu    Cu3+1 0.500010 0.500010 0.359340 0.917418
H1    H     H_    0.079846 0.509554 0.715308 0.074935
H2    H     H_    0.619887 0.672053 0.258949 0.178152
H3    H     H_    0.744597 0.738911 0.148484 0.129492
H4    H     H_    0.626194 0.653582 0.762576 0.172862
H5    H     H_    0.393412 0.378537 0.863746 0.117437
H6    H     H_    0.059724 0.332016 0.377668 0.136686
H7    H     H_    0.917549 0.334896 0.370239 0.123476
H8    H     H_    0.917807 0.472745 0.272799 0.157581
H9    H     H_    0.079571 0.698856 0.572020 0.071075
H10   H     H_    0.073443 0.690098 0.387514 0.142897
H11   H     H_    0.936237 0.690554 0.587610 0.081047
H12   H     H_    0.936931 0.503679 0.722289 0.075779
H13   H     H_    0.868584 0.195699 0.761422 0.187859
H14   H     H_    0.849027 0.352778 0.805794 0.146614
H15   H     H_    0.020051 0.225302 0.841663 0.160803
H16   H     H_    0.000328 0.380638 0.898739 0.152021
H17   H     H_    0.891100 0.298876 0.059722 0.148052
H18   H     H_    0.993295 0.238563 0.095436 0.160610
H19   H     H_    0.912989 0.142466 0.005692 0.136746
H20   H     H_    0.926784 0.868180 0.282687 0.143909
H21   H     H_    0.972876 0.866697 0.453679 0.112886
H22   H     H_    0.781894 0.829176 0.377876 0.163600
H23   H     H_    0.408194 0.102806 0.342579 0.117057
H24   H     H_    0.827209 0.833502 0.551265 0.146819
H25   H     H_    0.881645 0.050617 0.520223 0.168707
H26   H     H_    0.769261 0.036206 0.486205 0.167206
H27   H     H_    0.839703 0.047059 0.343140 0.141073
H28   H     H_    0.764178 0.094903 0.936009 0.243865
H29   H     H_    0.728703 0.279337 0.038416 0.133517
H30   H     H_    0.626815 0.206922 0.993055 0.164262
H31   H     H_    0.674615 0.324630 0.883710 0.161520
H32   H     H_    0.773376 0.695089 0.768579 0.232645
H33   H     H_    0.908094 0.693651 0.869610 0.112815
H34   H     H_    0.626775 0.241383 0.680709 0.159289
H35   H     H_    0.851027 0.564654 0.945219 0.142173
H36   H     H_    0.867688 0.710734 0.040272 0.172343
H37   H     H_    0.058922 0.560900 0.201826 0.266079
H38   H     H_    0.141703 0.430166 0.055375 0.133576
H39   H     H_    0.146991 0.319861 0.192018 0.135601
H40   H     H_    0.201721 0.470453 0.211816 0.163143
H41   H     H_    0.741191 0.914341 0.798633 0.146214
H42   H     H_    0.653689 0.795305 0.623879 0.091585
H43   H     H_    0.407535 0.878144 0.347094 0.129482
H44   H     H_    0.393994 0.377402 0.121289 0.106117
H45   H     H_    0.077938 0.359039 0.635973 0.145999
N1    N     N_R   0.500800 0.501210 0.147910 -0.236671
N2    N     N_R   0.500820 0.501290 0.852040 -0.243169
N3    N     N_2   0.728036 0.149309 0.873451 -0.553223
N4    N     N_2   0.776875 0.709014 0.874990 -0.540346
N5    N     N_2   0.069564 0.470958 0.227729 -0.536871
O1    O     O_R   0.499990 0.319640 0.618810 -0.512547
O2    O     O_3   0.918090 0.697914 0.370927 -0.587804
O3    O     O_R   0.500000 0.319660 0.381240 -0.495072
O4    O     O_R   0.379430 0.499990 0.618840 -0.491437
O5    O     O_R   0.379440 0.500020 0.381260 -0.500160
O6    O     O_R   0.500000 0.680340 0.618760 -0.501138
O7    O     O_R   0.500010 0.680360 0.381190 -0.520191
O8    O     O_R   0.620560 0.499980 0.618740 -0.536006
O9    O     O_R   0.620570 0.500010 0.381160 -0.507367
O10   O     O_3   0.927098 0.320677 0.638131 -0.592372

loop_
_geom_bond_atom_site_label_1
_geom_bond_atom_site_label_2
_ccdc_geom_bond_type
C34   H11   S    
C38   H38   S    
C1    C8    S    
C41   C42   T    
C28   C41   S    
H28   N3    S    
C29   O10   S    
C15   N4    S    
C7    C8    A    
C25   C28   S    
C12   C23   S    
C10   H43   S    
C5    C6    A    
Cu2   O9    S    
Cu2   O3    S    
C30   C31   S    
Cu1   O4    S    
C39   H9    S    
C43   H34   S    
C23   C40   S    
H32   N4    S    
C34   O2    S    
C22   O9    A    
C32   O2    S    
C18   C19   A    
C23   C26   S    
C36   H31   S    
C36   N3    S    
C39   H10   S    
C29   H14   S    
C35   H25   S    
C8    C9    A    
C30   H15   S    
C38   N5    S    
C7    C43   A    
C9    C10   A    
C27   C40   T    
Cu1   N2    S    
C33   H24   S    
C35   H26   S    
C13   C14   A    
C3    H41   S    
C31   H17   S    
C37   H36   S    
C21   H5    S    
C20   N1    A    
Cu1   O8    S    
C37   H35   S    
C13   C19   A    
C38   H40   S    
C34   C39   S    
C31   H18   S    
Cu2   O7    S    
C17   H4    S    
C6    C11   A    
C13   H2    S    
C14   H3    S    
C28   C39   S    
C25   C26   S    
C22   O8    A    
C25   H6    S    
C29   C30   S    
Cu1   O1    S    
C36   H30   S    
C26   H7    S    
C11   C16   S    
C2    C43   A    
C23   C34   S    
C17   C18   A    
C29   H13   S    
C36   H29   S    
C12   H12   S    
C16   O7    A    
C35   H27   S    
C25   N5    S    
C22   C27   S    
C4    O5    A    
C30   H16   S    
C26   H8    S    
Cu1   Cu2   S    
C33   H22   S    
C32   H21   S    
C20   H44   S    
C15   C17   A    
H37   N5    S    
C38   H39   S    
C31   H19   S    
C2    N3    S    
C24   C28   S    
C3    C5    A    
Cu2   O5    S    
C24   H45   S    
C1    O3    A    
Cu1   O6    S    
C6    C7    A    
C37   H33   S    
C12   C24   S    
C24   H1    S    
C32   C33   S    
C2    C3    A    
C9    H23   S    
C18   N2    A    
C12   O10   S    
C4    C42   S    
C1    O1    A    
C33   C35   S    
C37   N4    S    
Cu2   N1    S    
C19   N1    A    
C10   C11   A    
C5    H42   S    
C16   O6    A    
C20   C21   A    
C4    O4    A    
C14   C15   A    
C32   H20   S    
C21   N2    A    
