data_mof_unit_43883.cif
_audit_creation_date              2012-12-11T14:50:48-0500
_audit_creation_method            fapswitch 2.2
_symmetry_space_group_name_H-M    P1
_symmetry_Int_Tables_number       1
_space_group_crystal_system       triclinic
_cell_length_a                    10.984731
_cell_length_b                    10.988551
_cell_length_c                    18.744001
_cell_angle_alpha                 89.978746
_cell_angle_beta                  89.545661
_cell_angle_gamma                 59.558333
_cell_volume                      1950.54129372

loop_
_atom_site_label
_atom_site_type_symbol
_atom_type_description
_atom_site_fract_x
_atom_site_fract_y
_atom_site_fract_z
_atom_type_partial_charge
C1    C     C_R   0.294196 0.622211 0.615615 0.546986
C2    C     C_R   0.590025 0.104489 0.778813 -0.152246
C3    C     C_R   0.569959 0.137788 0.708137 -0.151086
C4    C     C_R   0.652226 0.620739 0.601589 0.533900
C5    C     C_R   0.675959 0.140021 0.667509 0.019883
C6    C     C_R   0.298255 0.517014 0.735110 -0.178365
C7    C     C_R   0.268812 0.530064 0.808871 -0.155258
C8    C     C_R   0.209178 0.663169 0.841233 0.007078
C9    C     C_R   0.205202 0.774107 0.802744 -0.161418
C10   C     C_R   0.220424 0.767144 0.729662 -0.039202
C11   C     C_R   0.266123 0.636645 0.693675 -0.004166
C12   C     C_3   0.684651 0.538866 0.801041 0.015390
C13   C     C_R   0.799376 0.614905 0.296105 -0.170409
C14   C     C_R   0.820745 0.632416 0.224980 -0.149327
C15   C     C_R   0.705621 0.711358 0.180549 -0.005911
C16   C     C_R   0.630697 0.221922 0.600993 0.529556
C17   C     C_R   0.568249 0.777530 0.208054 -0.147744
C18   C     C_R   0.544690 0.759991 0.279406 0.112440
C19   C     C_R   0.661920 0.673919 0.323465 0.044484
C20   C     C_R   0.591194 0.107805 0.293866 -0.156324
C21   C     C_R   0.588799 0.094756 0.221180 -0.170416
C22   C     C_R   0.648503 0.153450 0.176536 0.053084
C23   C     C_3   0.697683 0.671194 0.813038 0.100672
C24   C     C_R   0.707418 0.230048 0.204569 0.112937
C25   C     C_R   0.711130 0.241280 0.278111 -0.128850
C26   C     C_R   0.650710 0.182184 0.322451 0.002717
C27   C     C_R   0.075103 0.799038 0.305693 -0.146869
C28   C     C_R   0.221352 0.649020 0.401991 0.560138
C29   C     C_R   0.049881 0.813093 0.233678 -0.132625
C30   C     C_R   0.110617 0.692772 0.189306 0.026618
C31   C     C_R   0.185028 0.557790 0.217524 -0.167846
C32   C     C_R   0.208510 0.543477 0.289965 -0.137735
C33   C     C_R   0.159357 0.664685 0.333298 0.033045
C34   C     C_3   0.668106 0.645713 0.676774 0.006115
C35   C     C_R   0.730592 0.034320 0.889437 0.559774
C36   C     C_R   0.723084 0.687940 0.888468 0.562495
C37   C     C_R   0.125488 0.703051 0.908032 0.543559
C38   C     C_R   0.673859 0.106412 0.103840 0.561181
C39   C     C_R   0.732335 0.718319 0.105249 0.560509
C40   C     C_R   0.642648 0.625071 0.392726 0.559419
C41   C     C_R   0.084785 0.713860 0.114573 0.534776
C42   C     C_R   0.618265 0.229740 0.394988 0.546347
C43   C     C_3   0.554735 0.797077 0.786977 -0.302405
C44   C     C_3   0.539149 0.782027 0.706516 -0.259147
C45   C     C_3   0.799243 0.658168 0.686017 -0.228496
C46   C     C_3   0.816702 0.674573 0.766028 0.044409
C47   C     C_3   0.030716 0.430497 0.782736 -0.229183
C48   C     C_1   0.185081 0.899430 0.695345 0.186952
C49   C     C_3   0.339877 0.959451 0.331715 -0.271415
C50   C     C_3   0.650287 0.417330 0.120427 -0.276440
C51   C     C_3   0.821201 0.281257 0.819909 -0.328331
C52   C     C_3   0.684385 0.515866 0.719487 -0.175638
C53   C     C_R   0.812862 0.076749 0.695272 -0.147625
C54   C     C_R   0.837482 0.026752 0.766246 -0.174595
C55   C     C_R   0.722422 0.054779 0.810810 -0.008058
Cr1   Cr    Cr6+3 0.392930 0.397900 0.502230 1.008983
Cr2   Cr    Cr6+3 0.398240 0.708600 0.501260 1.032669
Cr3   Cr    Cr6+3 0.708800 0.393470 0.496460 1.010701
Cr4   Cr    Cr6+3 0.937620 0.938540 0.007640 1.010751
Cr5   Cr    Cr6+3 0.625150 0.937450 0.994520 0.990893
Cr6   Cr    Cr6+3 0.937990 0.625080 0.001190 1.003897
H1    H     H_    0.549503 0.898136 0.796991 0.139906
H2    H     H_    0.173337 0.874668 0.828237 0.134309
H3    H     H_    0.463983 0.802401 0.816693 0.121039
H4    H     H_    0.890295 0.548785 0.328776 0.136739
H5    H     H_    0.927192 0.579693 0.203806 0.145706
H6    H     H_    0.478548 0.838563 0.173745 0.131371
H7    H     H_    0.542717 0.064052 0.327713 0.129448
H8    H     H_    0.543687 0.035061 0.199884 0.140785
H9    H     H_    0.751782 0.304773 0.300101 0.141097
H10   H     H_    0.035864 0.892466 0.338899 0.125322
H11   H     H_    0.445368 0.773746 0.698000 0.163157
H12   H     H_    0.781196 0.420283 0.700791 0.153011
H13   H     H_    0.985578 0.918528 0.212402 0.150706
H14   H     H_    0.228091 0.465031 0.183589 0.122375
H15   H     H_    0.274465 0.438051 0.310869 0.149465
H16   H     H_    0.525220 0.876751 0.677632 0.143707
H17   H     H_    0.796766 0.783922 0.772549 0.118095
H18   H     H_    0.786444 0.752082 0.656611 0.104961
H19   H     H_    0.579742 0.561187 0.821942 0.116136
H20   H     H_    0.595295 0.498517 0.706953 0.095167
H21   H     H_    0.023162 0.620382 0.766093 0.253490
H22   H     H_    0.977844 0.396050 0.745047 0.158327
H23   H     H_    0.893761 0.565477 0.662269 0.148026
H24   H     H_    0.036856 0.385300 0.836338 0.201722
H25   H     H_    0.140409 0.384744 0.762531 0.095846
H26   H     H_    0.338651 0.807704 0.267320 0.250211
H27   H     H_    0.331711 0.033176 0.288884 0.113465
H28   H     H_    0.403506 0.963810 0.376342 0.158921
H29   H     H_    0.232177 0.993676 0.352377 0.148359
H30   H     H_    0.829814 0.320772 0.182846 0.251307
H31   H     H_    0.587441 0.506893 0.157597 0.146500
H32   H     H_    0.578554 0.389411 0.092907 0.143097
H33   H     H_    0.699848 0.450268 0.078937 0.184870
H34   H     H_    0.897173 0.072435 0.663460 0.159369
H35   H     H_    0.766158 0.429827 0.895092 0.270164
H36   H     H_    0.882241 0.204770 0.862406 0.174143
H37   H     H_    0.890068 0.245539 0.771924 0.151176
H38   H     H_    0.719733 0.285567 0.810717 0.177503
H39   H     H_    0.941002 0.983621 0.788598 0.127350
H40   H     H_    0.496838 0.123592 0.808365 0.137849
H41   H     H_    0.464900 0.175085 0.687836 0.135328
H42   H     H_    0.338504 0.415541 0.709746 0.132496
H43   H     H_    0.281260 0.440236 0.838798 0.131207
N1    N     N_2   0.962366 0.583222 0.787950 -0.475202
N2    N     N_1   0.158816 0.004824 0.668521 -0.338210
N3    N     N_2   0.403026 0.817267 0.303924 -0.474830
N4    N     N_2   0.759099 0.298108 0.159112 -0.506726
N5    N     N_2   0.790268 0.418460 0.841276 -0.518191
O1    O     O_R   0.507430 0.255570 0.581420 -0.534269
O2    O     O_R   0.837200 0.593290 0.915250 -0.481060
O3    O     O_R   0.065330 0.635370 0.931590 -0.481855
O4    O     O_R   0.280190 0.527390 0.578910 -0.499848
O5    O     O_R   0.068300 0.828790 0.091860 -0.520215
O6    O     O_R   0.798730 0.057480 0.079370 -0.472654
O7    O     O_R   0.584680 0.080480 0.076790 -0.539374
O8    O     O_R   0.626790 0.809640 0.067050 -0.510029
O9    O     O_R   0.816010 0.596460 0.076500 -0.533165
O10   O     O_R   0.045680 0.638310 0.081070 -0.526224
O11   O     O_3   0.833590 0.833690 0.001120 -0.292892
O12   O     O_R   0.524460 0.695920 0.424060 -0.468244
O13   O     O_R   0.260310 0.739740 0.584580 -0.498896
O14   O     O_R   0.532250 0.695150 0.573830 -0.520188
O15   O     O_R   0.744930 0.503430 0.576380 -0.527001
O16   O     O_R   0.699250 0.276390 0.571950 -0.503942
O17   O     O_R   0.499020 0.256400 0.419850 -0.524633
O18   O     O_R   0.272400 0.528160 0.429140 -0.508506
O19   O     O_R   0.251910 0.740570 0.423020 -0.499784
O20   O     O_R   0.736530 0.504260 0.414810 -0.534203
O21   O     O_R   0.691460 0.277160 0.422180 -0.508226
O22   O     O_3   0.499990 0.499990 0.499980 -0.270273
O23   O     O_R   0.089490 0.825610 0.930610 -0.537544
O24   O     O_R   0.818370 0.054540 0.929880 -0.507798
O25   O     O_R   0.605870 0.077310 0.915530 -0.528061
O26   O     O_R   0.646440 0.806700 0.917570 -0.536411

loop_
_geom_bond_atom_site_label_1
_geom_bond_atom_site_label_2
_ccdc_geom_bond_type
C51   H36   S    
C40   O20   A    
Cr4   O11   S    
C53   H34   S    
C1    C11   S    
C41   O5    A    
C35   O24   A    
Cr2   O19   S    
C16   O1    A    
C7    C8    A    
C49   N3    S    
C13   H4    S    
C53   C54   A    
C27   C33   A    
C40   O12   A    
C12   C23   S    
C47   H24   S    
C5    C53   A    
C44   H16   S    
C2    C55   A    
C30   C31   A    
Cr1   O18   S    
C27   C29   A    
Cr3   O20   S    
C22   C38   S    
C46   N1    S    
C23   C43   S    
C4    O15   A    
C18   C19   A    
H21   N1    S    
C1    O13   A    
C12   N5    S    
C37   O3    A    
Cr2   O13   S    
C18   N3    S    
C48   N2    T    
C8    C9    A    
C47   N1    S    
Cr1   O4    S    
C30   C41   S    
Cr5   O11   S    
C24   N4    S    
Cr1   O17   S    
C16   O16   A    
C49   H29   S    
C28   O18   A    
C51   H37   S    
C51   N5    S    
C23   C46   S    
C13   C14   A    
Cr6   O11   S    
C50   N4    S    
C49   H27   S    
C54   H39   S    
C1    O4    A    
C35   O25   A    
Cr1   O1    S    
Cr6   O10   S    
C12   C52   S    
Cr2   O22   S    
C43   H3    S    
C51   H38   S    
C4    C34   S    
Cr4   O23   S    
C17   H6    S    
C13   C19   A    
C35   C55   S    
C47   H25   S    
C34   C44   S    
C24   C25   A    
C42   O21   A    
C52   H12   S    
C10   C11   A    
C6    C11   A    
C46   H17   S    
C50   H33   S    
C29   H13   S    
C2    H40   S    
C25   C26   A    
C39   O8    A    
Cr4   O24   S    
C4    O14   A    
C21   H8    S    
C43   C44   S    
C29   C30   A    
Cr2   O14   S    
C38   O7    A    
C31   H14   S    
C31   C32   A    
Cr3   O22   S    
C36   O2    A    
C17   C18   A    
C14   H5    S    
Cr5   O8    S    
C45   H18   S    
C34   C45   S    
C6    H42   S    
C41   O10   A    
Cr5   O26   S    
C15   C39   S    
C3    H41   S    
C50   H31   S    
C28   C33   S    
C47   H22   S    
C7    H43   S    
C10   C48   S    
C22   C24   A    
Cr5   O7    S    
C45   H23   S    
C8    C37   S    
Cr6   O2    S    
C36   O26   A    
Cr5   O25   S    
C27   H10   S    
C26   C42   S    
C9    C10   A    
C15   C17   A    
C54   C55   A    
Cr6   O9    S    
C9    H2    S    
C34   C52   S    
H30   N4    S    
C20   H7    S    
C49   H28   S    
C3    C5    A    
C32   H15   S    
C50   H32   S    
C6    C7    A    
C39   O9    A    
H35   N5    S    
Cr3   O15   S    
C37   O23   A    
C32   C33   A    
C2    C3    A    
C5    C16   S    
C38   O6    A    
C20   C26   A    
Cr3   O21   S    
Cr4   O5    S    
C12   H19   S    
C44   H11   S    
C52   H20   S    
Cr1   O22   S    
C19   C40   S    
C42   O17   A    
Cr2   O12   S    
C45   C46   S    
H26   N3    S    
C20   C21   A    
Cr3   O16   S    
Cr4   O6    S    
C23   C36   S    
C14   C15   A    
C25   H9    S    
C21   C22   A    
Cr6   O3    S    
C28   O19   A    
C43   H1    S    
