data_mof_unit_64010.cif
_audit_creation_date              2012-12-10T20:31:47-0500
_audit_creation_method            fapswitch 2.2
_symmetry_space_group_name_H-M    P1
_symmetry_Int_Tables_number       1
_space_group_crystal_system       triclinic
_cell_length_a                    21.622264
_cell_length_b                    21.808084
_cell_length_c                    21.473177
_cell_angle_alpha                 91.565394
_cell_angle_beta                  119.556926
_cell_angle_gamma                 120.09438
_cell_volume                      7094.90051131

loop_
_atom_site_label
_atom_site_type_symbol
_atom_type_description
_atom_site_fract_x
_atom_site_fract_y
_atom_site_fract_z
_atom_type_partial_charge
Br1   Br    Br    0.742011 0.186497 0.744242 -0.419127
Br2   Br    Br    0.207420 0.330057 0.141106 -0.354930
Br3   Br    Br    0.326831 0.298489 0.108510 -0.424794
Br4   Br    Br    0.264169 0.516929 0.100977 -0.357849
Br5   Br    Br    0.861784 0.654492 0.680156 -0.361096
Br6   Br    Br    0.928998 0.376213 0.289570 -0.407498
Br7   Br    Br    0.527395 0.794320 0.980812 -0.424190
Br8   Br    Br    0.402666 0.901180 0.734426 -0.325686
Br9   Br    Br    0.523654 0.947549 0.677093 -0.327423
Br10  Br    Br    0.460444 0.691458 0.507976 -0.416757
Br11  Br    Br    0.837892 0.447271 0.138263 -0.445412
Br12  Br    Br    0.320449 0.997036 0.058557 -0.455794
Br13  Br    Br    0.585310 0.244608 0.987378 -0.405085
Br14  Br    Br    0.728418 0.787392 0.830639 -0.506242
Br15  Br    Br    0.799932 0.929768 0.056046 -0.378767
Br16  Br    Br    0.679802 0.078673 0.861992 -0.379036
Br17  Br    Br    0.386644 0.720409 0.180203 -0.347342
Br18  Br    Br    0.416304 0.745250 0.350537 -0.345357
Br19  Br    Br    0.072191 0.601890 0.832851 -0.508779
Br20  Br    Br    0.137342 0.814832 0.832225 -0.303691
Br21  Br    Br    0.105929 0.799010 0.662345 -0.210849
Br22  Br    Br    0.175409 0.716051 0.608870 -0.384371
Br23  Br    Br    0.674702 0.246667 0.184876 -0.318537
Br24  Br    Br    0.603016 0.353055 0.582420 -0.471346
Br25  Br    Br    0.768928 0.311772 0.365232 -0.312112
Br26  Br    Br    0.769825 0.441707 0.446311 -0.390111
Br27  Br    Br    0.304474 0.264537 0.285406 -0.431279
Br28  Br    Br    0.887760 0.820106 0.677019 -0.278061
Br29  Br    Br    0.631929 0.606446 0.304757 -0.282054
Br30  Br    Br    0.506911 0.646615 0.317103 -0.231617
C1    C     C_R   0.497623 0.412728 0.411274 0.915004
C2    C     C_R   0.238928 0.750100 0.927849 0.003910
C3    C     C_R   0.664772 0.357650 0.895699 0.074425
C4    C     C_R   0.651204 0.413677 0.881264 -0.146711
C5    C     C_R   0.693803 0.478899 0.941822 0.106170
C6    C     C_R   0.679810 0.247360 0.994324 0.254852
C7    C     C_R   0.688992 0.188368 0.004874 -0.134687
C8    C     C_R   0.762035 0.193539 0.016845 0.041944
C9    C     C_R   0.760139 0.744076 0.783398 0.263256
C10   C     C_R   0.824247 0.257173 0.014303 0.061361
C11   C     C_R   0.812733 0.314381 0.999967 -0.117601
C12   C     C_R   0.740903 0.310152 0.990324 -0.064675
C13   C     C_R   0.174701 0.686899 0.928792 0.227594
C14   C     C_R   0.814278 0.127675 0.100249 0.018423
C15   C     C_R   0.822094 0.067303 0.108707 0.034917
C16   C     C_R   0.788697 0.011514 0.043916 0.291094
C17   C     C_R   0.747383 0.015503 0.970603 -0.021722
C18   C     C_R   0.737674 0.074288 0.962113 0.218088
C19   C     C_R   0.771128 0.130503 0.026603 -0.035505
C20   C     C_R   0.230487 0.787308 0.224718 0.116694
C21   C     C_R   0.183921 0.687631 0.998474 -0.155956
C22   C     C_R   0.822670 0.569721 0.815413 0.074375
C23   C     C_R   0.253850 0.753300 0.066279 -0.004613
C24   C     C_R   0.183861 0.772806 0.803703 0.235150
C25   C     C_R   0.169366 0.765005 0.731605 0.233229
C26   C     C_R   0.199703 0.731074 0.709478 0.222191
C27   C     C_R   0.246027 0.706027 0.759988 0.004524
C28   C     C_R   0.261474 0.714470 0.832780 0.070728
C29   C     C_R   0.800965 0.785539 0.750501 -0.246509
C30   C     C_R   0.230223 0.747904 0.854428 -0.046368
C31   C     C_R   0.819698 0.503719 0.810158 -0.141424
C32   C     C_R   0.760617 0.443072 0.738250 -0.040916
C33   C     C_R   0.690542 0.440138 0.678304 0.190767
C34   C     C_R   0.689589 0.503613 0.685801 -0.160091
C35   C     C_R   0.759917 0.571275 0.751199 0.024426
C36   C     C_R   0.825483 0.410327 0.685276 0.024967
C37   C     C_R   0.847063 0.363524 0.670001 0.145080
C38   C     C_R   0.822748 0.297518 0.687779 0.049565
C39   C     C_R   0.620884 0.502040 0.621141 0.924070
C40   C     C_R   0.218672 0.778593 0.153859 -0.173328
C41   C     C_R   0.775999 0.277559 0.720529 0.185338
C42   C     C_R   0.754432 0.324382 0.736180 0.083072
C43   C     C_R   0.780263 0.391461 0.719827 0.094180
C44   C     C_R   0.420152 0.101416 0.129154 0.195538
C45   C     C_R   0.499428 0.130613 0.137735 -0.221799
C46   C     C_R   0.578288 0.200220 0.195137 0.251868
C47   C     C_R   0.580056 0.239900 0.249364 -0.084693
C48   C     C_R   0.498337 0.216997 0.234342 -0.079885
C49   C     C_R   0.417335 0.147371 0.173791 0.096138
C50   C     C_R   0.660117 0.302349 0.317174 0.292191
C51   C     C_R   0.263222 0.757122 0.139745 -0.036833
C52   C     C_R   0.498883 0.586477 0.585354 0.918644
C53   C     C_R   0.658989 0.351664 0.359101 0.219281
C54   C     C_R   0.577745 0.334019 0.338724 -0.023346
C55   C     C_R   0.497699 0.264517 0.279467 0.005994
C56   C     C_R   0.416808 0.243304 0.264453 0.086010
C57   C     C_R   0.338424 0.174239 0.206376 -0.171965
C58   C     C_R   0.337221 0.127142 0.160385 0.115376
C59   C     C_R   0.574844 0.383121 0.378383 -0.183401
C60   C     C_R   0.495208 0.362572 0.363065 -0.158233
C61   C     C_R   0.415484 0.292186 0.306810 0.231135
C62   C     C_R   0.321628 0.745801 0.197542 0.220102
C63   C     C_R   0.509423 0.527474 0.258375 0.263202
C64   C     C_R   0.379702 0.497104 0.377630 0.932229
C65   C     C_R   0.458116 0.543002 0.267702 0.240403
C66   C     C_R   0.369754 0.483410 0.236885 -0.177348
C67   C     C_R   0.331032 0.410015 0.190740 0.265641
C68   C     C_R   0.381314 0.395973 0.177859 0.206235
C69   C     C_R   0.471235 0.454258 0.213529 -0.068911
C70   C     C_R   0.254469 0.505363 0.185896 0.309055
C71   C     C_R   0.190867 0.505787 0.188858 -0.201820
C72   C     C_R   0.192157 0.506270 0.255513 -0.005120
C73   C     C_R   0.334496 0.755935 0.268848 0.245623
C74   C     C_R   0.254882 0.502570 0.317390 0.083440
C75   C     C_R   0.313708 0.497172 0.311735 -0.078069
C76   C     C_R   0.829953 0.758789 0.719177 0.254763
C77   C     C_R   0.314132 0.498223 0.246427 0.031276
C78   C     C_R   0.157775 0.586903 0.293590 -0.168496
C79   C     C_R   0.115442 0.598371 0.319816 0.101062
C80   C     C_R   0.047660 0.536065 0.319289 0.053016
C81   C     C_R   0.020070 0.461826 0.288831 0.265897
C82   C     C_R   0.061416 0.450615 0.260170 0.022479
C83   C     C_R   0.132310 0.513745 0.264872 0.060201
C84   C     C_R   0.288839 0.776203 0.281998 -0.230378
C85   C     C_R   0.508790 0.807666 0.885101 0.179705
C86   C     C_R   0.493216 0.861160 0.861286 -0.245213
C87   C     C_R   0.474543 0.866725 0.789324 0.261376
C88   C     C_R   0.817414 0.689110 0.719931 0.243082
C89   C     C_R   0.491515 0.831922 0.750049 -0.058188
C90   C     C_R   0.499543 0.773778 0.770285 -0.077923
C91   C     C_R   0.505369 0.760117 0.836489 0.032742
C92   C     C_R   0.501282 0.853091 0.691771 0.294748
C93   C     C_R   0.506733 0.809823 0.647865 0.025980
C94   C     C_R   0.498293 0.743285 0.658969 0.024066
C95   C     C_R   0.317548 0.816618 0.064938 0.095006
C96   C     C_R   0.499378 0.727706 0.723189 0.017040
C97   C     C_R   0.499355 0.665259 0.739948 0.165687
C98   C     C_R   0.504014 0.651255 0.805026 0.099432
C99   C     C_R   0.508282 0.699407 0.853141 -0.135813
C100  C     C_R   0.773284 0.645282 0.750667 -0.064681
C101  C     C_R   0.491859 0.692788 0.609733 0.259328
C102  C     C_R   0.495918 0.633858 0.629771 -0.139503
C103  C     C_R   0.497092 0.618866 0.692339 -0.289184
C104  C     C_R   0.878349 0.379951 0.998512 0.904376
C105  C     C_R   0.881405 0.500902 0.878873 0.926811
C106  C     C_R   0.311008 0.813666 0.996664 -0.071835
C107  C     C_R   0.119753 0.620390 0.999850 0.949028
C108  C     C_R   0.121523 0.501865 0.120954 0.933047
C109  C     C_R   0.379153 0.878760 0.997889 0.938623
C110  C     C_R   0.500651 0.086434 0.087546 0.995811
C111  C     C_R   0.620820 0.120609 0.001342 0.944056
C112  C     C_R   0.745771 0.673512 0.783466 -0.004603
C113  C     C_R   0.497431 0.911491 0.911926 0.936237
C114  C     C_R   0.750430 0.488037 0.017333 -0.168996
C115  C     C_R   0.765863 0.433523 0.032888 0.330908
C116  C     C_R   0.725824 0.368957 0.972322 0.034406
H1    H     H_    0.811652 0.839643 0.750496 0.220103
H2    H     H_    0.175024 0.788584 0.109573 0.167732
H3    H     H_    0.787697 0.196439 0.633853 0.240806
H4    H     H_    0.884508 0.247008 0.723033 0.230763
H5    H     H_    0.646667 0.251381 0.732599 0.256360
H6    H     H_    0.743368 0.301028 0.821880 0.215095
H7    H     H_    0.215705 0.079056 0.062284 0.239631
H8    H     H_    0.220294 0.027329 0.119699 0.203319
H9    H     H_    0.496772 0.423653 0.144134 0.250279
H10   H     H_    0.521995 0.395854 0.220771 0.222872
H11   H     H_    0.202966 0.458480 0.376063 0.201011
H12   H     H_    0.634592 0.437014 0.423488 0.224266
H13   H     H_    0.269346 0.555160 0.408593 0.219664
H14   H     H_    0.165969 0.686543 0.407101 0.237186
H15   H     H_    0.090785 0.676388 0.318714 0.231988
H16   H     H_    0.941154 0.518078 0.309408 0.277693
H17   H     H_    0.019556 0.529615 0.396887 0.246606
H18   H     H_    0.042960 0.352307 0.271902 0.208417
H19   H     H_    0.967527 0.342767 0.183930 0.232076
H20   H     H_    0.589498 0.890090 0.627253 0.248341
H21   H     H_    0.479661 0.842339 0.555314 0.247009
H22   H     H_    0.441645 0.538725 0.784084 0.193502
H23   H     H_    0.275514 0.156235 0.193401 0.206999
H24   H     H_    0.521267 0.592355 0.877777 0.215494
H25   H     H_    0.643564 0.618771 0.791311 0.218433
H26   H     H_    0.744174 0.666520 0.876029 0.224883
H27   H     H_    0.736889 0.585789 0.946638 0.193043
H28   H     H_    0.632898 0.519707 0.869158 0.199423
H29   H     H_    0.628535 0.251538 0.847747 0.208902
H30   H     H_    0.546380 0.260560 0.812876 0.235872
H31   H     H_    0.877489 0.219840 0.982666 0.244017
H32   H     H_    0.933733 0.259846 0.078942 0.199688
H33   H     H_    0.916235 0.212057 0.204671 0.184227
H34   H     H_    0.213550 0.635517 0.298813 0.186609
H35   H     H_    0.817813 0.160384 0.191943 0.229862
H36   H     H_    0.928845 0.111323 0.218776 0.204358
H37   H     H_    0.830205 0.058837 0.205803 0.201581
H38   H     H_    0.671821 0.906628 0.899579 0.230435
H39   H     H_    0.769955 0.963995 0.913230 0.254835
H40   H     H_    0.230827 0.861829 0.282546 0.211324
H41   H     H_    0.141627 0.812009 0.190816 0.191835
H42   H     H_    0.362047 0.903326 0.151024 0.215144
H43   H     H_    0.427183 0.873640 0.175836 0.233521
H44   H     H_    0.867846 0.653037 0.904970 0.201375
H45   H     H_    0.497169 0.570823 0.703823 0.173247
H46   H     H_    0.929656 0.680787 0.870493 0.222477
H47   H     H_    0.316023 0.706862 0.722673 0.223729
H48   H     H_    0.219876 0.620896 0.687677 0.236265
H49   H     H_    0.258424 0.638287 0.884851 0.232609
H50   H     H_    0.332939 0.670157 0.865639 0.239737
H51   H     H_    0.791412 0.469529 0.622293 0.245015
H52   H     H_    0.885049 0.523921 0.712661 0.257589
H53   H     H_    0.953451 0.436512 0.671303 0.237259
H54   H     H_    0.856266 0.384947 0.582777 0.252667
H55   H     H_    0.511667 0.687030 0.902573 0.194969
H56   H     H_    0.781516 0.537302 0.064376 0.181166
H57   H     H_    0.605209 0.405100 0.822645 0.161471
H58   H     H_    0.299096 0.783757 0.337167 0.195853
N1    N     N_3   0.845700 0.250950 0.671656 -0.386855
N2    N     N_3   0.505567 0.588594 0.822654 -0.459949
N3    N     N_3   0.706176 0.631390 0.818847 -0.471139
N4    N     N_3   0.677206 0.534752 0.928095 -0.420578
N5    N     N_3   0.611858 0.288644 0.831867 -0.433845
N6    N     N_3   0.899575 0.264408 0.026231 -0.406415
N7    N     N_3   0.848701 0.185835 0.165608 -0.403882
N8    N     N_3   0.864019 0.062057 0.182746 -0.373059
N9    N     N_3   0.716231 0.960883 0.904386 -0.369640
N10   N     N_3   0.184084 0.807609 0.239567 -0.427411
N11   N     N_3   0.388552 0.885227 0.132265 -0.412121
N12   N     N_3   0.707011 0.304835 0.769377 -0.421885
N13   N     N_3   0.894039 0.636826 0.884044 -0.415895
N14   N     N_3   0.275081 0.669703 0.736793 -0.451360
N15   N     N_3   0.305767 0.686990 0.884561 -0.391709
N16   N     N_3   0.849183 0.476412 0.664459 -0.391955
N17   N     N_3   0.893659 0.382412 0.635793 -0.378500
N18   N     N_3   0.252764 0.061308 0.097579 -0.371915
N19   N     N_3   0.524155 0.440486 0.202786 -0.357185
N20   N     N_3   0.261185 0.505955 0.387553 -0.421389
N21   N     N_3   0.144736 0.674354 0.349913 -0.427648
N22   N     N_3   0.009088 0.549374 0.351421 -0.406512
N23   N     N_3   0.034629 0.375837 0.229193 -0.446618
N24   N     N_3   0.527895 0.837059 0.596159 -0.356622
O1    O     O_R   0.551770 0.485660 0.433950 -0.623416
O2    O     O_R   0.356610 0.908380 0.948360 -0.606879
O3    O     O_R   0.551760 0.066040 0.117810 -0.607909
O4    O     O_R   0.448310 0.382210 0.433960 -0.555437
O5    O     O_R   0.448290 0.066080 0.014430 -0.559708
O6    O     O_R   0.643290 0.091520 0.051640 -0.626851
O7    O     O_R   0.539830 0.091560 0.948260 -0.577952
O8    O     O_R   0.551610 0.933820 0.985570 -0.586741
O9    O     O_R   0.448150 0.933870 0.882190 -0.593803
O10   O     O_R   0.643350 0.551720 0.591610 -0.608953
O11   O     O_R   0.539890 0.448280 0.591620 -0.594869
O12   O     O_R   0.908390 0.371060 0.962700 -0.599567
O13   O     O_R   0.551690 0.617790 0.566040 -0.580081
O14   O     O_R   0.448230 0.514340 0.566050 -0.635302
O15   O     O_R   0.460110 0.551720 0.408380 -0.579464
O16   O     O_R   0.356650 0.448280 0.408390 -0.600060
O17   O     O_R   0.908320 0.445630 0.037270 -0.611530
O18   O     O_R   0.908320 0.537260 0.945670 -0.610797
O19   O     O_R   0.908390 0.462700 0.871100 -0.629708
O20   O     O_R   0.091570 0.628900 0.037300 -0.632158
O21   O     O_R   0.091640 0.554330 0.962730 -0.564661
O22   O     O_R   0.091560 0.537260 0.128900 -0.625367
O23   O     O_R   0.091630 0.462690 0.054330 -0.564075
O24   O     O_R   0.460070 0.908340 0.051740 -0.586144
Zn1   Zn    Zn3+2 0.569080 0.569070 0.500000 1.125400
Zn2   Zn    Zn3+2 0.430920 0.430930 0.500000 1.071241
Zn3   Zn    Zn3+2 0.999930 0.549770 0.049790 1.005252
Zn4   Zn    Zn3+2 0.000030 0.450190 0.950210 1.079968
Zn5   Zn    Zn3+2 0.569030 0.999920 0.069030 1.072825
Zn6   Zn    Zn3+2 0.430870 0.999980 0.930970 1.144044

loop_
_geom_bond_atom_site_label_1
_geom_bond_atom_site_label_2
_ccdc_geom_bond_type
C14   C19   A    
H31   N6    S    
O6    Zn5   S    
C8    C10   A    
C25   C26   A    
C64   C75   S    
C96   C97   A    
C85   C91   A    
Br12  C44   S    
Br25  C50   S    
C11   C12   A    
C113  O9    A    
C6    C12   A    
C65   C66   A    
C110  O3    A    
Br23  C46   S    
C57   C58   A    
C98   C99   A    
Br16  C18   S    
H49   N15   S    
C115  C116  A    
O23   Zn4   S    
O20   Zn3   S    
C93   C94   A    
H48   N14   S    
C8    C19   S    
C24   C30   A    
C15   C16   A    
H30   N5    S    
O17   Zn3   S    
H32   N6    S    
O8    Zn5   S    
Br26  C53   S    
C7    C111  S    
H10   N19   S    
H54   N17   S    
C94   C96   A    
C6    C7    A    
C7    C8    A    
H24   N2    S    
C45   C110  S    
C50   C53   A    
C90   C96   A    
C47   C50   A    
O18   Zn3   S    
C20   N10   S    
C28   C30   A    
C85   C86   A    
C57   H23   S    
H33   N7    S    
H19   N23   S    
C26   C27   A    
C52   O14   A    
Br30  C65   S    
C23   C51   S    
C4    C5    A    
Br6   C81   S    
Br7   C85   S    
C37   N17   S    
C40   C51   A    
C64   O16   A    
Br10  C101  S    
C11   C104  S    
C36   N16   S    
H43   N11   S    
C62   C73   A    
Br14  C9    S    
C80   C81   A    
C51   C62   A    
C3    N5    S    
C109  O24   A    
Br2   C67   S    
Br28  C76   S    
C111  O6    A    
C70   C77   A    
Br8   C87   S    
H11   N20   S    
C32   C43   S    
Br27  C61   S    
H53   N17   S    
C78   C79   A    
H27   N4    S    
H17   N22   S    
C102  C103  A    
C39   O10   A    
C63   C69   A    
C104  O17   A    
C60   C61   A    
C47   C48   A    
C5    C114  A    
C23   C95   A    
C99   H55   S    
O19   Zn4   S    
C75   C77   A    
C36   C37   A    
H41   N10   S    
C63   C65   A    
C82   N23   S    
O16   Zn2   S    
C1    O4    A    
H28   N4    S    
C105  O18   A    
Br17  C62   S    
C98   N2    S    
H46   N13   S    
C106  C109  S    
C95   C106  A    
C82   C83   A    
H16   N22   S    
H42   N11   S    
Br19  C13   S    
O24   Zn5   S    
C67   C68   A    
H15   N21   S    
H39   N9    S    
H47   N14   S    
C69   N19   S    
O12   Zn4   S    
C29   C76   A    
H9    N19   S    
O10   Zn1   S    
H38   N9    S    
C37   C38   A    
C15   N8    S    
C71   C72   A    
O2    Zn6   S    
C59   H12   S    
C73   C84   A    
O4    Zn2   S    
C46   C47   A    
Br13  C6    S    
Br20  C24   S    
C108  O23   A    
C44   C45   A    
H3    N1    S    
Br21  C25   S    
C107  O20   A    
C79   N21   S    
C48   C49   A    
Br11  C115  S    
Br22  C26   S    
C93   N24   S    
H37   N8    S    
C55   C56   A    
C36   C43   A    
C94   C101  A    
C20   C84   A    
C113  O8    A    
H8    N18   S    
C64   O15   A    
C32   C33   A    
C88   C100  A    
C105  O19   A    
C86   C113  S    
O3    Zn5   S    
C28   N15   S    
C5    N4    S    
C107  O21   A    
C17   C18   A    
C9    C112  A    
C4    H57   S    
C71   C108  S    
C1    C60   S    
C9    C29   A    
C66   C67   A    
O11   Zn2   S    
H36   N8    S    
Br9   C92   S    
C22   N13   S    
Br1   C41   S    
C112  N3    S    
C54   C55   A    
C72   C74   A    
C39   O11   A    
H40   N10   S    
C49   C58   A    
C17   N9    S    
C114  H56   S    
C21   C107  S    
C48   C55   A    
C10   C11   A    
C42   N12   S    
C66   C77   S    
Br24  C33   S    
C44   C49   A    
Br4   C70   S    
C80   N22   S    
C110  O5    A    
O14   Zn2   S    
H22   N2    S    
C53   C54   A    
O13   Zn1   S    
C54   C59   A    
C2    C30   S    
H25   N3    S    
C101  C102  A    
C12   C116  S    
H44   N13   S    
C38   N1    S    
H50   N15   S    
C14   C15   A    
C103  H45   S    
C78   H34   S    
C2    C106  A    
C89   C92   A    
O22   Zn3   S    
C24   C25   A    
C18   C19   A    
C45   C46   A    
C81   C82   A    
C56   C57   A    
C104  O12   A    
C42   C43   A    
H26   N3    S    
H52   N16   S    
C97   C103  A    
H4    N1    S    
C91   C99   A    
C114  C115  A    
C108  O22   A    
C74   C75   A    
H6    N12   S    
O1    Zn1   S    
C89   C90   A    
C38   C41   A    
O5    Zn6   S    
C78   C83   A    
C34   C39   S    
O15   Zn1   S    
H35   N7    S    
Br5   C88   S    
H5    N12   S    
C10   N6    S    
C34   C35   A    
C14   N7    S    
C87   C89   A    
C92   C93   A    
H7    N18   S    
C72   C83   S    
C79   C80   A    
Br29  C63   S    
C95   N11   S    
Br3   C68   S    
C13   C21   A    
H21   N24   S    
O7    Zn6   S    
C1    O1    A    
C70   C71   A    
C2    C13   A    
C3    C4    A    
C86   C87   A    
C22   C31   A    
H18   N23   S    
C84   H58   S    
Br18  C73   S    
H29   N5    S    
C20   C40   A    
C31   C32   A    
C100  C112  A    
C111  O7    A    
C16   C17   A    
C3    C116  A    
C33   C34   A    
H14   N21   S    
C41   C42   A    
C40   H2    S    
C52   O13   A    
O21   Zn4   S    
H20   N24   S    
C68   C69   A    
C27   N14   S    
C35   C100  S    
O9    Zn6   S    
C97   C98   A    
C58   N18   S    
C90   C91   A    
Br15  C16   S    
C21   C23   A    
C27   C28   A    
C59   C60   A    
C52   C102  S    
C74   N20   S    
C31   C105  S    
C76   C88   A    
C22   C35   A    
H13   N20   S    
C109  O2    A    
C56   C61   A    
H51   N16   S    
C29   H1    S    
