data_mof_unit_48729.cif
_audit_creation_date              2012-12-11T14:44:20-0500
_audit_creation_method            fapswitch 2.2
_symmetry_space_group_name_H-M    P1
_symmetry_Int_Tables_number       1
_space_group_crystal_system       triclinic
_cell_length_a                    18.923593
_cell_length_b                    10.947727
_cell_length_c                    18.816294
_cell_angle_alpha                 90.004074
_cell_angle_beta                  89.984078
_cell_angle_gamma                 89.997602
_cell_volume                      3898.177674

loop_
_atom_site_label
_atom_site_type_symbol
_atom_type_description
_atom_site_fract_x
_atom_site_fract_y
_atom_site_fract_z
_atom_type_partial_charge
C1    C     C_R   0.729972 0.376471 0.145664 0.545918
C2    C     C_R   0.269990 0.376410 0.854316 0.546116
C3    C     C_R   0.229967 0.876468 0.145660 0.545908
C4    C     C_R   0.769994 0.876411 0.854318 0.546106
C5    C     C_R   0.511743 0.387772 0.927270 -0.072929
C6    C     C_R   0.486748 0.386912 0.073100 -0.073108
C7    C     C_R   0.011735 0.887780 0.927269 -0.072975
C8    C     C_R   0.986751 0.886920 0.073102 -0.073152
C9    C     C_R   0.005858 0.997786 0.964111 -0.133486
C10   C     C_R   0.991551 0.997331 0.036532 -0.132850
C11   C     C_R   0.505866 0.497777 0.964111 -0.133344
C12   C     C_R   0.491549 0.497323 0.036530 -0.132708
C13   C     C_R   0.701636 0.857708 0.039615 -0.139153
C14   C     C_R   0.299622 0.859912 0.960708 -0.138137
C15   C     C_R   0.201690 0.357614 0.039628 -0.139192
C16   C     C_R   0.799575 0.359823 0.960698 -0.138168
C17   C     C_R   0.704254 0.843848 0.966229 -0.139227
C18   C     C_R   0.296992 0.846718 0.034154 -0.139358
C19   C     C_R   0.204304 0.343725 0.966245 -0.139215
C20   C     C_R   0.796951 0.346600 0.034142 -0.139332
C21   C     C_R   0.752634 0.912435 0.926116 0.031259
C22   C     C_R   0.246967 0.912505 0.073744 0.031526
C23   C     C_R   0.252604 0.412443 0.926105 0.031245
C24   C     C_R   0.747005 0.412527 0.073759 0.031508
C25   C     C_R   0.797381 0.995938 0.959515 -0.125101
C26   C     C_R   0.200532 0.992582 0.039729 -0.125183
C27   C     C_R   0.297262 0.496122 0.959472 -0.125121
C28   C     C_R   0.700659 0.492793 0.039778 -0.125195
C29   C     C_R   0.797642 0.004450 0.032081 -0.120168
C30   C     C_R   0.200303 0.000078 0.967156 -0.122302
C31   C     C_R   0.297524 0.504687 0.032037 -0.120093
C32   C     C_R   0.700423 0.500338 0.967205 -0.122207
C33   C     C_R   0.749259 0.937021 0.072833 0.034959
C34   C     C_R   0.250476 0.935797 0.926921 0.034202
C35   C     C_R   0.249238 0.437096 0.072817 0.034992
C36   C     C_R   0.750500 0.435881 0.926941 0.034238
C37   C     C_R   0.495242 0.047783 0.463281 0.025037
C38   C     C_R   0.504757 0.047776 0.536712 0.025042
C39   C     C_R   0.995244 0.547785 0.463281 0.025036
C40   C     C_R   0.004759 0.547779 0.536713 0.025039
C41   C     C_R   0.496663 0.159707 0.574154 0.025813
C42   C     C_R   0.503346 0.159717 0.425852 0.025795
C43   C     C_R   0.996664 0.659709 0.574154 0.025813
C44   C     C_R   0.003346 0.659718 0.425852 0.025795
C45   C     C_R   0.530087 0.155041 0.146991 0.540581
C46   C     C_R   0.469988 0.155150 0.852940 0.540829
C47   C     C_R   0.030086 0.655042 0.146991 0.540571
C48   C     C_R   0.969988 0.655151 0.852940 0.540819
C49   C     C_R   0.496482 0.270450 0.536749 -0.153359
C50   C     C_R   0.503543 0.270454 0.463270 -0.153374
C51   C     C_R   0.996481 0.770452 0.536749 -0.153357
C52   C     C_R   0.003542 0.770456 0.463270 -0.153373
C53   C     C_R   0.782013 0.060328 0.477534 -0.116858
C54   C     C_R   0.217996 0.060350 0.522472 -0.116852
C55   C     C_R   0.282015 0.560324 0.477533 -0.116858
C56   C     C_R   0.717995 0.560348 0.522472 -0.116853
C57   C     C_R   0.791106 0.035508 0.549561 0.022352
C58   C     C_R   0.208900 0.035525 0.450444 0.022319
C59   C     C_R   0.291107 0.535507 0.549561 0.022353
C60   C     C_R   0.708899 0.535524 0.450444 0.022320
C61   C     C_R   0.749073 0.941458 0.581318 0.039708
C62   C     C_R   0.250927 0.941458 0.418683 0.039697
C63   C     C_R   0.249073 0.441459 0.581319 0.039709
C64   C     C_R   0.750927 0.441459 0.418683 0.039699
C65   C     C_R   0.693606 0.890488 0.542480 -0.163531
C66   C     C_R   0.306386 0.890462 0.457520 -0.163538
C67   C     C_R   0.193606 0.390490 0.542481 -0.163532
C68   C     C_R   0.806387 0.390465 0.457520 -0.163537
C69   C     C_R   0.682995 0.922583 0.471847 -0.142724
C70   C     C_R   0.316998 0.922558 0.528154 -0.142730
C71   C     C_R   0.182996 0.422584 0.471848 -0.142725
C72   C     C_R   0.816999 0.422561 0.528153 -0.142731
C73   C     C_R   0.730360 0.000965 0.437850 0.010735
C74   C     C_R   0.269643 0.000968 0.562152 0.010762
C75   C     C_R   0.230361 0.500963 0.437850 0.010735
C76   C     C_R   0.769643 0.500968 0.562152 0.010761
C77   C     C_R   0.741179 0.971358 0.146655 0.554445
C78   C     C_R   0.258765 0.971075 0.853252 0.554499
C79   C     C_R   0.241175 0.471375 0.146649 0.554441
C80   C     C_R   0.758769 0.471095 0.853260 0.554496
C81   C     C_R   0.730152 0.382369 0.351628 0.532949
C82   C     C_R   0.269848 0.382366 0.648372 0.532863
C83   C     C_R   0.230152 0.882369 0.351628 0.532954
C84   C     C_R   0.769848 0.882365 0.648372 0.532868
C85   C     C_R   0.531283 0.156307 0.353383 0.539349
C86   C     C_R   0.468719 0.156301 0.646618 0.539274
C87   C     C_R   0.031283 0.656307 0.353383 0.539347
C88   C     C_R   0.968719 0.656301 0.646619 0.539271
C89   C     C_R   0.727018 0.023411 0.361315 0.566939
C90   C     C_R   0.272984 0.023413 0.638687 0.566956
C91   C     C_R   0.227018 0.523410 0.361315 0.566939
C92   C     C_R   0.772984 0.523413 0.638687 0.566956
C93   C     C_R   0.502063 0.162108 0.924876 -0.012272
C94   C     C_R   0.498309 0.161574 0.074899 -0.012073
C95   C     C_R   0.002065 0.662113 0.924877 -0.012277
C96   C     C_R   0.998305 0.661580 0.074900 -0.012079
C97   C     C_R   0.503003 0.274571 0.962488 0.014495
C98   C     C_R   0.496469 0.274229 0.037576 0.014007
C99   C     C_R   0.003001 0.774578 0.962488 0.014520
C100  C     C_R   0.996468 0.774236 0.037577 0.014031
C101  C     C_R   0.493706 0.050877 0.036178 0.012012
C102  C     C_R   0.507732 0.051346 0.963268 0.011363
C103  C     C_R   0.993699 0.550885 0.036177 0.012006
C104  C     C_R   0.007736 0.551354 0.963270 0.011357
Cr1   Cr    Cr6+3 0.772000 0.169640 0.250110 0.993176
Cr2   Cr    Cr6+3 0.228000 0.169640 0.749890 0.993093
Cr3   Cr    Cr6+3 0.272000 0.669640 0.250110 0.993181
Cr4   Cr    Cr6+3 0.728000 0.669640 0.749890 0.993099
Cr5   Cr    Cr6+3 0.614960 0.323350 0.249260 0.994233
Cr6   Cr    Cr6+3 0.385040 0.323350 0.750740 0.994278
Cr7   Cr    Cr6+3 0.114960 0.823350 0.249260 0.994215
Cr8   Cr    Cr6+3 0.885040 0.823350 0.750740 0.994261
Cr9   Cr    Cr6+3 0.616670 0.010620 0.250840 0.983021
Cr10  Cr    Cr6+3 0.383330 0.010620 0.749160 0.982994
Cr11  Cr    Cr6+3 0.116670 0.510620 0.250840 0.983035
Cr12  Cr    Cr6+3 0.883330 0.510620 0.749160 0.983010
H1    H     H_    0.816996 0.123825 0.451323 0.117646
H2    H     H_    0.183018 0.123863 0.548686 0.117659
H3    H     H_    0.316999 0.623819 0.451323 0.117646
H4    H     H_    0.683016 0.623858 0.548687 0.117659
H5    H     H_    0.660607 0.821244 0.566082 0.109591
H6    H     H_    0.339378 0.821196 0.433918 0.109604
H7    H     H_    0.160607 0.321248 0.566084 0.109592
H8    H     H_    0.839379 0.321201 0.433916 0.109604
H9    H     H_    0.640228 0.881237 0.442791 0.128576
H10   H     H_    0.359757 0.881189 0.557210 0.128561
H11   H     H_    0.140229 0.381238 0.442791 0.128573
H12   H     H_    0.859759 0.381193 0.557209 0.128561
H13   H     H_    0.525201 0.392377 0.871486 0.127826
H14   H     H_    0.473348 0.390719 0.128921 0.127911
H15   H     H_    0.025192 0.892387 0.871486 0.127827
H16   H     H_    0.973354 0.890728 0.128923 0.127914
H17   H     H_    0.011850 0.083683 0.936240 0.092769
H18   H     H_    0.984770 0.082850 0.064621 0.093300
H19   H     H_    0.511863 0.583674 0.936240 0.092768
H20   H     H_    0.484765 0.582842 0.064619 0.093303
H21   H     H_    0.662973 0.806927 0.070112 0.108507
H22   H     H_    0.339643 0.811576 0.930636 0.109215
H23   H     H_    0.163100 0.306708 0.070149 0.108507
H24   H     H_    0.839524 0.311354 0.930602 0.109198
H25   H     H_    0.670297 0.777097 0.941189 0.115459
H26   H     H_    0.332302 0.782710 0.059692 0.113176
H27   H     H_    0.170413 0.276841 0.941230 0.115582
H28   H     H_    0.832196 0.282451 0.059653 0.113282
H29   H     H_    0.835555 0.049611 0.930006 0.129133
H30   H     H_    0.161068 0.044231 0.068743 0.130745
H31   H     H_    0.335368 0.549896 0.929936 0.129041
H32   H     H_    0.661265 0.544555 0.068820 0.130637
H33   H     H_    0.834782 0.067486 0.055834 0.128864
H34   H     H_    0.161874 0.060370 0.943024 0.128667
H35   H     H_    0.334596 0.567861 0.055771 0.128867
H36   H     H_    0.662057 0.560770 0.943093 0.128657
H37   H     H_    0.490729 0.356813 0.564259 0.127483
H38   H     H_    0.509305 0.356818 0.435771 0.127488
H39   H     H_    0.990727 0.856815 0.564259 0.127483
H40   H     H_    0.009303 0.856819 0.435770 0.127487
O1    O     O_R   0.787540 0.042690 0.170470 -0.528583
O2    O     O_R   0.212460 0.042690 0.829530 -0.528685
O3    O     O_R   0.287540 0.542690 0.170470 -0.528574
O4    O     O_R   0.712460 0.542690 0.829530 -0.528676
O5    O     O_R   0.556540 0.252920 0.323970 -0.506570
O6    O     O_R   0.443460 0.252920 0.676030 -0.506641
O7    O     O_R   0.056540 0.752920 0.323970 -0.506568
O8    O     O_R   0.943460 0.752920 0.676030 -0.506641
O9    O     O_R   0.545870 0.051100 0.330840 -0.537143
O10   O     O_R   0.454130 0.051100 0.669160 -0.537200
O11   O     O_R   0.045870 0.551100 0.330840 -0.537142
O12   O     O_R   0.954130 0.551100 0.669160 -0.537200
O13   O     O_R   0.681340 0.959300 0.325510 -0.522886
O14   O     O_R   0.318660 0.959300 0.674490 -0.522945
O15   O     O_R   0.181340 0.459300 0.325510 -0.522883
O16   O     O_R   0.818660 0.459300 0.674490 -0.522941
O17   O     O_3   0.667880 0.167870 0.250070 -0.251171
O18   O     O_3   0.332120 0.167870 0.749930 -0.251071
O19   O     O_3   0.167880 0.667870 0.250070 -0.251176
O20   O     O_3   0.832120 0.667870 0.749930 -0.251077
O21   O     O_R   0.765660 0.292160 0.175050 -0.509004
O22   O     O_R   0.234340 0.292160 0.824950 -0.509197
O23   O     O_R   0.265660 0.792160 0.175050 -0.508999
O24   O     O_R   0.734340 0.792160 0.824950 -0.509189
O25   O     O_R   0.670190 0.408980 0.168550 -0.524101
O26   O     O_R   0.329810 0.408980 0.831450 -0.523343
O27   O     O_R   0.170190 0.908980 0.168550 -0.524148
O28   O     O_R   0.829810 0.908980 0.831450 -0.523385
O29   O     O_R   0.556580 0.251450 0.175160 -0.501330
O30   O     O_R   0.443420 0.251450 0.824840 -0.501448
O31   O     O_R   0.056580 0.751450 0.175160 -0.501339
O32   O     O_R   0.943420 0.751450 0.824840 -0.501455
O33   O     O_R   0.545920 0.049510 0.170320 -0.519581
O34   O     O_R   0.454080 0.049510 0.829680 -0.519325
O35   O     O_R   0.045920 0.549510 0.170320 -0.519566
O36   O     O_R   0.954080 0.549510 0.829680 -0.519309
O37   O     O_R   0.681390 0.957840 0.176710 -0.498696
O38   O     O_R   0.318610 0.957840 0.823290 -0.498754
O39   O     O_R   0.181390 0.457840 0.176710 -0.498682
O40   O     O_R   0.818610 0.457840 0.823290 -0.498738
O41   O     O_R   0.787500 0.044280 0.330990 -0.521899
O42   O     O_R   0.212500 0.044280 0.669010 -0.521971
O43   O     O_R   0.287500 0.544280 0.330990 -0.521896
O44   O     O_R   0.712500 0.544280 0.669010 -0.521967
O45   O     O_R   0.765610 0.293630 0.323860 -0.525813
O46   O     O_R   0.234390 0.293630 0.676140 -0.525854
O47   O     O_R   0.265610 0.793630 0.323860 -0.525810
O48   O     O_R   0.734390 0.793630 0.676140 -0.525852
O49   O     O_R   0.670140 0.410570 0.329080 -0.529794
O50   O     O_R   0.329860 0.410570 0.670920 -0.529863
O51   O     O_R   0.170140 0.910570 0.329080 -0.529789
O52   O     O_R   0.829860 0.910570 0.670920 -0.529859
C105  C     C_3   0.473583 0.931138 0.071552 -0.364940
H41   H     H_    0.442263 0.873711 0.034811 0.106345
H42   H     H_    0.521578 0.878849 0.086644 0.145381
H43   H     H_    0.439753 0.947249 0.118899 0.143221
C106  C     C_3   0.528857 0.932530 0.927438 -0.365165
H44   H     H_    0.481328 0.878868 0.912499 0.144377
H45   H     H_    0.562182 0.950019 0.879894 0.143082
H46   H     H_    0.560972 0.875872 0.963860 0.108518
C107  C     C_3   0.973562 0.431150 0.071547 -0.364941
H47   H     H_    0.942204 0.373765 0.034815 0.106422
H48   H     H_    0.021550 0.378823 0.086613 0.145362
H49   H     H_    0.939758 0.447270 0.118914 0.143236
C108  C     C_3   0.028876 0.432540 0.927445 -0.365167
H50   H     H_    0.981353 0.378838 0.912536 0.144353
H51   H     H_    0.062170 0.450034 0.879880 0.143097
H52   H     H_    0.061031 0.375930 0.963858 0.108598
C109  C     C_3   0.847522 0.109157 0.588165 -0.263745
C110  C     C_3   0.816419 0.181840 0.650074 -0.393909
H53   H     H_    0.774021 0.243194 0.630474 0.172309
H54   H     H_    0.793372 0.122141 0.691530 0.165180
H55   H     H_    0.858949 0.236707 0.675134 0.147537
H56   H     H_    0.892174 0.051033 0.605688 0.169997
H57   H     H_    0.872993 0.175250 0.551562 0.099132
C111  C     C_3   0.152485 0.109180 0.411845 -0.263789
C112  C     C_3   0.183586 0.181846 0.349936 -0.393849
H58   H     H_    0.225991 0.243187 0.369534 0.172318
H59   H     H_    0.206623 0.122135 0.308474 0.165278
H60   H     H_    0.141058 0.236726 0.324884 0.147572
H61   H     H_    0.107832 0.051061 0.394321 0.169998
H62   H     H_    0.127017 0.175284 0.448450 0.099146
C113  C     C_3   0.347522 0.609156 0.588165 -0.263744
C114  C     C_3   0.316419 0.681839 0.650075 -0.393912
H63   H     H_    0.274021 0.743193 0.630474 0.172308
H64   H     H_    0.293371 0.622140 0.691530 0.165175
H65   H     H_    0.358948 0.736706 0.675135 0.147535
H66   H     H_    0.392174 0.551033 0.605689 0.169998
H67   H     H_    0.372993 0.675250 0.551563 0.099132
C115  C     C_3   0.652484 0.609179 0.411845 -0.263788
C116  C     C_3   0.683585 0.681846 0.349937 -0.393852
H68   H     H_    0.725990 0.743188 0.369535 0.172318
H69   H     H_    0.706623 0.622136 0.308475 0.165273
H70   H     H_    0.641057 0.736726 0.324885 0.147570
H71   H     H_    0.607831 0.551060 0.394320 0.169998
H72   H     H_    0.627016 0.675282 0.448451 0.099146
C117  C     C_3   0.476462 0.928352 0.426292 -0.367023
H73   H     H_    0.438791 0.945302 0.382119 0.145754
H74   H     H_    0.524237 0.881186 0.406147 0.142409
H75   H     H_    0.450797 0.863390 0.463080 0.094983
C118  C     C_3   0.523515 0.928332 0.573688 -0.367041
H76   H     H_    0.475728 0.881185 0.593808 0.142399
H77   H     H_    0.549188 0.863371 0.536899 0.094975
H78   H     H_    0.561169 0.945253 0.617881 0.145724
C119  C     C_3   0.976467 0.428352 0.426294 -0.367021
H79   H     H_    0.938804 0.445297 0.382113 0.145761
H80   H     H_    0.024245 0.381181 0.406160 0.142395
H81   H     H_    0.950794 0.363398 0.463081 0.094986
C120  C     C_3   0.023519 0.428337 0.573689 -0.367039
H82   H     H_    0.975733 0.381183 0.593805 0.142393
H83   H     H_    0.049197 0.363381 0.536900 0.094976
H84   H     H_    0.061171 0.445261 0.617884 0.145725

loop_
_geom_bond_atom_site_label_1
_geom_bond_atom_site_label_2
_ccdc_geom_bond_type
C58   C62   A    
C87   O7    A    
C62   C83   S    
C60   C115  S    
C101  C102  A    
C56   C76   A    
C48   C95   S    
C55   C59   A    
C85   O5    A    
C14   C18   A    
C59   C113  S    
C113  C114  S    
C86   O10   A    
C58   C111  S    
C6    H14   S    
C45   O29   A    
C68   H8    S    
C3    O27   A    
C97   C98   A    
Cr6   O6    S    
Cr8   O28   S    
C71   C75   A    
C115  H72   S    
C106  H44   S    
C95   C104  A    
C107  H49   S    
C15   C19   A    
C41   C86   S    
C106  H46   S    
C51   H39   S    
C109  H57   S    
Cr8   O32   S    
C7    C99   A    
C72   H12   S    
Cr7   O19   S    
C43   C88   S    
C64   C68   A    
C49   H37   S    
C46   O34   A    
C48   O32   A    
C108  H52   S    
C79   O3    A    
C117  H73   S    
C95   C99   A    
C80   O4    A    
Cr10  O34   S    
C94   C98   A    
C29   C33   A    
C57   C61   A    
C105  H43   S    
C79   O39   A    
Cr4   O24   S    
C17   H25   S    
C118  H76   S    
C2    O26   A    
C81   O49   A    
C15   C35   A    
C37   C42   A    
C26   H30   S    
C77   O37   A    
Cr10  O14   S    
C111  C112  S    
Cr11  O19   S    
C103  C104  A    
C54   C74   A    
C1    O21   A    
Cr3   O23   S    
C78   O2    A    
C40   C43   A    
Cr1   O1    S    
C20   C24   A    
C94   C101  A    
C88   O12   A    
C8    H16   S    
C83   O51   A    
C47   C96   S    
C66   H6    S    
C69   C73   A    
C113  H66   S    
C86   O6    A    
C23   C27   A    
C44   C87   S    
C24   C28   A    
C9    C10   A    
C67   C71   A    
C72   C76   A    
Cr2   O42   S    
C110  H54   S    
Cr11  O35   S    
C40   C120  S    
C70   H10   S    
Cr1   O41   S    
Cr12  O36   S    
C69   H9    S    
Cr1   O17   S    
C111  H62   S    
C114  H64   S    
C56   H4    S    
C71   H11   S    
Cr3   O47   S    
C16   H24   S    
C4    O24   A    
Cr8   O8    S    
C45   C94   S    
C6    C12   A    
C41   C49   A    
C112  H60   S    
Cr10  O10   S    
C15   H23   S    
C115  H71   S    
C116  H69   S    
C25   C29   A    
C80   O40   A    
C87   O11   A    
C28   H32   S    
C110  H53   S    
C30   C34   A    
C63   C82   S    
C27   C31   A    
C51   C52   A    
C6    C98   A    
C14   H22   S    
C18   H26   S    
C62   C66   A    
Cr7   O7    S    
C9    H17   S    
Cr8   O52   S    
C38   C41   A    
C83   O47   A    
C39   C119  S    
C112  H58   S    
C55   C75   A    
C39   C40   A    
C82   O46   A    
C1    O25   A    
C117  H74   S    
C81   O45   A    
C89   O13   A    
C101  C105  S    
C107  H47   S    
Cr2   O2    S    
C103  C107  S    
C114  H65   S    
C4    O28   A    
C3    O23   A    
C68   C72   A    
C118  H77   S    
C13   H21   S    
Cr4   O44   S    
C19   C23   A    
C73   C89   S    
C63   C67   A    
C70   C74   A    
C37   C38   A    
C11   H19   S    
Cr2   O46   S    
C108  H50   S    
C31   H35   S    
C84   O52   A    
C102  C106  S    
Cr1   O45   S    
C99   C100  A    
C32   H36   S    
C28   C32   A    
C16   C20   A    
Cr3   O3    S    
C90   O14   A    
Cr7   O27   S    
C105  H41   S    
Cr2   O18   S    
Cr9   O17   S    
C78   O38   A    
Cr6   O50   S    
C42   C85   S    
C46   O30   A    
Cr5   O49   S    
C120  H83   S    
C76   C92   S    
C90   O42   A    
C113  H67   S    
Cr12  O20   S    
Cr11  O15   S    
Cr8   O20   S    
C42   C50   A    
C20   H28   S    
C65   H5    S    
C91   O15   A    
C54   H2    S    
C36   C80   S    
C111  H61   S    
C54   C58   A    
C49   C50   A    
C31   C35   A    
C59   C63   A    
C35   C79   S    
C52   H40   S    
Cr11  O11   S    
C38   C118  S    
Cr7   O51   S    
C104  C108  S    
C82   O50   A    
Cr9   O33   S    
Cr12  O16   S    
C119  H80   S    
C12   H20   S    
C120  H82   S    
C116  H70   S    
Cr5   O25   S    
C91   O43   A    
C7    C9    A    
C21   C25   A    
C115  C116  S    
Cr6   O30   S    
C53   C57   A    
Cr10  O38   S    
C109  C110  S    
C18   C22   A    
C93   C102  A    
Cr9   O37   S    
C8    C10   A    
C53   C73   A    
C10   H18   S    
Cr9   O9    S    
Cr1   O21   S    
C61   C84   S    
C67   H7    S    
C44   C52   A    
C14   C34   A    
C119  H81   S    
Cr9   O13   S    
C116  H68   S    
C32   C36   A    
C47   O35   A    
C5    C11   A    
C39   C44   A    
Cr4   O4    S    
C37   C117  S    
C75   C91   S    
C107  H48   S    
C110  H55   S    
C89   O41   A    
C96   C100  A    
Cr7   O31   S    
C109  H56   S    
C13   C17   A    
C33   C77   S    
C60   C64   A    
C118  H78   S    
C85   O9    A    
C55   H3    S    
C74   C90   S    
C117  H75   S    
C8    C100  A    
C106  H45   S    
C57   C109  S    
C7    H15   S    
C108  H51   S    
C88   O8    A    
C1    C24   S    
C34   C78   S    
Cr3   O43   S    
C4    C21   S    
C43   C51   A    
C66   C70   A    
C46   C93   S    
Cr3   O19   S    
C50   H38   S    
C53   H1    S    
C65   C69   A    
Cr4   O20   S    
C5    H13   S    
C114  H63   S    
C105  H42   S    
C93   C97   A    
C5    C97   A    
Cr5   O17   S    
Cr6   O18   S    
C61   C65   A    
Cr11  O39   S    
Cr4   O48   S    
C120  H84   S    
C19   H27   S    
C64   C81   S    
C48   O36   A    
C30   H34   S    
C29   H33   S    
Cr12  O40   S    
C56   C60   A    
Cr5   O29   S    
Cr10  O18   S    
Cr6   O26   S    
C92   O16   A    
C27   H31   S    
C13   C33   A    
C22   C26   A    
C96   C103  A    
C112  H59   S    
C2    C23   S    
C119  H79   S    
C45   O33   A    
C25   H29   S    
Cr12  O12   S    
C3    C22   S    
Cr5   O5    S    
C2    O22   A    
C84   O48   A    
C92   O44   A    
C47   O31   A    
Cr2   O22   S    
C16   C36   A    
C11   C12   A    
C77   O1    A    
C26   C30   A    
C17   C21   A    
