data_mof_unit_67417.cif
_audit_creation_date              2012-12-10T16:41:43-0500
_audit_creation_method            fapswitch 2.2
_symmetry_space_group_name_H-M    P1
_symmetry_Int_Tables_number       1
_space_group_crystal_system       triclinic
_cell_length_a                    12.030338
_cell_length_b                    12.578686
_cell_length_c                    7.525694
_cell_angle_alpha                 90.001253
_cell_angle_beta                  107.993539
_cell_angle_gamma                 90.00084
_cell_volume                      1083.13326916

loop_
_atom_site_label
_atom_site_type_symbol
_atom_type_description
_atom_site_fract_x
_atom_site_fract_y
_atom_site_fract_z
_atom_type_partial_charge
Br1   Br    Br    0.611911 0.679636 0.226838 -0.331927
Br2   Br    Br    0.388089 0.320363 0.773162 -0.331927
Br3   Br    Br    0.388251 0.679414 0.772978 -0.331934
Br4   Br    Br    0.611749 0.320586 0.227022 -0.331934
Br5   Br    Br    0.111911 0.179637 0.226838 -0.331927
Br6   Br    Br    0.888089 0.820363 0.773162 -0.331927
Br7   Br    Br    0.888251 0.179413 0.772978 -0.331934
Br8   Br    Br    0.111749 0.820586 0.227022 -0.331934
C1    C     C_R   0.346548 0.853993 0.454049 0.846501
C2    C     C_2   0.750881 0.785323 0.567486 0.025336
C3    C     C_2   0.750890 0.214656 0.567461 0.025231
C4    C     C_2   0.249110 0.785344 0.432539 0.025232
C5    C     C_2   0.749119 0.714677 0.432514 0.025336
C6    C     C_2   0.250881 0.285323 0.567486 0.025336
C7    C     C_2   0.250890 0.714656 0.567461 0.025231
C8    C     C_2   0.749110 0.285344 0.432539 0.025232
C9    C     C_R   0.653451 0.146006 0.545951 0.846500
C10   C     C_R   0.653472 0.854016 0.545967 0.846543
C11   C     C_R   0.346528 0.145984 0.454033 0.846544
C12   C     C_R   0.846548 0.353994 0.454049 0.846501
C13   C     C_R   0.153451 0.646006 0.545951 0.846500
C14   C     C_R   0.153472 0.354016 0.545967 0.846543
C15   C     C_R   0.846528 0.645984 0.454033 0.846544
C16   C     C_2   0.249119 0.214677 0.432514 0.025336
Cu1   Cu    Cu3+1 0.517640 0.000000 0.687200 1.132875
Cu2   Cu    Cu3+1 0.482360 0.000000 0.312800 1.132875
Cu3   Cu    Cu3+1 0.017640 0.500000 0.687200 1.132875
Cu4   Cu    Cu3+1 0.982360 0.500000 0.312800 1.132874
I1    I     I_    0.281393 0.000016 0.866788 0.010943
I2    I     I_    0.718607 0.999984 0.133211 0.010944
I3    I     I_    0.781393 0.500016 0.866788 0.010944
I4    I     I_    0.218607 0.499984 0.133211 0.010944
N1    N     N_2   0.455760 0.000000 0.031460 0.013105
N2    N     N_2   0.544240 0.000000 0.968540 0.013105
N3    N     N_2   0.955760 0.500000 0.031460 0.013105
N4    N     N_2   0.044240 0.500000 0.968540 0.013105
O1    O     O_R   0.398880 0.887420 0.621600 -0.576657
O2    O     O_R   0.630920 0.112580 0.694560 -0.541709
O3    O     O_R   0.630920 0.887420 0.694560 -0.541671
O4    O     O_R   0.369080 0.112580 0.305440 -0.541671
O5    O     O_R   0.869080 0.387420 0.305440 -0.541709
O6    O     O_R   0.130920 0.612580 0.694560 -0.541709
O7    O     O_R   0.130920 0.387420 0.694560 -0.541671
O8    O     O_R   0.869080 0.612580 0.305440 -0.541671
O9    O     O_R   0.601120 0.112580 0.378400 -0.576657
O10   O     O_R   0.601120 0.887420 0.378400 -0.576635
O11   O     O_R   0.398880 0.112580 0.621600 -0.576635
O12   O     O_R   0.898880 0.387420 0.621600 -0.576657
O13   O     O_R   0.101120 0.612580 0.378400 -0.576657
O14   O     O_R   0.101120 0.387420 0.378400 -0.576635
O15   O     O_R   0.898880 0.612580 0.621600 -0.576635
O16   O     O_R   0.369080 0.887420 0.305440 -0.541709

loop_
_geom_bond_atom_site_label_1
_geom_bond_atom_site_label_2
_ccdc_geom_bond_type
Cu3   O12   S    
Br6   C2    S    
C10   O3    A    
Br4   C8    S    
Cu2   O16   S    
Cu3   N4    S    
Cu4   O13   S    
Cu1   O11   S    
Cu2   N1    S    
C15   O15   A    
C14   O7    A    
C4    C7    D    
C8    C12   S    
Cu1   N2    S    
Br8   C4    S    
C6    C14   S    
C1    O1    A    
C12   O5    A    
Br3   C7    S    
Cu1   O3    S    
Br7   C3    S    
C1    O16   A    
Cu3   O6    S    
Cu2   O4    S    
C12   O12   A    
Br5   C16   S    
C2    C10   S    
Br2   C6    S    
I4    N4    S    
C13   O13   A    
C9    O9    A    
C11   C16   S    
C11   O11   A    
C9    O2    A    
Cu1   O2    S    
C1    C4    S    
I3    N3    S    
Br1   C5    S    
C11   O4    A    
Cu2   O10   S    
C13   O6    A    
C10   O10   A    
Cu3   O7    S    
Cu4   O5    S    
C7    C13   S    
N1    N2    D    
C5    C15   S    
C3    C8    D    
C6    C16   D    
Cu3   Cu4   S    
Cu4   N3    S    
C14   O14   A    
I2    N2    S    
C3    C9    S    
Cu2   O9    S    
Cu1   O1    S    
Cu1   Cu2   S    
Cu4   O14   S    
Cu4   O8    S    
C15   O8    A    
N3    N4    D    
I1    N1    S    
Cu3   O15   S    
C2    C5    D    
