data_mof_unit_17084.cif
_audit_creation_date              2012-12-10T18:32:52-0500
_audit_creation_method            fapswitch 2.2
_symmetry_space_group_name_H-M    P1
_symmetry_Int_Tables_number       1
_space_group_crystal_system       triclinic
_cell_length_a                    14.915889
_cell_length_b                    15.39539
_cell_length_c                    15.724735
_cell_angle_alpha                 91.031742
_cell_angle_beta                  105.210523
_cell_angle_gamma                 80.815637
_cell_volume                      3438.71454019

loop_
_atom_site_label
_atom_site_type_symbol
_atom_type_description
_atom_site_fract_x
_atom_site_fract_y
_atom_site_fract_z
_atom_type_partial_charge
C1    C     C_R   0.440676 0.662918 0.487962 0.872061
C2    C     C_3   0.397765 0.511776 0.019654 0.246252
C3    C     C_3   0.502220 0.483886 0.082959 0.178599
C4    C     C_3   0.552369 0.387713 0.062583 0.209425
C5    C     C_3   0.547829 0.388108 0.959761 -0.082847
C6    C     C_1   0.498397 0.488853 0.174090 -0.133072
C7    C     C_1   0.512643 0.489567 0.828066 -0.074498
C8    C     C_1   0.508138 0.494436 0.751916 -0.220149
C9    C     C_R   0.402999 0.757014 0.488108 -0.101629
C10   C     C_R   0.597548 0.243868 0.540610 -0.097234
C11   C     C_R   0.273112 0.878984 0.466941 0.096578
C12   C     C_R   0.502000 0.499404 0.661887 0.901515
C13   C     C_R   0.306618 0.788539 0.465643 -0.246342
C14   C     C_R   0.465855 0.815585 0.514866 -0.218983
C15   C     C_R   0.435576 0.904108 0.528039 0.058165
C16   C     C_R   0.337772 0.939308 0.497964 0.096196
C17   C     C_R   0.503153 0.959085 0.563481 0.041625
C18   C     C_R   0.478293 0.049234 0.542967 -0.002803
C19   C     C_R   0.381954 0.085379 0.515404 -0.245568
C20   C     C_R   0.310506 0.032592 0.499073 0.079827
C21   C     C_R   0.593899 0.927361 0.619643 0.030315
C22   C     C_R   0.663413 0.982276 0.640520 0.033791
C23   C     C_R   0.559788 0.337152 0.515812 0.854670
C24   C     C_R   0.642233 0.068933 0.606580 0.115081
C25   C     C_R   0.550207 0.101748 0.555941 0.056003
C26   C     C_R   0.710720 0.124533 0.624993 -0.211123
C27   C     C_R   0.688962 0.212859 0.595797 0.082456
C28   C     C_R   0.532559 0.185838 0.517622 -0.272986
C29   C     C_R   0.851950 0.626503 0.637278 -0.336676
C30   C     C_R   0.773168 0.585904 0.628860 0.276613
C31   C     C_R   0.780892 0.537415 0.486936 -0.088953
C32   C     C_R   0.872552 0.559690 0.502092 -0.034464
C33   C     C_R   0.901335 0.616178 0.572736 0.097482
C34   C     C_R   0.498597 0.499180 0.338209 0.914296
C35   C     C_R   0.939300 0.521645 0.456070 0.088153
C36   C     C_R   0.032958 0.541318 0.482674 0.055628
C37   C     C_R   0.051296 0.611057 0.540436 -0.274417
C38   C     C_R   0.985512 0.650973 0.583629 0.113870
C39   C     C_R   0.918487 0.458769 0.390346 -0.248969
C40   C     C_R   0.988448 0.412656 0.356060 -0.217257
C41   C     C_R   0.081692 0.425874 0.387462 0.167666
C42   C     C_R   0.105548 0.490140 0.451251 0.002936
C43   C     C_R   0.151599 0.374814 0.355788 -0.378632
C44   C     C_R   0.245146 0.386958 0.387851 0.270497
C45   C     C_3   0.409915 0.512647 0.923376 -0.501286
C46   C     C_R   0.202061 0.498164 0.482817 -0.112516
C47   C     C_3   0.578947 0.549156 0.975048 0.249994
C48   C     C_3   0.566054 0.551714 0.070252 -0.509578
C49   C     C_1   0.497100 0.493864 0.249049 -0.214965
C50   C     C_3   0.514486 0.484884 0.920428 0.194187
H1    H     H_    0.366069 0.470587 0.878643 0.159889
H2    H     H_    0.466516 0.207787 0.469733 0.165482
H3    H     H_    0.256790 0.743429 0.443817 0.155826
H4    H     H_    0.539820 0.791893 0.523007 0.185263
H5    H     H_    0.383168 0.578655 0.890927 0.189872
H6    H     H_    0.362445 0.155751 0.512121 0.150486
H7    H     H_    0.781034 0.100220 0.665099 0.165077
H8    H     H_    0.226848 0.544578 0.531900 0.136745
H9    H     H_    0.969925 0.363920 0.306657 0.148160
H10   H     H_    0.882614 0.652776 0.700494 0.149992
H11   H     H_    0.749654 0.504013 0.428727 0.146751
H12   H     H_    0.117221 0.635475 0.553847 0.138290
H13   H     H_    0.849083 0.441950 0.365581 0.137553
H14   H     H_    0.133889 0.326186 0.306031 0.146465
H15   H     H_    0.539628 0.619186 0.087656 0.159753
H16   H     H_    0.635563 0.538651 0.119576 0.173942
H17   H     H_    0.488579 0.353450 0.926893 0.144240
N1    N     N_R   0.731690 0.552720 0.548990 -0.113549
N2    N     N_R   0.268300 0.447240 0.450950 -0.092271
O1    O     O_R   0.383120 0.605620 0.475300 -0.617383
O2    O     O_R   0.531890 0.639510 0.506740 -0.611840
O3    O     O_R   0.425580 0.483050 0.607130 -0.606406
O4    O     O_R   0.574360 0.516930 0.638570 -0.638507
O5    O     O_R   0.468110 0.360490 0.493260 -0.590167
O6    O     O_R   0.616880 0.394380 0.524700 -0.621881
O7    O     O_R   0.425640 0.483070 0.361430 -0.596220
O8    O     O_R   0.574420 0.516950 0.392870 -0.621996
Zn1   Zn    Zn3+2 0.400660 0.477370 0.479010 0.949695
Zn2   Zn    Zn3+2 0.599340 0.522630 0.520990 0.917570
C51   C     C_3   0.353333 0.608588 0.038392 -0.419718
C52   C     C_3   0.251297 0.640212 0.981693 -0.360905
C53   C     C_3   0.232289 0.739368 0.962692 -0.902280
H18   H     H_    0.245315 0.775536 0.025388 0.265424
H19   H     H_    0.278430 0.756955 0.922732 0.257150
H20   H     H_    0.157798 0.759634 0.925011 0.250379
H21   H     H_    0.236541 0.606193 0.917852 0.226319
H22   H     H_    0.199968 0.625467 0.017214 0.212857
H23   H     H_    0.353031 0.614098 0.108886 0.191925
H24   H     H_    0.396491 0.656638 0.026717 0.204846
C54   C     C_3   0.328018 0.448954 0.036706 -0.344935
C55   C     C_3   0.288504 0.386622 0.963627 -0.367512
C56   C     C_3   0.230807 0.326538 0.995030 -0.903986
H25   H     H_    0.275691 0.284467 0.051842 0.263573
H26   H     H_    0.170937 0.366200 0.014944 0.256818
H27   H     H_    0.202328 0.283270 0.940714 0.252414
H28   H     H_    0.241422 0.425873 0.905761 0.213315
H29   H     H_    0.345955 0.344225 0.943106 0.230294
H30   H     H_    0.359195 0.410295 0.098922 0.209109
H31   H     H_    0.265639 0.487460 0.052910 0.185507
C57   C     C_3   0.656090 0.366905 0.125971 -0.396223
C58   C     C_3   0.698952 0.268805 0.145257 -0.376446
C59   C     C_3   0.802709 0.258458 0.195819 -0.913929
H32   H     H_    0.843775 0.285561 0.155984 0.258975
H33   H     H_    0.810860 0.293268 0.259242 0.258462
H34   H     H_    0.831362 0.187605 0.210186 0.254000
H35   H     H_    0.661302 0.238574 0.186338 0.218699
H36   H     H_    0.693137 0.231249 0.084021 0.235237
H37   H     H_    0.705100 0.400645 0.101752 0.214730
H38   H     H_    0.657375 0.395002 0.191666 0.199055
C60   C     C_3   0.207303 0.075694 0.481776 -0.387110
C61   C     C_3   0.188799 0.174154 0.502035 -0.383030
C62   C     C_3   0.084257 0.206689 0.491748 -0.871417
H39   H     H_    0.043116 0.198334 0.422991 0.260560
H40   H     H_    0.057814 0.170085 0.537836 0.259989
H41   H     H_    0.073944 0.277624 0.507134 0.262704
H42   H     H_    0.228029 0.185627 0.570784 0.231406
H43   H     H_    0.212005 0.213295 0.455580 0.225618
H44   H     H_    0.171312 0.067747 0.411316 0.219247
H45   H     H_    0.174728 0.041001 0.524355 0.224009
C63   C     C_3   0.764055 0.270331 0.628856 -0.408517
C64   C     C_3   0.816680 0.282733 0.559303 -0.307101
C65   C     C_3   0.896817 0.334727 0.595913 -0.892685
H46   H     H_    0.870036 0.398512 0.621549 0.266028
H47   H     H_    0.951346 0.296520 0.650019 0.256323
H48   H     H_    0.929629 0.347931 0.542868 0.259526
H49   H     H_    0.846685 0.217318 0.538943 0.214233
H50   H     H_    0.768050 0.317858 0.499775 0.235420
H51   H     H_    0.733804 0.334233 0.651588 0.209948
H52   H     H_    0.816482 0.239156 0.688739 0.183495
N3    N     N_3   0.755751 0.950175 0.695771 -0.490241
H53   H     H_    0.785885 0.895649 0.666504 0.184817
H54   H     H_    0.749958 0.930895 0.757222 0.182536
N4    N     N_3   0.174008 0.907605 0.433391 -0.503400
H55   H     H_    0.139138 0.876444 0.470525 0.181164
H56   H     H_    0.153509 0.887339 0.368289 0.185535
N5    N     N_3   0.611600 0.843307 0.663689 -0.477422
H57   H     H_    0.624473 0.853097 0.731435 0.195516
H58   H     H_    0.671137 0.806223 0.650241 0.189396
C66   C     C_3   0.009236 0.728548 0.642149 -0.434290
C67   C     C_3   0.023133 0.805725 0.588911 -0.337162
C68   C     C_3   0.040525 0.885572 0.646262 -0.890867
H59   H     H_    0.978765 0.909413 0.672271 0.263668
H60   H     H_    0.104078 0.868285 0.702261 0.263918
H61   H     H_    0.051910 0.939479 0.606222 0.247406
H62   H     H_    0.084452 0.786115 0.561330 0.212226
H63   H     H_    0.959426 0.824775 0.533347 0.227096
H64   H     H_    0.952804 0.754373 0.674037 0.199321
H65   H     H_    0.074509 0.706689 0.695211 0.199789
N6    N     N_3   0.316206 0.338412 0.352143 -0.402415
H66   H     H_    0.315442 0.271373 0.360708 0.139242
H67   H     H_    0.298103 0.352398 0.284377 0.165182
C69   C     C_3   0.755106 0.558928 0.713970 -0.397943
C70   C     C_3   0.689654 0.629806 0.748856 -0.269263
C71   C     C_3   0.743828 0.690890 0.813062 -0.950437
H68   H     H_    0.795442 0.652249 0.868827 0.260171
H69   H     H_    0.781381 0.729823 0.779308 0.255772
H70   H     H_    0.693927 0.736825 0.840608 0.253441
H71   H     H_    0.637467 0.668429 0.693545 0.243159
H72   H     H_    0.649517 0.597028 0.785101 0.223550
H73   H     H_    0.730145 0.494727 0.706536 0.188183
H74   H     H_    0.823249 0.542303 0.765057 0.171798
N7    N     N_3   0.678275 0.515935 0.979232 -0.485106
H75   H     H_    0.688681 0.517906 0.916219 0.188968
H76   H     H_    0.721102 0.557597 0.017364 0.174977
N8    N     N_3   0.554599 0.638185 0.933830 -0.469363
H77   H     H_    0.487468 0.667880 0.936115 0.171804
H78   H     H_    0.600973 0.678216 0.969636 0.176352
C72   C     C_3   0.634316 0.335910 0.930380 -0.400670
C73   C     C_3   0.616717 0.244625 0.894621 -0.390235
C74   C     C_3   0.701632 0.195295 0.867317 -0.875446
H79   H     H_    0.717478 0.233264 0.815129 0.257635
H80   H     H_    0.764203 0.184378 0.925017 0.258014
H81   H     H_    0.686133 0.130382 0.840861 0.257280
H82   H     H_    0.600831 0.204517 0.945101 0.213730
H83   H     H_    0.555013 0.252575 0.835899 0.227714
H84   H     H_    0.649702 0.371581 0.876673 0.211940
H85   H     H_    0.701178 0.329034 0.982171 0.228072
N9    N     N_3   0.498609 0.320550 0.079563 -0.485272
H86   H     H_    0.506232 0.313282 0.147234 0.184301
H87   H     H_    0.522474 0.259500 0.056393 0.174291

loop_
_geom_bond_atom_site_label_1
_geom_bond_atom_site_label_2
_ccdc_geom_bond_type
C19   H6    S    
C58   H36   S    
C24   C25   A    
C69   H73   S    
N8    H77   S    
O1    Zn1   S    
C11   C13   A    
C41   C42   A    
C31   H11   S    
C36   C42   A    
C61   C62   S    
C5    H17   S    
C3    C6    S    
C60   H44   S    
O2    Zn2   S    
C37   H12   S    
C7    C8    T    
C27   C63   S    
C25   C28   A    
C66   H64   S    
C26   C27   A    
C1    O2    A    
O7    Zn1   S    
C21   C22   A    
C36   C37   A    
C24   C26   A    
C64   H50   S    
N6    H67   S    
C34   O8    A    
C42   C46   A    
C47   N8    S    
C74   H79   S    
C45   H1    S    
C15   C16   A    
C29   C33   A    
C3    C48   S    
C70   H71   S    
C59   H34   S    
C72   H84   S    
C18   C19   A    
C73   C74   S    
C5    C72   S    
C51   H24   S    
C2    C54   S    
C9    C13   A    
C60   C61   S    
C56   H25   S    
C46   N2    A    
O3    Zn1   S    
C55   H28   S    
C47   N7    S    
C35   C36   A    
C47   C48   S    
C38   C66   S    
C61   H42   S    
C48   H15   S    
C29   C30   A    
C21   N5    S    
C71   H69   S    
C69   H74   S    
C10   C27   A    
C16   C20   A    
N1    Zn2   S    
C12   O3    A    
C60   H45   S    
C57   H38   S    
N8    H78   S    
C40   H9    S    
C12   O4    A    
C22   N3    S    
C41   C43   A    
N2    Zn1   S    
C18   C25   A    
C62   H40   S    
C62   H39   S    
C43   H14   S    
C52   C53   S    
C47   C50   S    
C13   H3    S    
O8    Zn2   S    
C2    C45   S    
C73   H83   S    
C31   N1    A    
C66   H65   S    
C57   H37   S    
C64   C65   S    
C63   H52   S    
C58   C59   S    
N9    H86   S    
C1    C9    S    
C67   C68   S    
C71   H70   S    
N5    H58   S    
C68   H61   S    
C67   H63   S    
C55   C56   S    
C51   C52   S    
C56   H27   S    
C17   C21   A    
C70   H72   S    
C73   H82   S    
C35   C39   A    
C9    C14   A    
C32   C35   A    
C37   C38   A    
C44   N6    S    
C11   C16   A    
C30   C69   S    
C31   C32   A    
C29   H10   S    
C8    C12   S    
C56   H26   S    
C17   C18   A    
O4    Zn2   S    
C44   N2    A    
C55   H29   S    
C59   H33   S    
C71   H68   S    
C52   H22   S    
C20   C60   S    
C40   C41   A    
C14   H4    S    
C53   H19   S    
C4    C57   S    
C43   C44   A    
N4    H55   S    
C22   C24   A    
C5    C50   S    
C23   O5    A    
C65   H47   S    
C3    C4    S    
C54   H31   S    
C39   C40   A    
C23   O6    A    
C63   C64   S    
N7    H75   S    
C10   C28   A    
C58   H35   S    
C15   C17   A    
C72   C73   S    
C34   C49   S    
C52   H21   S    
C7    C50   S    
C4    N9    S    
N5    H57   S    
C67   H62   S    
N9    H87   S    
C66   C67   S    
C63   H51   S    
C10   C23   S    
C53   H20   S    
C39   H13   S    
C1    O1    A    
C61   H43   S    
N3    H54   S    
C32   C33   A    
C19   C20   A    
C68   H60   S    
N3    H53   S    
C70   C71   S    
C64   H49   S    
C51   H23   S    
N7    H76   S    
C68   H59   S    
C28   H2    S    
C54   C55   S    
C74   H80   S    
C45   C50   S    
C65   H48   S    
C11   N4    S    
C57   C58   S    
C2    C3    S    
C6    C49   T    
C59   H32   S    
C26   H7    S    
C30   N1    A    
C2    C51   S    
C4    C5    S    
C69   C70   S    
C45   H5    S    
C53   H18   S    
O5    Zn1   S    
N4    H56   S    
C14   C15   A    
C33   C38   A    
C48   H16   S    
C65   H46   S    
N6    H66   S    
O6    Zn2   S    
C54   H30   S    
C62   H41   S    
C46   H8    S    
C72   H85   S    
C34   O7    A    
C74   H81   S    
