data_mof_unit_16664.cif
_audit_creation_date              2012-12-10T17:42:10-0500
_audit_creation_method            fapswitch 2.2
_symmetry_space_group_name_H-M    P1
_symmetry_Int_Tables_number       1
_space_group_crystal_system       triclinic
_cell_length_a                    15.077
_cell_length_b                    13.735082
_cell_length_c                    10.743901
_cell_angle_alpha                 89.931361
_cell_angle_beta                  89.205221
_cell_angle_gamma                 89.995314
_cell_volume                      2224.67252952

loop_
_atom_site_label
_atom_site_type_symbol
_atom_type_description
_atom_site_fract_x
_atom_site_fract_y
_atom_site_fract_z
_atom_type_partial_charge
C1    C     C_R   0.328520 0.500002 0.501123 0.792930
C2    C     C_3   0.492237 0.606067 0.928992 -0.351190
C3    C     C_R   0.814555 0.588476 0.509697 -0.250509
C4    C     C_R   0.768250 0.499991 0.504991 -0.077294
C5    C     C_R   0.814646 0.411455 0.504657 -0.255601
C6    C     C_R   0.907005 0.410801 0.506504 0.109299
C7    C     C_R   0.953408 0.499938 0.509353 0.063278
C8    C     C_R   0.906929 0.589081 0.511565 0.106287
C9    C     C_R   0.953713 0.322571 0.504616 -0.219007
C10   C     C_R   0.046186 0.322566 0.504419 -0.217553
C11   C     C_R   0.092863 0.410791 0.506116 0.108961
C12   C     C_R   0.499589 0.500167 0.259786 0.790516
C13   C     C_R   0.046394 0.499938 0.509153 0.062887
C14   C     C_R   0.092814 0.589093 0.511097 0.107487
C15   C     C_R   0.046070 0.677287 0.514384 -0.217157
C16   C     C_R   0.953586 0.677279 0.514648 -0.218938
C17   C     C_R   0.185270 0.411432 0.504010 -0.256226
C18   C     C_R   0.231636 0.499989 0.504541 -0.076737
C19   C     C_R   0.185233 0.588501 0.508904 -0.252257
C20   C     C_R   0.442820 0.793574 0.576747 -0.056617
C21   C     C_R   0.443050 0.206299 0.577091 -0.056655
C22   C     C_R   0.557891 0.792838 0.422928 0.311975
C23   C     C_R   0.557368 0.207320 0.422176 0.313112
C24   C     C_R   0.559432 0.896367 0.421257 -0.046783
C25   C     C_R   0.559166 0.103801 0.420866 -0.047261
C26   C     C_R   0.671444 0.500004 0.501111 0.823851
C27   C     C_R   0.500650 0.948171 0.499896 0.074750
C28   C     C_R   0.500627 0.051847 0.499863 0.074581
C29   C     C_R   0.441837 0.896454 0.578556 -0.006544
C30   C     C_R   0.441929 0.103417 0.578700 -0.006463
C31   C     C_R   0.617834 0.949282 0.343266 -0.211210
C32   C     C_R   0.617598 0.051046 0.342922 -0.211589
C33   C     C_R   0.383622 0.051063 0.657111 -0.199823
C34   C     C_R   0.383543 0.948667 0.656990 -0.198793
C35   C     C_R   0.499497 0.500057 0.740015 0.752059
C36   C     C_3   0.419134 0.439324 0.074950 -0.371399
C37   C     C_3   0.587050 0.457020 0.071147 -0.410371
C38   C     C_3   0.415125 0.442204 0.929984 -0.029824
C39   C     C_3   0.583139 0.447045 0.927930 -0.016866
C40   C     C_3   0.490586 0.605815 0.071345 -0.376570
C41   C     C_3   0.498890 0.500381 0.121943 0.080884
C42   C     C_3   0.497936 0.500161 0.877777 0.114315
Cu1   Cu    Cu3+1 0.499990 0.597420 0.500010 0.945857
Cu2   Cu    Cu3+1 0.499990 0.402580 0.500010 0.942664
H1    H     H_    0.357463 0.465663 0.120682 0.175375
H2    H     H_    0.643244 0.504148 0.099387 0.179250
H3    H     H_    0.081193 0.253663 0.502317 0.141077
H4    H     H_    0.220942 0.342895 0.501301 0.154845
H5    H     H_    0.220883 0.657046 0.510116 0.154748
H6    H     H_    0.081035 0.746188 0.516117 0.141175
H7    H     H_    0.918564 0.746171 0.516537 0.140124
H8    H     H_    0.397992 0.752969 0.636892 0.133844
H9    H     H_    0.398414 0.246807 0.637514 0.130812
H10   H     H_    0.664331 0.912853 0.281522 0.133967
H11   H     H_    0.663853 0.087618 0.280851 0.133660
H12   H     H_    0.337952 0.089318 0.718518 0.130800
H13   H     H_    0.337809 0.910302 0.718301 0.131904
H14   H     H_    0.426909 0.362340 0.105557 0.149874
H15   H     H_    0.599095 0.384128 0.112771 0.152903
H16   H     H_    0.424217 0.365433 0.898625 0.106586
H17   H     H_    0.572990 0.367854 0.910342 0.114054
H18   H     H_    0.428265 0.640075 0.106452 0.170419
H19   H     H_    0.546674 0.650977 0.104414 0.171321
H20   H     H_    0.432269 0.643225 0.893659 0.170388
H21   H     H_    0.548110 0.651633 0.895668 0.179250
H22   H     H_    0.778902 0.656989 0.511505 0.153987
H23   H     H_    0.779080 0.342932 0.502396 0.153178
H24   H     H_    0.918739 0.253674 0.502618 0.139633
N1    N     N_R   0.499930 0.743810 0.499950 -0.176709
N2    N     N_R   0.499930 0.256190 0.499950 -0.175810
O1    O     O_R   0.370250 0.582280 0.500040 -0.590054
O2    O     O_R   0.370250 0.417720 0.500040 -0.591173
O3    O     O_R   0.499970 0.582270 0.317700 -0.562740
O4    O     O_R   0.499970 0.417730 0.317700 -0.561420
O5    O     O_R   0.629730 0.582260 0.499980 -0.561608
O6    O     O_R   0.629730 0.417740 0.499980 -0.565690
O7    O     O_R   0.500000 0.582270 0.682320 -0.592335
O8    O     O_R   0.500000 0.417730 0.682320 -0.605637
N3    N     N_3   0.616621 0.737977 0.344160 -0.530204
H25   H     H_    0.605595 0.757912 0.251814 0.177336
H26   H     H_    0.681933 0.755557 0.366536 0.183917
N4    N     N_3   0.614893 0.262359 0.341728 -0.531049
H27   H     H_    0.602090 0.242911 0.249691 0.179788
H28   H     H_    0.680599 0.244771 0.361867 0.182388
C43   C     C_3   0.323026 0.471458 0.874766 -0.360662
C44   C     C_3   0.265398 0.543726 0.948672 -0.829325
H29   H     H_    0.231310 0.506566 0.027691 0.241496
H30   H     H_    0.303837 0.605939 0.984169 0.245659
H31   H     H_    0.212969 0.572840 0.887261 0.238578
H32   H     H_    0.331799 0.500800 0.779214 0.186592
H33   H     H_    0.282812 0.404164 0.863925 0.191365
C45   C     C_3   0.674013 0.466859 0.862026 -0.390030
C46   C     C_3   0.704411 0.572849 0.855267 -0.825021
H34   H     H_    0.667782 0.612498 0.782138 0.251573
H35   H     H_    0.696533 0.609862 0.946428 0.245137
H36   H     H_    0.775749 0.575039 0.828203 0.242064
H37   H     H_    0.725727 0.424536 0.911342 0.202588
H38   H     H_    0.672749 0.437395 0.765824 0.201352

loop_
_geom_bond_atom_site_label_1
_geom_bond_atom_site_label_2
_ccdc_geom_bond_type
Cu1   O3    S    
C46   H34   S    
C23   N4    S    
C12   O4    A    
C27   C29   A    
C16   H7    S    
C5    H23   S    
C2    H21   S    
C6    C9    A    
C43   H33   S    
C45   H38   S    
C7    C8    A    
C43   C44   S    
C25   C28   A    
C1    C18   S    
C1    O1    A    
C40   H19   S    
C22   N3    S    
C38   C42   S    
C36   H14   S    
C5    C6    A    
C44   H30   S    
C15   C16   A    
C40   H18   S    
C18   C19   A    
C15   H6    S    
Cu2   O6    S    
C35   C42   S    
C34   H13   S    
C26   O6    A    
C24   C27   A    
Cu2   N2    S    
C9    C10   A    
C22   N1    A    
C17   H4    S    
C25   C32   A    
C8    C16   A    
C12   O3    A    
C23   N2    A    
C36   C41   S    
C2    H20   S    
C45   H37   S    
C33   C34   A    
C39   C42   S    
C20   C29   A    
Cu1   O5    S    
C39   H17   S    
C1    O2    A    
C38   C43   S    
C3    C8    A    
N3    H26   S    
C44   H29   S    
C29   C34   A    
C35   O7    A    
Cu1   Cu2   S    
C12   C41   S    
C19   H5    S    
C31   C32   A    
C17   C18   A    
C36   H1    S    
Cu2   O4    S    
C37   H15   S    
C38   H16   S    
C40   C41   S    
C46   H36   S    
N4    H28   S    
C22   C24   A    
C20   N1    A    
C3    H22   S    
C3    C4    A    
C39   C45   S    
C10   H3    S    
C11   C17   A    
Cu1   O1    S    
C32   H11   S    
C30   C33   A    
C14   C19   A    
C4    C5    A    
C44   H31   S    
C4    C26   S    
C43   H32   S    
C6    C7    A    
Cu1   O7    S    
C21   C30   A    
C35   O8    A    
C21   N2    A    
C20   H8    S    
C26   O5    A    
Cu2   O8    S    
C24   C31   A    
C37   C39   S    
C36   C38   S    
C21   H9    S    
C11   C13   A    
C33   H12   S    
C46   H35   S    
C2    C42   S    
C28   C30   A    
C45   C46   S    
Cu2   O2    S    
C23   C25   A    
C31   H10   S    
C37   C41   S    
C9    H24   S    
C10   C11   A    
N3    H25   S    
C2    C40   S    
C7    C13   A    
Cu1   N1    S    
N4    H27   S    
C27   C28   A    
C14   C15   A    
C37   H2    S    
C13   C14   A    
