data_mof_unit_10726.cif
_audit_creation_date              2013-03-05T16:46:59-0500
_audit_creation_method            fapswitch 2.2
_symmetry_space_group_name_H-M    P1
_symmetry_Int_Tables_number       1
_space_group_crystal_system       monoclinic
_cell_length_a                    15.011399
_cell_length_b                    8.93547
_cell_length_c                    8.105051
_cell_angle_alpha                 89.99233
_cell_angle_beta                  90.0
_cell_angle_gamma                 90.0
_cell_volume                      1087.16213454

loop_
_atom_site_label
_atom_site_type_symbol
_atom_site_description
_atom_site_fract_x
_atom_site_fract_y
_atom_site_fract_z
_atom_type_partial_charge
O1    O     O_R   0.500000 0.285350 0.636850 -0.614589
O2    O     O_R   0.500000 0.714650 0.363150 -0.614589
O3    O     O_R   0.500000 0.714650 0.636850 -0.617070
O4    O     O_R   0.500000 0.285350 0.363150 -0.617070
H1    H     H_    0.918473 0.385544 0.101523 0.153827
H2    H     H_    0.081527 0.614456 0.898477 0.153827
H3    H     H_    0.918473 0.614456 0.898477 0.153827
H4    H     H_    0.081527 0.385544 0.101523 0.153827
C1    C     C_R   0.500000 0.217989 0.500006 0.940091
C2    C     C_R   0.500000 0.782010 0.499994 0.940091
O5    O     O_R   0.367850 0.500000 0.636890 -0.627305
O6    O     O_R   0.632150 0.500000 0.363110 -0.627305
O7    O     O_R   0.632150 0.500000 0.636890 -0.627305
O8    O     O_R   0.367850 0.500000 0.363110 -0.627305
C3    C     C_R   0.326170 0.500000 0.500000 0.890195
C4    C     C_R   0.673830 0.500000 0.500000 0.890195
Zn1   Zn    Zn3+2 0.500000 0.500000 0.682780 0.985903
Zn2   Zn    Zn3+2 0.500000 0.500000 0.317220 0.985903
N1    N     N_1   0.500000 0.500000 0.073640 -0.038685
N2    N     N_1   0.500000 0.500000 0.926360 -0.038685
C5    C     C_R   0.815144 0.539991 0.643711 -0.258234
C6    C     C_R   0.184856 0.460009 0.356289 -0.258234
C7    C     C_R   0.815144 0.460009 0.356289 -0.258234
C8    C     C_R   0.184856 0.539991 0.643711 -0.258234
C9    C     C_R   0.769522 0.500000 0.500000 -0.069220
C10   C     C_R   0.230478 0.500000 0.500000 -0.069220
C11   C     C_R   0.907310 0.459143 0.355359 0.115620
C12   C     C_R   0.092690 0.540857 0.644641 0.115620
C13   C     C_R   0.907310 0.540857 0.644641 0.115621
C14   C     C_R   0.092690 0.459143 0.355359 0.115621
C15   C     C_R   0.953655 0.500000 0.500000 0.064634
C16   C     C_R   0.046344 0.500000 0.500000 0.064634
C17   C     C_R   0.953720 0.417873 0.212639 -0.221259
C18   C     C_R   0.046280 0.582127 0.787361 -0.221259
C19   C     C_R   0.953720 0.582127 0.787361 -0.221259
C20   C     C_R   0.046280 0.417873 0.212639 -0.221259
C21   C     C_1   0.500000 0.065186 0.500009 -0.191736
C22   C     C_1   0.500000 0.934814 0.499991 -0.191736
H5    H     H_    0.778992 0.571716 0.754212 0.162590
H6    H     H_    0.221008 0.428284 0.245788 0.162590
H7    H     H_    0.778992 0.428284 0.245788 0.162590
H8    H     H_    0.221008 0.571716 0.754212 0.162590

loop_
_geom_bond_atom_site_label_1
_geom_bond_atom_site_label_2
_geom_bond_distance
_ccdc_geom_bond_type
C21   C22   1.164932 T    
C14   C20   1.399839 A    
O2    Zn2   1.953839 S    
C8    H8    1.084924 S    
O8    Zn2   2.018323 S    
O1    Zn1   1.953840 S    
N1    N2    1.193711 T    
C7    H7    1.084924 S    
O7    Zn1   2.018322 S    
C2    C22   1.365372 S    
O4    Zn2   1.953742 S    
Zn1   N2    1.974228 S    
O5    C3    1.273759 A    
C1    C21   1.365372 S    
C12   C18   1.399839 A    
C13   C15   1.411295 A    
O3    C2    1.261938 A    
C11   C17   1.399839 A    
C14   C16   1.411296 A    
H3    C19   1.083762 S    
C8    C10   1.397693 A    
O3    Zn1   1.953742 S    
C7    C11   1.383577 A    
C7    C9    1.397693 A    
H4    C20   1.083762 S    
C11   C15   1.411295 A    
O2    C2    1.261990 A    
O6    C4    1.273760 A    
C12   C16   1.411295 A    
C17   C20   1.389463 A    
O1    C1    1.261990 A    
C8    C12   1.383577 A    
C18   C19   1.389463 A    
C6    C10   1.397693 A    
O7    C4    1.273759 A    
O6    Zn2   2.018322 S    
C4    C9    1.436477 S    
C13   C19   1.399839 A    
C6    H6    1.084924 S    
Zn2   N1    1.974228 S    
C3    C10   1.436477 S    
C5    C9    1.397693 A    
C6    C14   1.383577 A    
O4    C1    1.261938 A    
O8    C3    1.273760 A    
C5    C13   1.383577 A    
C15   C16   1.391393 A    
O5    Zn1   2.018323 S    
H2    C18   1.083763 S    
H1    C17   1.083763 S    
C5    H5    1.084924 S    
