data_mof_unit_67208.cif
_audit_creation_date              2013-03-05T16:01:23-0500
_audit_creation_method            fapswitch 2.2
_symmetry_space_group_name_H-M    P1
_symmetry_Int_Tables_number       1
_space_group_crystal_system       triclinic
_cell_length_a                    20.340138
_cell_length_b                    20.836528
_cell_length_c                    8.543541
_cell_angle_alpha                 90.097939
_cell_angle_beta                  91.80831
_cell_angle_gamma                 89.801331
_cell_volume                      3619.07559529

loop_
_atom_site_label
_atom_site_type_symbol
_atom_site_description
_atom_site_fract_x
_atom_site_fract_y
_atom_site_fract_z
_atom_type_partial_charge
P1    P     P_3+3 0.136530 0.426510 0.931350 0.587868
P2    P     P_3+3 0.136530 0.573490 0.431350 0.599924
P3    P     P_3+3 0.636530 0.926510 0.931350 0.560557
P4    P     P_3+3 0.636530 0.073490 0.431350 0.592934
O1    O     O_2   0.130070 0.404060 0.104920 -0.273546
O2    O     O_2   0.130070 0.595940 0.604920 -0.262382
O3    O     O_2   0.630070 0.904060 0.104920 -0.273803
O4    O     O_2   0.630070 0.095940 0.604920 -0.270636
O5    O     O_3   0.075780 0.466370 0.861070 -0.360267
O6    O     O_3   0.075780 0.533630 0.361070 -0.365824
O7    O     O_3   0.575780 0.966370 0.861070 -0.343039
O8    O     O_3   0.575780 0.033630 0.361070 -0.353903
O9    O     O_3   0.022320 0.344950 0.359800 -0.336438
O10   O     O_3   0.022320 0.655050 0.859800 -0.349767
O11   O     O_3   0.522320 0.844950 0.359800 -0.348643
O12   O     O_3   0.522320 0.155050 0.859800 -0.344064
O13   O     O_2   0.122581 0.280564 0.247332 -0.374624
O14   O     O_2   0.125550 0.713801 0.746216 -0.339355
O15   O     O_2   0.623386 0.785969 0.237788 -0.377098
O16   O     O_2   0.625130 0.216818 0.755107 -0.343353
O17   O     O_3   0.210597 0.471683 0.938367 -0.551381
O18   O     O_3   0.209600 0.527012 0.436062 -0.561757
O19   O     O_3   0.707958 0.974610 0.934694 -0.624024
O20   O     O_3   0.711601 0.030227 0.434278 -0.575995
O21   O     O_3   0.035919 0.210892 0.386150 -0.536023
O22   O     O_3   0.040047 0.788845 0.875184 -0.565551
O23   O     O_3   0.542659 0.711027 0.382086 -0.513311
O24   O     O_3   0.537178 0.289592 0.880075 -0.558896
H1    H     H_    0.962293 0.241177 0.233906 0.122339
H2    H     H_    0.960676 0.763878 0.733660 0.123756
H3    H     H_    0.463017 0.735573 0.240814 0.114932
H4    H     H_    0.461131 0.263963 0.729919 0.122429
C1    C     C_3   0.929350 0.162859 0.378253 0.147379
C2    C     C_3   0.935691 0.840023 0.892765 0.085615
C3    C     C_3   0.439162 0.657380 0.397004 0.087260
C4    C     C_3   0.431820 0.339829 0.886399 0.075247
H5    H     H_    0.951194 0.121418 0.316429 0.198038
H6    H     H_    0.955851 0.881005 0.827286 0.207073
H7    H     H_    0.466659 0.615075 0.353382 0.206732
H8    H     H_    0.454788 0.381766 0.830014 0.204402
P5    P     P_3+3 0.863410 0.426100 0.379280 0.518527
P6    P     P_3+3 0.863410 0.573900 0.879280 0.500332
P7    P     P_3+3 0.363410 0.926100 0.379280 0.515968
P8    P     P_3+3 0.363410 0.073900 0.879280 0.503678
P9    P     P_3+3 0.913174 0.289391 0.928108 0.465033
P10   P     P_3+3 0.911585 0.709808 0.425912 0.497402
P11   P     P_3+3 0.413433 0.788739 0.925566 0.480477
P12   P     P_3+3 0.411667 0.209777 0.427163 0.498609
O25   O     O_2   0.869860 0.403670 0.205810 -0.354384
O26   O     O_2   0.869860 0.596330 0.705810 -0.313869
O27   O     O_2   0.369860 0.903670 0.205810 -0.353597
O28   O     O_2   0.369860 0.096330 0.705810 -0.315991
O29   O     O_3   0.977590 0.344880 0.951200 -0.400533
O30   O     O_3   0.977590 0.655120 0.451200 -0.389875
O31   O     O_3   0.477590 0.844880 0.951200 -0.388435
O32   O     O_3   0.477590 0.155120 0.451200 -0.404916
O33   O     O_2   0.864403 0.301143 0.060155 -0.383978
O34   O     O_2   0.862531 0.698018 0.557089 -0.363592
O35   O     O_2   0.363854 0.800287 0.056179 -0.371814
O36   O     O_2   0.362821 0.197971 0.558723 -0.354357
O37   O     O_3   0.796825 0.480149 0.374473 -0.498389
O38   O     O_3   0.795588 0.522775 0.864965 -0.519702
O39   O     O_3   0.296707 0.979984 0.374041 -0.499075
O40   O     O_3   0.295646 0.022511 0.865437 -0.515562
O41   O     O_3   0.940831 0.210192 0.965174 -0.581690
O42   O     O_3   0.936609 0.789670 0.461504 -0.575744
O43   O     O_3   0.441589 0.709894 0.963623 -0.580380
O44   O     O_3   0.437019 0.289534 0.463142 -0.559092
C5    C     C_3   0.008557 0.202534 0.937061 0.581036
C6    C     C_3   0.004104 0.799046 0.434409 0.564075
C7    C     C_3   0.509750 0.703099 0.939921 0.563358
C8    C     C_3   0.504199 0.298803 0.432367 0.576352
H9    H     H_    0.037605 0.242994 0.988176 0.016551
H10   H     H_    0.034530 0.761274 0.493808 0.026589
H11   H     H_    0.537710 0.742608 0.998602 0.030873
H12   H     H_    0.534975 0.259901 0.485908 0.008067
C9    C     C_3   0.034488 0.141179 0.018948 -0.123437
C10   C     C_3   0.025322 0.863966 0.506738 -0.094512
C11   C     C_3   0.534435 0.640197 0.016781 -0.104731
C12   C     C_3   0.527455 0.362220 0.508793 -0.073337
H13   H     H_    0.030116 0.145212 0.146454 0.113506
H14   H     H_    0.029918 0.859274 0.635339 0.118444
H15   H     H_    0.526423 0.641284 0.143399 0.108467
H16   H     H_    0.524607 0.359301 0.637035 0.106299
C13   C     C_3   0.813000 0.462972 0.805098 0.214182
C14   C     C_3   0.805604 0.526285 0.258451 0.347419
C15   C     C_3   0.313036 0.963060 0.803190 0.220419
C16   C     C_3   0.306159 0.026996 0.260495 0.350600
H17   H     H_    0.829081 0.468056 0.683346 0.113835
H18   H     H_    0.808037 0.503015 0.142845 0.122339
H19   H     H_    0.329287 0.968924 0.681809 0.112153
H20   H     H_    0.309944 0.004541 0.144216 0.120988
H21   H     H_    0.853154 0.440980 0.878537 0.082349
H22   H     H_    0.851678 0.552991 0.284331 0.005249
H23   H     H_    0.353138 0.940685 0.876076 0.079439
H24   H     H_    0.351718 0.054014 0.290037 0.007001
C17   C     C_3   0.752684 0.419438 0.812754 -0.080511
C18   C     C_3   0.747765 0.573697 0.253827 -0.113318
C19   C     C_3   0.252773 0.919201 0.808450 -0.079255
C20   C     C_3   0.247844 0.073860 0.254883 -0.121452
H25   H     H_    0.768943 0.370302 0.845438 0.139383
H26   H     H_    0.749431 0.603835 0.148180 0.052752
H27   H     H_    0.269183 0.869714 0.837593 0.134892
H28   H     H_    0.250342 0.105127 0.151345 0.058478
H29   H     H_    0.719105 0.437479 0.902453 0.250184
H30   H     H_    0.752386 0.606329 0.355445 0.183464
H31   H     H_    0.219386 0.936098 0.899670 0.252093
H32   H     H_    0.251000 0.105488 0.358535 0.185984
Ba1   Ba    Ba6+2 0.999980 0.452130 0.155200 1.689330
Ba2   Ba    Ba6+2 0.999980 0.547870 0.655200 1.705770
Ba3   Ba    Ba6+2 0.499980 0.952130 0.155200 1.687409
Ba4   Ba    Ba6+2 0.499980 0.047870 0.655200 1.709513
C21   C     C_3   0.207231 0.526114 0.035041 0.496280
C22   C     C_3   0.205507 0.472003 0.529397 0.525101
C23   C     C_3   0.704868 0.023856 0.045438 0.487181
C24   C     C_3   0.711302 0.974765 0.526818 0.477809
H33   H     H_    0.180817 0.514996 0.143153 0.050790
H34   H     H_    0.184861 0.483695 0.644583 0.077382
H35   H     H_    0.687347 0.005927 0.158403 0.074103
H36   H     H_    0.686619 0.983541 0.638779 0.062860
C25   C     C_3   0.276850 0.551349 0.084041 0.453054
C26   C     C_3   0.274942 0.442099 0.554975 0.457896
C27   C     C_3   0.773698 0.054321 0.072842 0.451158
C28   C     C_3   0.783079 0.953056 0.562838 0.477937
H37   H     H_    0.302288 0.570660 0.981409 0.153261
H38   H     H_    0.295632 0.433617 0.437641 0.105384
H39   H     H_    0.794968 0.064966 0.957215 0.121477
H40   H     H_    0.807626 0.945713 0.449078 0.124152
O45   O     O_3   0.924190 0.533610 0.949240 -0.419644
O46   O     O_3   0.924190 0.466390 0.449240 -0.392990
O47   O     O_3   0.424190 0.033610 0.949240 -0.411979
O48   O     O_3   0.424190 0.966390 0.449240 -0.400174
P13   P     P_3+3 0.080763 0.714853 0.889711 0.578812
P14   P     P_3+3 0.079034 0.283422 0.393060 0.575291
P15   P     P_3+3 0.578948 0.216159 0.896118 0.581293
P16   P     P_3+3 0.582038 0.785637 0.387049 0.587873
C29   C     C_3   0.968959 0.223673 0.354904 0.194446
C30   C     C_3   0.972046 0.778666 0.855309 0.328391
C31   C     C_3   0.474354 0.720056 0.362152 0.230672
C32   C     C_3   0.469646 0.278720 0.852354 0.347071
H41   H     H_    0.948736 0.260630 0.433372 0.140715
H42   H     H_    0.952852 0.741185 0.933194 0.127781
H43   H     H_    0.454419 0.757068 0.441007 0.130147
H44   H     H_    0.449334 0.240557 0.926508 0.119101
H45   H     H_    0.929238 0.151134 0.504962 0.219821
H46   H     H_    0.941162 0.850355 0.020238 0.207230
H47   H     H_    0.435360 0.651702 0.525603 0.199730
H48   H     H_    0.432162 0.348215 0.015057 0.198266
H49   H     H_    0.087796 0.136076 0.998890 0.155608
H50   H     H_    0.074722 0.877390 0.468551 0.214730
H51   H     H_    0.588361 0.636125 0.003915 0.152583
H52   H     H_    0.579807 0.369031 0.483839 0.196192
C33   C     C_R   0.243526 0.302746 0.005691 0.609787
C34   C     C_R   0.245713 0.695906 0.499682 0.671749
C35   C     C_R   0.740355 0.798914 0.008665 0.567824
C36   C     C_R   0.742398 0.198108 0.511326 0.685766
C37   C     C_R   0.151097 0.346465 0.828305 0.267379
C38   C     C_R   0.151159 0.652978 0.327149 0.273159
C39   C     C_R   0.653201 0.847949 0.823280 0.235930
C40   C     C_R   0.649314 0.154836 0.333995 0.276461
C41   C     C_R   0.111141 0.334839 0.694849 -0.433604
C42   C     C_R   0.112890 0.662766 0.190027 -0.447645
C43   C     C_R   0.617063 0.840014 0.682565 -0.396773
C44   C     C_R   0.608045 0.167929 0.203572 -0.427566
C45   C     C_R   0.127209 0.288207 0.583410 0.284537
C46   C     C_R   0.127801 0.710515 0.081268 0.259538
C47   C     C_R   0.632204 0.792200 0.573735 0.278284
C48   C     C_R   0.625066 0.212893 0.089884 0.258095
C49   C     C_R   0.177215 0.243509 0.620550 0.483457
C50   C     C_R   0.175708 0.756640 0.121514 0.481659
C51   C     C_R   0.679915 0.745514 0.614003 0.506736
C52   C     C_R   0.675591 0.256703 0.125958 0.459724
C53   C     C_R   0.209704 0.244685 0.769828 -0.226287
C54   C     C_R   0.208184 0.755466 0.270974 -0.261934
C55   C     C_R   0.709901 0.744576 0.766138 -0.201058
C56   C     C_R   0.708618 0.255426 0.274832 -0.252078
C57   C     C_R   0.201517 0.299032 0.869882 -0.142394
C58   C     C_R   0.200999 0.700849 0.369292 -0.172516
C59   C     C_R   0.701454 0.798535 0.867313 -0.209400
C60   C     C_R   0.700307 0.201630 0.375292 -0.137069
H53   H     H_    0.068377 0.364837 0.673781 0.200228
H54   H     H_    0.072647 0.630394 0.163505 0.198218
H55   H     H_    0.577234 0.872993 0.655083 0.186532
H56   H     H_    0.564087 0.139660 0.185239 0.207446
C61   C     C_R   0.792878 0.695100 0.948760 -0.213687
C62   C     C_R   0.794084 0.303478 0.452538 -0.153869
C63   C     C_R   0.294313 0.196667 0.949328 -0.176608
C64   C     C_R   0.294332 0.803081 0.448566 -0.161763
C65   C     C_R   0.784188 0.748326 0.049810 -0.022202
C66   C     C_R   0.786548 0.249500 0.553007 -0.075490
C67   C     C_R   0.286606 0.250829 0.049216 -0.107195
C68   C     C_R   0.288999 0.747427 0.543844 -0.093203
C69   C     C_R   0.844542 0.649068 0.989115 0.205425
C70   C     C_R   0.844401 0.351013 0.492907 0.217544
C71   C     C_R   0.345108 0.149627 0.989838 0.196360
C72   C     C_R   0.344188 0.850761 0.491160 0.224920
C73   C     C_R   0.881927 0.657199 0.128277 -0.464060
C74   C     C_R   0.881923 0.343287 0.632154 -0.499457
C75   C     C_R   0.382312 0.157428 0.129225 -0.472413
C76   C     C_R   0.381446 0.842744 0.630648 -0.496304
C77   C     C_R   0.866833 0.704946 0.234904 0.298449
C78   C     C_R   0.868091 0.294884 0.737873 0.339748
C79   C     C_R   0.366795 0.204782 0.236660 0.341236
C80   C     C_R   0.369364 0.792602 0.732856 0.326399
C81   C     C_R   0.819682 0.750968 0.194462 -0.198156
C82   C     C_R   0.820556 0.249440 0.699870 -0.203651
C83   C     C_R   0.319709 0.250932 0.197126 -0.215177
C84   C     C_R   0.324729 0.744804 0.688449 -0.210488
C85   C     C_R   0.748920 0.690411 0.816156 0.396429
C86   C     C_R   0.749025 0.308330 0.322558 0.444499
C87   C     C_R   0.249729 0.191349 0.818611 0.401880
C88   C     C_R   0.248495 0.808492 0.319897 0.452639
H57   H     H_    0.811269 0.789245 0.277473 0.213124
H58   H     H_    0.809994 0.215053 0.790136 0.155796
H59   H     H_    0.309054 0.286543 0.285166 0.173761
H60   H     H_    0.317200 0.706042 0.770162 0.187238
H61   H     H_    0.921220 0.623846 0.158384 0.168801
H62   H     H_    0.920087 0.377504 0.663238 0.163063
H63   H     H_    0.421431 0.123880 0.159276 0.166946
H64   H     H_    0.418331 0.877882 0.664439 0.160427
N1    N     N_R   0.714652 0.416909 0.666548 0.250611
O49   O     O_R   0.692180 0.469918 0.604900 -0.196228
O50   O     O_R   0.685689 0.363209 0.630047 -0.430965
N2    N     N_R   0.684358 0.541198 0.251657 0.320768
O51   O     O_R   0.664880 0.509186 0.128006 -0.265912
O52   O     O_R   0.642583 0.553515 0.359988 -0.210740
N3    N     N_R   0.214310 0.918240 0.662586 0.251282
O53   O     O_R   0.192812 0.972059 0.603346 -0.202404
O54   O     O_R   0.183684 0.865475 0.625217 -0.424167
N4    N     N_R   0.184775 0.040726 0.247065 0.318812
O55   O     O_R   0.167059 0.009388 0.121027 -0.259555
O56   O     O_R   0.141696 0.051516 0.353395 -0.242022
N5    N     N_R   0.172642 0.576471 0.948434 0.174954
O57   O     O_R   0.109302 0.574414 0.935147 -0.364746
O58   O     O_R   0.204291 0.618811 0.868609 -0.402871
N6    N     N_R   0.164082 0.425524 0.448318 0.184864
O59   O     O_R   0.101131 0.427934 0.464045 -0.379874
O60   O     O_R   0.189782 0.379484 0.367545 -0.402407
N7    N     N_R   0.660593 0.072560 0.982873 0.185070
O61   O     O_R   0.597880 0.066863 0.001244 -0.377071
O62   O     O_R   0.681613 0.111522 0.877522 -0.404890
N8    N     N_R   0.677492 0.924027 0.439210 0.185266
O63   O     O_R   0.614247 0.925896 0.421255 -0.361370
O64   O     O_R   0.709362 0.875577 0.382449 -0.415969
N9    N     N_R   0.320254 0.502050 0.150683 0.263688
O65   O     O_R   0.347034 0.461529 0.055989 -0.369063
O66   O     O_R   0.349958 0.512832 0.285149 -0.274122
N10   N     N_R   0.320250 0.483460 0.643280 0.282147
O67   O     O_R   0.382287 0.468522 0.654314 -0.281382
O68   O     O_R   0.298594 0.530329 0.726991 -0.381467
N11   N     N_R   0.819757 0.012208 0.158984 0.267904
O69   O     O_R   0.841040 0.960086 0.094501 -0.373371
O70   O     O_R   0.853437 0.034941 0.277906 -0.243448
N12   N     N_R   0.820938 0.000758 0.652608 0.259559
O71   O     O_R   0.846292 0.985439 0.788766 -0.305401
O72   O     O_R   0.846776 0.048535 0.579544 -0.317439
O73   O     O_3   0.269773 0.601032 0.192654 -0.740631
H65   H     H_    0.267026 0.641785 0.132730 0.309599
O74   O     O_3   0.269247 0.383683 0.634446 -0.785685
H66   H     H_    0.293732 0.350663 0.575546 0.367562
O75   O     O_3   0.766480 0.111638 0.157057 -0.745540
H67   H     H_    0.767540 0.147684 0.081318 0.315785
O76   O     O_3   0.781919 0.895011 0.646240 -0.771623
H68   H     H_    0.810646 0.864031 0.591956 0.372960
O77   O     O_3   0.864604 0.172543 0.324485 -0.702910
H69   H     H_    0.866464 0.178659 0.209637 0.373561
O78   O     O_3   0.869527 0.831945 0.851456 -0.746185
H70   H     H_    0.847388 0.870858 0.889764 0.399819
O79   O     O_3   0.375884 0.658706 0.329174 -0.714522
H71   H     H_    0.381433 0.654347 0.214633 0.378334
O80   O     O_3   0.367333 0.333016 0.829304 -0.734569
H72   H     H_    0.343791 0.371783 0.864584 0.406351
O81   O     O_3   0.199678 0.201791 0.508653 -0.711140
H73   H     H_    0.163338 0.189591 0.435495 0.361208
O82   O     O_3   0.196651 0.799652 0.011524 -0.704566
H74   H     H_    0.159958 0.811595 0.939110 0.375139
O83   O     O_3   0.699366 0.701000 0.505353 -0.690729
H75   H     H_    0.696221 0.719950 0.399526 0.327156
O84   O     O_3   0.697559 0.297825 0.013129 -0.707116
H76   H     H_    0.659898 0.312926 0.947181 0.375394
O85   O     O_3   0.245572 0.359194 0.088924 -0.674183
H77   H     H_    0.290135 0.365518 0.135261 0.337414
O86   O     O_3   0.252052 0.638090 0.574326 -0.633369
H78   H     H_    0.299807 0.629938 0.589981 0.364360
O87   O     O_3   0.742280 0.851472 0.102673 -0.672382
H79   H     H_    0.760087 0.885166 0.036773 0.357722
O88   O     O_3   0.741541 0.143095 0.599375 -0.663719
H80   H     H_    0.784104 0.136719 0.654881 0.343336
N13   N     N_R   0.726917 0.628012 0.767272 0.281370
O89   O     O_R   0.745164 0.602467 0.636889 -0.262595
O90   O     O_R   0.683328 0.598604 0.848588 -0.325272
N14   N     N_R   0.728634 0.370537 0.269738 0.273262
O91   O     O_R   0.674143 0.394433 0.319742 -0.277845
O92   O     O_R   0.751278 0.393362 0.141878 -0.374561
N15   N     N_R   0.227952 0.128660 0.771313 0.271649
O93   O     O_R   0.245158 0.103241 0.639928 -0.273892
O94   O     O_R   0.184396 0.099549 0.853286 -0.335837
N16   N     N_R   0.228485 0.870867 0.267359 0.276342
O95   O     O_R   0.173938 0.894890 0.316576 -0.271988
O96   O     O_R   0.251777 0.893997 0.140465 -0.369600
N17   N     N_R   0.018897 0.199521 0.768820 0.203278
O97   O     O_R   0.049465 0.151821 0.704072 -0.331666
O98   O     O_R   0.001007 0.248038 0.683407 -0.507151
N18   N     N_R   0.016390 0.797421 0.266450 0.202806
O99   O     O_R   0.001867 0.745995 0.187974 -0.511428
O100  O     O_R   0.049712 0.842126 0.198491 -0.352340
N19   N     N_R   0.522993 0.703627 0.772588 0.197594
O101  O     O_R   0.554307 0.657009 0.705404 -0.326707
O102  O     O_R   0.508589 0.754606 0.692197 -0.511387
N20   N     N_R   0.514199 0.300174 0.263703 0.204276
O103  O     O_R   0.496745 0.250943 0.180429 -0.518642
O104  O     O_R   0.545220 0.346848 0.197077 -0.347429
N21   N     N_R   0.999359 0.083932 0.964025 0.319014
O105  O     O_R   0.031327 0.036887 0.900667 -0.200514
O106  O     O_R   0.937162 0.077190 0.990479 -0.295370
N22   N     N_R   0.978940 0.915549 0.466225 0.293655
O107  O     O_R   0.967628 0.931770 0.320901 -0.242064
O108  O     O_R   0.954984 0.950799 0.576453 -0.280716
N23   N     N_R   0.501360 0.583884 0.949614 0.313898
O109  O     O_R   0.535522 0.538538 0.885570 -0.202968
O110  O     O_R   0.438609 0.575836 0.966495 -0.309491
N24   N     N_R   0.490538 0.418593 0.452908 0.316224
O111  O     O_R   0.440058 0.413424 0.356308 -0.280376
O112  O     O_R   0.509535 0.475369 0.498366 -0.216491

loop_
_geom_bond_atom_site_label_1
_geom_bond_atom_site_label_2
_geom_bond_distance
_ccdc_geom_bond_type
C19   H27   1.109004 S    
H2    C30   1.101289 S    
C15   H19   1.105424 S    
C68   C84   1.414488 A    
N24   O112  1.300679 A    
P5    O37   1.757929 S    
P7    O39   1.757593 S    
N17   O97   1.302289 A    
P8    O40   1.749242 S    
P12   C79   1.843680 S    
P9    O33   1.544264 D    
O23   P16   1.751138 S    
O80   H72   0.989055 S    
O26   Ba2   2.874638 S    
O14   P13   1.550347 D    
N12   O72   1.297441 A    
C35   C65   1.415796 A    
C3    C31   1.525712 S    
C66   C82   1.413530 A    
P2    Ba2   3.464928 S    
C80   C84   1.394017 A    
C1    C29   1.520751 S    
C6    H10   1.112710 S    
N8    O64   1.299284 A    
P15   C48   1.878036 S    
P4    O8    1.592413 S    
C51   O83   1.377012 S    
C17   H29   1.106950 S    
C82   H58   1.080608 S    
N9    O65   1.298617 A    
C74   H62   1.082399 S    
C86   N14   1.429060 S    
C3    O79   1.394962 S    
P5    O25   1.562557 D    
N10   O68   1.293741 A    
C62   C86   1.420875 A    
C45   C49   1.405966 A    
N20   O104  1.302601 A    
C23   C27   1.550092 S    
C43   H55   1.080902 S    
O76   H68   0.993301 S    
C14   H18   1.101970 S    
C47   C51   1.407092 A    
O15   P16   1.549618 D    
C18   H26   1.101904 S    
N22   O107  1.300598 A    
C62   C66   1.427601 A    
C10   H14   1.104206 S    
N3    O53   1.299785 A    
O44   C8    1.413605 S    
P14   C45   1.874674 S    
N4    O56   1.300678 A    
P8    Ba4   3.463717 S    
C44   C48   1.402718 A    
C63   C87   1.420642 A    
C76   H64   1.082442 S    
C61   C85   1.424347 A    
N16   O95   1.297395 A    
C19   H31   1.106023 S    
C50   C54   1.419230 A    
O29   Ba1   2.860535 S    
O5    Ba2   2.859264 S    
O31   Ba3   2.860535 S    
O7    Ba4   2.859264 S    
C22   N6    1.447152 S    
P10   O42   1.764937 S    
P3    O3    1.565303 D    
C18   H30   1.103690 S    
N14   O92   1.290990 A    
C38   C58   1.461178 A    
P2    O18   1.770544 S    
C23   N7    1.446278 S    
C36   C60   1.423420 A    
C49   C53   1.417971 A    
O42   C6    1.413707 S    
C79   C83   1.389363 A    
P11   C80   1.851355 S    
Ba4   O47   3.004289 S    
C13   C17   1.531420 S    
P11   O35   1.545479 D    
C26   O74   1.401689 S    
P13   C46   1.871642 S    
C87   N15   1.434082 S    
C41   C45   1.404156 A    
N23   O110  1.300460 A    
N9    O66   1.300598 A    
O24   P15   1.751049 S    
C64   C88   1.423159 A    
C5    C9    1.541791 S    
Ba3   Ba4   4.711525 S    
P3    O7    1.589013 S    
C20   H28   1.102066 S    
C7    C11   1.542294 S    
N15   O94   1.299090 A    
C5    N17   1.460445 S    
O75   H67   0.992952 S    
N21   O106  1.300260 A    
O28   Ba4   2.874638 S    
N6    O59   1.292454 A    
O30   Ba2   2.862722 S    
Ba2   O45   3.004289 S    
O73   H65   0.992797 S    
C40   C60   1.460731 A    
O9    Ba1   2.864549 S    
C13   H21   1.112099 S    
P10   C77   1.846136 S    
O3    Ba3   2.870752 S    
C15   H23   1.112101 S    
C74   C78   1.390424 A    
C53   C57   1.430079 A    
N5    O57   1.290620 A    
P6    O38   1.746963 S    
O40   C15   1.396070 S    
P8    O28   1.564343 D    
N18   O100  1.302008 A    
P9    O29   1.756652 S    
P5    Ba1   3.467756 S    
O83   H75   0.987345 S    
P10   O34   1.544381 D    
P3    C39   1.912528 S    
P7    Ba3   3.467756 S    
C50   O82   1.377858 S    
C4    H48   1.112514 S    
C71   C75   1.400181 A    
C33   C57   1.421241 A    
C20   H32   1.103337 S    
C2    O78   1.391178 S    
C75   H63   1.082372 S    
O17   C21   1.404645 S    
C65   C81   1.412548 A    
C11   N23   1.462019 S    
O11   P16   1.740625 S    
C2    C30   1.513503 S    
O23   C31   1.406409 S    
C24   H36   1.108844 S    
P6    C69   1.869354 S    
O21   C29   1.404254 S    
C25   H37   1.108945 S    
N1    O49   1.299853 A    
N5    O58   1.300594 A    
C37   C57   1.458065 A    
C27   H39   1.113839 S    
C76   C80   1.390299 A    
N13   O89   1.297919 A    
N7    O62   1.296604 A    
C67   C83   1.412993 A    
P6    O26   1.564343 D    
C21   H33   1.108324 S    
Ba3   O47   2.859370 S    
N3    O54   1.299897 A    
O20   C24   1.401461 S    
C23   H35   1.105394 S    
P9    O41   1.767514 S    
C35   O87   1.356919 S    
C33   C67   1.431991 A    
C11   H51   1.108737 S    
O10   Ba2   2.862346 S    
C34   C68   1.433223 A    
C6    N18   1.464624 S    
C62   C70   1.459811 A    
O78   H70   0.986485 S    
C61   C65   1.418288 A    
O10   P13   1.738138 S    
C64   C68   1.424370 A    
P6    Ba2   3.463717 S    
C8    C12   1.542111 S    
Ba1   O45   2.859370 S    
C70   C74   1.402202 A    
P6    O45   1.593196 S    
C55   C85   1.435366 A    
C41   H53   1.080010 S    
C52   O84   1.376852 S    
C56   C60   1.426701 A    
C21   C25   1.556900 S    
O86   H78   0.990450 S    
C77   C81   1.390167 A    
C36   O88   1.372620 S    
C19   N3    1.450502 S    
C52   C56   1.419794 A    
C25   O73   1.399138 S    
C16   H24   1.108044 S    
O39   C16   1.397812 S    
N7    O61   1.295982 A    
C12   H16   1.100794 S    
N2    O51   1.300336 A    
N11   O69   1.296221 A    
C21   N5    1.451923 S    
P1    O1    1.565303 D    
C40   C44   1.400383 A    
P11   O31   1.763784 S    
H4    C32   1.098435 S    
C88   N16   1.429371 S    
O4    Ba4   2.877658 S    
P5    O46   1.596634 S    
P4    O20   1.770019 S    
N22   O108  1.299187 A    
P1    Ba1   3.460954 S    
C42   C46   1.402968 A    
P3    Ba3   3.460954 S    
P9    C78   1.844275 S    
O84   H76   0.987410 S    
C5    H9    1.111957 S    
C54   C58   1.426262 A    
C8    H12   1.112572 S    
C28   H40   1.116642 S    
C25   N9    1.456956 S    
N24   O111  1.301521 A    
C26   N10   1.456226 S    
C81   H57   1.083117 S    
O79   H71   0.992576 S    
C75   C79   1.388776 A    
C34   O86   1.367826 S    
C53   C87   1.430193 A    
N16   O96   1.291448 A    
C73   H61   1.082431 S    
C35   C59   1.422769 A    
C24   N8    1.456259 S    
N17   O98   1.292326 A    
N19   O101  1.302136 A    
C49   O81   1.378507 S    
C28   N12   1.461005 S    
C30   H42   1.106978 S    
C9    H49   1.107809 S    
C72   C76   1.401863 A    
C13   H17   1.105580 S    
C28   O76   1.405450 S    
C1    H5    1.110226 S    
C1    O77   1.395125 S    
C3    H7    1.112356 S    
P5    C70   1.890187 S    
O88   H80   0.982605 S    
C9    H13   1.098824 S    
P2    C38   1.910347 S    
P10   O30   1.766212 S    
C83   H59   1.081929 S    
N8    O63   1.291169 A    
P1    O5    1.589013 S    
Ba4   O48   2.862146 S    
O21   P14   1.749882 S    
C16   C20   1.533384 S    
P16   C47   1.871173 S    
C34   C58   1.419346 A    
C7    N19   1.463166 S    
C37   C41   1.400404 A    
N15   O93   1.297874 A    
N10   O67   1.299184 A    
O12   Ba4   2.862346 S    
C29   H41   1.106817 S    
N20   O103  1.291736 A    
P7    O48   1.596634 S    
P8    C71   1.879772 S    
C24   C28   1.548668 S    
C85   N13   1.433734 S    
C32   H44   1.106758 S    
C39   C59   1.461489 A    
O22   C30   1.404986 S    
H1    C29   1.100967 S    
N12   O71   1.297425 A    
C20   N4    1.458540 S    
Ba1   Ba2   4.711525 S    
C11   H15   1.099237 S    
P7    O27   1.562557 D    
N21   O105  1.301022 A    
O1    Ba1   2.870752 S    
O41   C5    1.414229 S    
N6    O60   1.298773 A    
Ba2   O46   2.862146 S    
O43   C7    1.414007 S    
N4    O55   1.300188 A    
C14   C18   1.533193 S    
O37   C14   1.397916 S    
N23   O109  1.301029 A    
C48   C52   1.403560 A    
O13   P14   1.551515 D    
C36   C66   1.437036 A    
P1    O17   1.778509 S    
C6    C10   1.543478 S    
C12   N24   1.464491 S    
O9    P14   1.739356 S    
P3    O19   1.767340 S    
O24   C32   1.405593 S    
P4    O4    1.563514 D    
C8    N20   1.461948 S    
P8    O47   1.593196 S    
O87   H79   0.978289 S    
O6    Ba1   2.862044 S    
C54   C88   1.432064 A    
N14   O91   1.297763 A    
C42   H54   1.080717 S    
N11   O70   1.297169 A    
C14   H22   1.107655 S    
C4    O80   1.392574 S    
C16   H20   1.102150 S    
C17   N1    1.449333 S    
C73   C77   1.387931 A    
O77   H69   0.991586 S    
C63   C67   1.424907 A    
P12   O32   1.763510 S    
P4    Ba4   3.464928 S    
C84   H60   1.082917 S    
O2    Ba2   2.877658 S    
P2    O2    1.563514 D    
C31   H43   1.107400 S    
P11   O43   1.765278 S    
P12   O36   1.544055 D    
C15   C19   1.533309 S    
O38   C13   1.394978 S    
C33   O85   1.373474 S    
O11   Ba3   2.864549 S    
C4    H8    1.110109 S    
C55   C59   1.430201 A    
O85   H77   0.986748 S    
C51   C55   1.418363 A    
P12   O44   1.765324 S    
C18   N2    1.458349 S    
P7    C72   1.887793 S    
N19   O102  1.293650 A    
C26   H38   1.112985 S    
C43   C47   1.401679 A    
C27   N11   1.463647 S    
C44   H56   1.079545 S    
O18   C22   1.401624 S    
O81   H73   0.986533 S    
C3    H47   1.110393 S    
C4    C32   1.517857 S    
C22   H34   1.108469 S    
C1    H45   1.110244 S    
N18   O99   1.293148 A    
O82   H74   0.985808 S    
C39   C43   1.399043 A    
H3    C31   1.103597 S    
O74   H66   0.993434 S    
P2    O6    1.592413 S    
C10   H50   1.103288 S    
O25   Ba1   2.881592 S    
C12   H52   1.102247 S    
O27   Ba3   2.881592 S    
C63   C71   1.455860 A    
C2    H6    1.108523 S    
C61   C69   1.454103 A    
N2    O52   1.300679 A    
C9    N21   1.461652 S    
C2    H46   1.111995 S    
P1    C37   1.911180 S    
N1    O50   1.299254 A    
O22   P13   1.750294 S    
C7    H11   1.111915 S    
P4    C40   1.911502 S    
C27   O75   1.402866 S    
C69   C73   1.401306 A    
N13   O90   1.299340 A    
C46   C50   1.405584 A    
C56   C86   1.428461 A    
O16   P15   1.550972 D    
C10   N22   1.462426 S    
C38   C42   1.400742 A    
O19   C23   1.397165 S    
C22   C26   1.550960 S    
Ba3   O48   3.002382 S    
C64   C72   1.459542 A    
C78   C82   1.386486 A    
Ba1   O46   3.002382 S    
O12   P15   1.740833 S    
O32   Ba4   2.862722 S    
O8    Ba3   2.862044 S    
C17   H25   1.108306 S    
