data_mof_unit_30067.cif
_audit_creation_date              2012-12-10T20:27:11-0500
_audit_creation_method            fapswitch 2.2
_symmetry_space_group_name_H-M    P1
_symmetry_Int_Tables_number       1
_space_group_crystal_system       triclinic
_cell_length_a                    10.797691
_cell_length_b                    10.717947
_cell_length_c                    9.86941
_cell_angle_alpha                 90.188057
_cell_angle_beta                  103.972211
_cell_angle_gamma                 90.119657
_cell_volume                      1108.37320969

loop_
_atom_site_label
_atom_site_type_symbol
_atom_type_description
_atom_site_fract_x
_atom_site_fract_y
_atom_site_fract_z
_atom_type_partial_charge
C1    C     C_R   0.498673 0.260663 0.499466 0.896890
C2    C     C_R   0.554775 0.594599 0.086806 -0.142383
C3    C     C_R   0.554634 0.594545 0.942922 -0.142878
C4    C     C_R   0.259054 0.503688 0.441836 0.944151
C5    C     C_R   0.455421 0.398979 0.916565 0.201519
C6    C     C_3   0.323795 0.346204 0.875670 -0.503904
C7    C     C_3   0.323555 0.346410 0.029520 -0.520680
C8    C     C_R   0.501499 0.739536 0.500288 0.879138
C9    C     C_R   0.741036 0.502598 0.558221 0.940240
C10   C     C_2   0.122605 0.518003 0.408996 -0.379937
C11   C     C_2   0.068056 0.544330 0.512978 -0.154880
C12   C     C_R   0.498429 0.129635 0.498087 -0.116935
C13   C     C_2   0.877625 0.516634 0.591231 -0.392885
C14   C     C_2   0.932204 0.543642 0.487583 -0.149315
C15   C     C_R   0.555383 0.063923 0.616860 0.078624
C16   C     C_3   0.738176 0.162414 0.807093 -0.332951
C17   C     C_3   0.825519 0.166916 0.705621 -0.818280
C18   C     C_3   0.767121 0.873217 0.797062 -0.326609
C19   C     C_3   0.816333 0.839796 0.668155 -0.827672
C20   C     C_R   0.445045 0.064144 0.374212 -0.226088
C21   C     C_R   0.446768 0.934502 0.374668 -0.224106
C22   C     C_R   0.503580 0.870926 0.498526 -0.106603
C23   C     C_R   0.560891 0.939148 0.616477 0.094006
C24   C     C_3   0.631172 0.931075 0.767434 -0.069631
C25   C     C_3   0.619057 0.076121 0.768580 -0.085124
C26   C     C_R   0.455338 0.398979 0.059040 0.226176
H1    H     H_    0.877049 0.555911 0.380572 0.187223
H2    H     H_    0.066951 0.505347 0.302219 0.146530
H3    H     H_    0.400224 0.112455 0.278842 0.156919
H4    H     H_    0.402133 0.884586 0.279707 0.165145
H5    H     H_    0.570887 0.886739 0.830715 0.104622
H6    H     H_    0.548106 0.105164 0.827730 0.107864
H7    H     H_    0.892625 0.087542 0.722653 0.255534
H8    H     H_    0.770826 0.169665 0.595116 0.251714
H9    H     H_    0.884758 0.252882 0.726372 0.230487
H10   H     H_    0.702926 0.258826 0.815183 0.220679
H11   H     H_    0.795311 0.138902 0.913278 0.180600
H12   H     H_    0.597080 0.672122 0.152361 0.147713
H13   H     H_    0.761411 0.760172 0.611934 0.247269
H14   H     H_    0.807842 0.919116 0.594801 0.260873
H15   H     H_    0.918119 0.811873 0.701255 0.236712
H16   H     H_    0.837411 0.933722 0.868046 0.204081
H17   H     H_    0.766013 0.785440 0.856024 0.181253
H18   H     H_    0.596454 0.671795 0.900199 0.138441
H19   H     H_    0.253707 0.412090 0.812719 0.214365
H20   H     H_    0.322436 0.250841 0.830686 0.195748
H21   H     H_    0.253559 0.412580 0.055739 0.216113
H22   H     H_    0.321604 0.251108 0.072859 0.190654
H23   H     H_    0.123208 0.556809 0.620066 0.181647
H24   H     H_    0.933205 0.504275 0.697941 0.149639
N1    N     N_R   0.499160 0.499140 0.142600 -0.105193
N2    N     N_R   0.499160 0.499180 0.856960 -0.106845
O1    O     O_R   0.500020 0.316790 0.614700 -0.623783
O2    O     O_R   0.500000 0.316760 0.385350 -0.620601
O3    O     O_R   0.317820 0.500020 0.571850 -0.615568
O4    O     O_R   0.317800 0.499980 0.342510 -0.618703
O5    O     O_R   0.500000 0.683240 0.614650 -0.621448
O6    O     O_R   0.499980 0.683210 0.385300 -0.629802
O7    O     O_R   0.682200 0.500020 0.657490 -0.618469
O8    O     O_R   0.682180 0.499980 0.428150 -0.614336
Zn1   Zn    Zn3+2 0.500010 0.500020 0.653140 0.928880
Zn2   Zn    Zn3+2 0.499990 0.499980 0.346860 0.934158

loop_
_geom_bond_atom_site_label_1
_geom_bond_atom_site_label_2
_ccdc_geom_bond_type
O6    Zn2   S    
C8    C22   S    
C3    N2    A    
C5    N2    A    
O5    Zn1   S    
C6    C7    S    
C11   H23   S    
C6    H19   S    
C10   H2    S    
C14   H1    S    
C6    H20   S    
C21   H4    S    
C2    H12   S    
C12   C15   A    
C16   H11   S    
C1    O2    A    
C9    O8    A    
C10   C11   D    
C7    H22   S    
C12   C20   A    
C25   H6    S    
C15   C23   A    
C2    C3    A    
C24   H5    S    
C13   C14   D    
C16   H10   S    
C1    C12   S    
C17   H8    S    
C7    C26   S    
C17   H7    S    
C20   H3    S    
C18   C24   S    
C19   H13   S    
C21   C22   A    
C13   H24   S    
N2    Zn1   S    
C18   H16   S    
C4    O3    A    
C5    C6    S    
C8    O5    A    
C11   C14   S    
O4    Zn2   S    
C3    H18   S    
C15   C25   S    
O7    Zn1   S    
C2    N1    A    
C23   C24   S    
C4    C10   S    
C5    C26   A    
O3    Zn1   S    
C24   C25   S    
O1    Zn1   S    
O8    Zn2   S    
C18   C19   S    
C19   H14   S    
C18   H17   S    
C16   C25   S    
C9    C13   S    
C22   C23   A    
C1    O1    A    
C17   H9    S    
N1    Zn2   S    
C8    O6    A    
C20   C21   A    
C26   N1    A    
O2    Zn2   S    
C4    O4    A    
C19   H15   S    
C16   C17   S    
C9    O7    A    
C7    H21   S    
