data_mof_unit_49885.cif
_audit_creation_date              2012-12-10T20:43:22-0500
_audit_creation_method            fapswitch 2.2
_symmetry_space_group_name_H-M    P1
_symmetry_Int_Tables_number       1
_space_group_crystal_system       triclinic
_cell_length_a                    15.801675
_cell_length_b                    10.651542
_cell_length_c                    9.858247
_cell_angle_alpha                 89.517788
_cell_angle_beta                  89.903444
_cell_angle_gamma                 89.537465
_cell_volume                      1659.14829051

loop_
_atom_site_label
_atom_site_type_symbol
_atom_type_description
_atom_site_fract_x
_atom_site_fract_y
_atom_site_fract_z
_atom_type_partial_charge
C1    C     C_R   0.502072 0.260286 0.500503 0.910645
C2    C     C_R   0.540270 0.935055 0.393938 -0.189684
C3    C     C_R   0.491909 0.871947 0.492017 -0.105852
C4    C     C_R   0.339359 0.498095 0.500099 0.893067
C5    C     C_R   0.436165 0.938716 0.574506 -0.109157
C6    C     C_3   0.411714 0.924684 0.721388 0.252008
C7    C     C_3   0.430378 0.065410 0.732822 0.342564
C8    C     C_R   0.448361 0.578541 0.070776 0.129067
C9    C     C_R   0.557789 0.428438 0.073264 0.501476
C10   C     C_R   0.556381 0.427320 0.928052 -0.289036
C11   C     C_R   0.448555 0.578951 0.928332 0.202613
C12   C     C_R   0.044090 0.541165 0.605853 -0.291792
C13   C     C_3   0.354273 0.583575 0.923525 -0.515041
C14   C     C_3   0.354244 0.582568 0.077295 -0.479857
C15   C     C_R   0.497418 0.739852 0.498860 0.863537
C16   C     C_R   0.660717 0.499425 0.499937 0.903012
C17   C     C_R   0.956517 0.543221 0.605890 -0.178826
C18   C     C_R   0.913105 0.483340 0.502190 0.117510
C19   C     C_R   0.955911 0.420413 0.398823 -0.299519
C20   C     C_R   0.044160 0.420303 0.396515 0.491879
C21   C     C_R   0.087330 0.479608 0.501978 0.070119
C22   C     C_3   0.697116 0.366236 0.108920 0.075743
C23   C     C_1   0.824185 0.488755 0.500693 -0.055574
C24   C     C_3   0.733084 0.243420 0.052718 -0.367363
C25   C     C_3   0.825788 0.257269 0.011817 -0.947707
C26   C     C_3   0.083852 0.425839 0.174382 0.063489
C27   C     C_3   0.137393 0.359679 0.066849 -0.294423
C28   C     C_3   0.133967 0.429571 0.931178 -0.989444
C29   C     C_3   0.285569 0.820385 0.654147 0.114111
C30   C     C_3   0.235220 0.897115 0.548858 -0.298159
C31   C     C_3   0.192850 0.812916 0.445266 -0.990472
C32   C     C_3   0.369912 0.196560 0.895179 0.130950
C33   C     C_3   0.359557 0.103383 0.013747 -0.385669
C34   C     C_1   0.176286 0.483813 0.501114 -0.007840
C35   C     C_3   0.377682 0.165817 0.149331 -0.901578
C36   C     C_1   0.251086 0.490269 0.500542 -0.186270
C37   C     C_1   0.749236 0.494133 0.499950 -0.209206
C38   C     C_R   0.443791 0.065607 0.582587 0.039771
C39   C     C_R   0.500555 0.128497 0.499373 -0.139482
C40   C     C_R   0.543855 0.064484 0.396753 -0.215830
H1    H     H_    0.078129 0.588800 0.685458 0.165081
H2    H     H_    0.583510 0.113641 0.324230 0.182213
H3    H     H_    0.579028 0.884570 0.321421 0.155522
H4    H     H_    0.454829 0.864141 0.782878 0.065235
H5    H     H_    0.732932 0.389948 0.202013 0.174031
H6    H     H_    0.708353 0.444807 0.035478 0.114583
H7    H     H_    0.727791 0.168360 0.131255 0.225471
H8    H     H_    0.696012 0.214574 0.962753 0.214352
H9    H     H_    0.832317 0.329985 0.931094 0.265215
H10   H     H_    0.850076 0.166554 0.972274 0.269221
H11   H     H_    0.864517 0.283972 0.100761 0.257399
H12   H     H_    0.490520 0.085560 0.787732 -0.006271
H13   H     H_    0.109003 0.522426 0.188594 0.140118
H14   H     H_    0.017344 0.431930 0.137398 0.135477
H15   H     H_    0.204086 0.353930 0.101592 0.213794
H16   H     H_    0.113857 0.262592 0.052778 0.233671
H17   H     H_    0.067846 0.433915 0.893269 0.273963
H18   H     H_    0.173606 0.379516 0.855494 0.275319
H19   H     H_    0.158371 0.526454 0.942284 0.265479
H20   H     H_    0.240188 0.760627 0.711012 0.139620
H21   H     H_    0.331039 0.754941 0.604862 0.127276
H22   H     H_    0.185862 0.953507 0.601585 0.237620
H23   H     H_    0.599004 0.366689 0.872554 0.165285
H24   H     H_    0.277303 0.963213 0.493982 0.235530
H25   H     H_    0.240953 0.754927 0.391741 0.263718
H26   H     H_    0.158829 0.871764 0.369165 0.275382
H27   H     H_    0.146335 0.751032 0.496387 0.271740
H28   H     H_    0.320604 0.270683 0.905274 0.149568
H29   H     H_    0.431818 0.245278 0.900318 0.135689
H30   H     H_    0.293895 0.066751 0.014269 0.247590
H31   H     H_    0.403944 0.022798 0.002046 0.218721
H32   H     H_    0.444154 0.198744 0.151922 0.286930
H33   H     H_    0.368358 0.097068 0.233259 0.274164
H34   H     H_    0.330554 0.673465 0.880464 0.218655
H35   H     H_    0.334473 0.246990 0.165331 0.254764
H36   H     H_    0.326324 0.498039 0.878820 0.215052
H37   H     H_    0.330163 0.671525 0.121811 0.207483
H38   H     H_    0.327048 0.495606 0.121855 0.213178
H39   H     H_    0.922738 0.591946 0.685741 0.148447
H40   H     H_    0.921064 0.372710 0.320240 0.141740
N1    N     N_R   0.499440 0.499140 0.142800 -0.142907
N2    N     N_R   0.499440 0.499180 0.857150 -0.125487
O1    O     O_R   0.500010 0.316790 0.614690 -0.621820
O2    O     O_3   0.088398 0.356429 0.296923 -0.640901
O3    O     O_3   0.324264 0.902105 0.747844 -0.601645
O4    O     O_3   0.358146 0.137983 0.768329 -0.578480
O5    O     O_R   0.500000 0.316760 0.385350 -0.582641
O6    O     O_R   0.378030 0.499990 0.614640 -0.617704
O7    O     O_R   0.378020 0.499950 0.385300 -0.616889
O8    O     O_R   0.500000 0.683240 0.614650 -0.630011
O9    O     O_R   0.499990 0.683210 0.385310 -0.618714
O10   O     O_R   0.621980 0.500050 0.614700 -0.613664
O11   O     O_R   0.621970 0.500010 0.385360 -0.593453
O12   O     O_3   0.611232 0.349362 0.146242 -0.626837
Zn1   Zn    Zn3+2 0.500010 0.500020 0.653130 0.939060
Zn2   Zn    Zn3+2 0.499990 0.499980 0.346870 0.970288

loop_
_geom_bond_atom_site_label_1
_geom_bond_atom_site_label_2
_ccdc_geom_bond_type
C1    O5    A    
C31   H26   S    
C4    C36   S    
C30   H24   S    
C10   H23   S    
O8    Zn1   S    
C28   H17   S    
C31   H27   S    
C35   H35   S    
C26   C27   S    
C29   C30   S    
C6    O3    S    
C5    C6    S    
C7    H12   S    
C38   C39   A    
C27   H15   S    
C7    O4    S    
C17   H39   S    
C18   C19   A    
C14   H37   S    
C25   H10   S    
O9    Zn2   S    
C19   C20   A    
C12   C17   A    
C26   O2    S    
C29   H20   S    
C9    C10   A    
C29   O3    S    
C16   C37   S    
C32   H28   S    
C40   H2    S    
O6    Zn1   S    
C32   O4    S    
C6    H4    S    
C5    C38   A    
C22   O12   S    
C26   H14   S    
C11   N2    A    
C29   H21   S    
C8    N1    A    
C24   H8    S    
C24   C25   S    
C39   C40   A    
N1    Zn2   S    
C33   H31   S    
C27   H16   S    
C21   C34   S    
C23   C37   T    
C12   C21   A    
C10   N2    A    
O10   Zn1   S    
C18   C23   S    
C25   H11   S    
C12   H1    S    
C13   H36   S    
C2    H3    S    
O1    Zn1   S    
O5    Zn2   S    
C17   C18   A    
C16   O11   A    
C20   C21   A    
C6    C7    S    
C33   H30   S    
C22   H6    S    
C35   H32   S    
C16   O10   A    
O11   Zn2   S    
C30   H22   S    
C22   C24   S    
C26   H13   S    
C3    C15   S    
C4    O7    A    
C28   H19   S    
C31   H25   S    
C35   H33   S    
C8    C14   S    
N2    Zn1   S    
C24   H7    S    
C3    C5    A    
C32   H29   S    
C4    O6    A    
C28   H18   S    
C1    O1    A    
C32   C33   S    
O7    Zn2   S    
C20   O2    S    
C2    C3    A    
C15   O8    A    
C11   C13   S    
C30   C31   S    
C8    C11   A    
C33   C35   S    
C7    C38   S    
C34   C36   T    
C14   H38   S    
C19   H40   S    
C25   H9    S    
C1    C39   S    
C15   O9    A    
C2    C40   A    
C22   H5    S    
C13   H34   S    
C27   C28   S    
C13   C14   S    
C9    O12   S    
C9    N1    A    
