data_mof_unit_10099.cif
_audit_creation_date              2012-12-11T17:41:37-0500
_audit_creation_method            fapswitch 2.2
_symmetry_space_group_name_H-M    P1
_symmetry_Int_Tables_number       1
_space_group_crystal_system       triclinic
_cell_length_a                    15.517855
_cell_length_b                    14.897119
_cell_length_c                    15.076279
_cell_angle_alpha                 109.696426
_cell_angle_beta                  121.398502
_cell_angle_gamma                 59.013606
_cell_volume                      2539.00224438

loop_
_atom_site_label
_atom_site_type_symbol
_atom_type_description
_atom_site_fract_x
_atom_site_fract_y
_atom_site_fract_z
_atom_type_partial_charge
C1    C     C_R   0.803784 0.935991 0.771941 -0.129329
C2    C     C_R   0.262914 0.386069 0.188089 -0.135494
C3    C     C_R   0.677896 0.790353 0.932774 0.244116
C4    C     C_R   0.353457 0.313747 0.165012 0.232558
C5    C     C_R   0.694073 0.882135 0.986831 0.023674
C6    C     C_R   0.336381 0.247060 0.070927 0.031102
C7    C     C_R   0.801115 0.878459 0.032349 -0.195853
C8    C     C_R   0.226882 0.260590 0.998479 -0.194038
C9    C     C_R   0.889270 0.786224 0.019903 -0.095792
C10   C     C_R   0.136745 0.336331 0.020782 -0.129779
C11   C     C_R   0.871944 0.696462 0.963560 -0.128021
C12   C     C_R   0.243484 0.007453 0.209205 -0.118080
C13   C     C_R   0.154905 0.397850 0.116222 -0.123267
C14   C     C_R   0.598073 0.992213 0.095434 -0.158765
C15   C     C_R   0.435104 0.145783 0.957119 -0.179647
C16   C     C_R   0.197749 0.273471 0.437467 -0.124309
C17   C     C_R   0.754204 0.709179 0.507394 -0.113279
C18   C     C_R   0.511162 0.076455 0.117096 0.103877
C19   C     C_R   0.516630 0.055362 0.931686 0.100900
C20   C     C_R   0.430747 0.157376 0.050389 0.063091
C21   C     C_R   0.602947 0.980277 0.004348 0.052583
C22   C     C_2   0.017236 0.343337 0.452617 -0.197703
C23   C     C_R   0.133605 0.272113 0.474294 0.131307
C24   C     C_2   0.843760 0.601951 0.381420 -0.196915
C25   C     C_2   0.957319 0.415862 0.385287 -0.097016
C26   C     C_2   0.861977 0.508972 0.395887 -0.080815
C27   C     C_2   0.985639 0.949157 0.842070 -0.228423
C28   C     C_2   0.151733 0.881787 0.101835 -0.181111
C29   C     C_R   0.160265 0.843980 0.639101 -0.070949
C30   C     C_R   0.906942 0.265728 0.756217 -0.105125
C31   C     C_R   0.264002 0.762595 0.648667 -0.097517
C32   C     C_R   0.800722 0.337429 0.697193 -0.187304
C33   C     C_R   0.283187 0.708588 0.559869 0.006778
C34   C     C_R   0.784055 0.699567 0.431071 0.132569
C35   C     C_R   0.710222 0.366936 0.717574 0.012448
C36   C     C_R   0.194299 0.734605 0.460033 0.155757
C37   C     C_R   0.728314 0.323085 0.798844 0.217130
C38   C     C_R   0.090681 0.816893 0.451212 -0.135010
C39   C     C_R   0.835344 0.251309 0.857519 -0.143809
C40   C     C_R   0.594058 0.231272 0.553534 -0.047999
C41   C     C_R   0.405429 0.787143 0.514724 -0.072187
C42   C     C_R   0.073918 0.871552 0.540518 -0.102326
C43   C     C_R   0.924321 0.223260 0.836655 -0.175450
C44   C     C_R   0.398484 0.519248 0.567133 -0.176475
C45   C     C_R   0.502186 0.326648 0.548256 0.067747
C46   C     C_R   0.593584 0.544924 0.660011 -0.206160
C47   C     C_R   0.501437 0.431106 0.595156 0.086763
C48   C     C_R   0.491796 0.626100 0.607498 0.093375
C49   C     C_R   0.599770 0.447509 0.657074 0.073996
C50   C     C_R   0.392185 0.617718 0.574594 0.075656
C51   C     C_2   0.042267 0.883598 0.915813 -0.098145
C52   C     C_2   0.136699 0.894791 0.010373 -0.100103
C53   C     C_R   0.409911 0.041354 0.734348 0.219937
C54   C     C_R   0.593686 0.017660 0.289666 0.175517
C55   C     C_R   0.408447 0.306319 0.480385 -0.098861
C56   C     C_R   0.494799 0.704758 0.571776 0.091064
C57   C     C_R   0.588997 0.711850 0.590103 -0.125499
C58   C     C_R   0.594365 0.983233 0.803678 -0.145080
C59   C     C_R   0.409146 0.083466 0.208031 -0.169656
C60   C     C_R   0.195146 0.182795 0.525636 -0.106543
C61   C     C_R   0.754127 0.799915 0.415019 -0.115881
C62   C     C_R   0.804890 0.027851 0.683446 -0.127292
C63   C     C_R   0.242795 0.915156 0.299591 -0.120417
C64   C     C_R   0.868291 0.973135 0.770817 0.149801
C65   C     C_R   0.212283 0.931211 0.199651 0.143161
C66   C     C_R   0.505241 0.036035 0.826949 0.011802
C67   C     C_R   0.502974 0.065236 0.202914 0.033548
C68   C     C_R   0.766718 0.698340 0.920664 -0.178020
H1    H     H_    0.831324 0.877834 0.819515 0.094774
H2    H     H_    0.211466 0.210400 0.925953 0.160258
H3    H     H_    0.971205 0.784074 0.054439 0.128331
H4    H     H_    0.052912 0.346024 0.964948 0.136948
H5    H     H_    0.658151 0.928546 0.145511 0.150018
H6    H     H_    0.371791 0.204465 0.901914 0.154123
H7    H     H_    0.821761 0.504096 0.434205 0.133352
H8    H     H_    0.989150 0.416910 0.336566 0.128233
H9    H     H_    0.885156 0.605959 0.343683 0.140375
H10   H     H_    0.984598 0.343769 0.501530 0.141106
H11   H     H_    0.993860 0.934897 0.533557 0.156920
H12   H     H_    0.229945 0.041174 0.147564 0.094271
H13   H     H_    0.007178 0.169419 0.883641 0.123688
H14   H     H_    0.170258 0.323063 0.381267 0.087982
H15   H     H_    0.766085 0.647157 0.540003 0.094395
H16   H     H_    0.146576 0.885154 0.708197 0.136630
H17   H     H_    0.976109 0.243860 0.740275 0.143528
H18   H     H_    0.328545 0.739534 0.725400 0.173731
H19   H     H_    0.788842 0.370164 0.635426 0.139379
H20   H     H_    0.022987 0.838626 0.374983 0.166352
H21   H     H_    0.849971 0.217962 0.920313 0.148816
H22   H     H_    0.321555 0.512162 0.535827 0.131130
H23   H     H_    0.108289 0.844871 0.104255 0.137909
H24   H     H_    0.670076 0.554544 0.698942 0.115896
H25   H     H_    0.680859 0.214758 0.593797 0.119990
H26   H     H_    0.320021 0.818100 0.499493 0.125775
H27   H     H_    0.322167 0.361381 0.454840 0.095638
H28   H     H_    0.674061 0.668820 0.643004 0.089055
H29   H     H_    0.679945 0.966961 0.856037 0.129704
H30   H     H_    0.323368 0.128057 0.157837 0.122101
H31   H     H_    0.159800 0.148784 0.543151 0.146631
H32   H     H_    0.764593 0.819773 0.359811 0.132567
H33   H     H_    0.835911 0.053605 0.651379 0.121727
H34   H     H_    0.021673 0.995111 0.841946 0.134725
H35   H     H_    0.229793 0.861831 0.320185 0.140210
H36   H     H_    0.179597 0.931751 0.007102 0.134503
H37   H     H_    0.007927 0.836545 0.916787 0.127639
H38   H     H_    0.940468 0.624934 0.954446 0.132442
H39   H     H_    0.085255 0.454972 0.134398 0.139539
H40   H     H_    0.754735 0.627629 0.879502 0.141456
H41   H     H_    0.276668 0.433083 0.262256 0.172101
H42   H     H_    0.815807 0.947424 0.076627 0.151057
I1    I     I_    0.524163 0.784550 0.874637 -0.446507
I2    I     I_    0.511037 0.314438 0.273500 -0.364277
I3    I     I_    0.213347 0.659458 0.320789 -0.524032
I4    I     I_    0.600458 0.365296 0.841144 -0.399818
I5    I     I_    0.261710 0.056879 0.725011 -0.527748
I6    I     I_    0.749775 0.025070 0.360521 -0.495914
N1    N     N_R   0.705410 0.966550 0.689210 -0.045372
N2    N     N_R   0.556610 0.796750 0.548620 -0.043944
N3    N     N_R   0.556610 0.951620 0.703500 -0.052364
N4    N     N_R   0.443390 0.048380 0.296500 -0.050506
N5    N     N_R   0.294590 0.131500 0.522480 -0.046544
N6    N     N_R   0.705410 0.868500 0.477520 -0.041201
N7    N     N_R   0.705410 0.023370 0.632390 -0.042150
N8    N     N_R   0.294590 0.976630 0.367610 -0.049534
N9    N     N_R   0.294590 0.033450 0.310790 -0.047669
N10   N     N_R   0.294590 0.188320 0.465660 -0.047351
N11   N     N_R   0.705410 0.811680 0.534340 -0.049270
N12   N     N_R   0.556610 0.157790 0.497330 -0.037394
N13   N     N_R   0.443390 0.842210 0.502670 -0.048044
N14   N     N_R   0.443390 0.997080 0.657540 -0.060286
N15   N     N_R   0.556610 0.002920 0.342460 -0.059389
N16   N     N_R   0.443390 0.203250 0.451380 -0.043765
Ni1   Ni    Ni4+2 0.629830 0.882720 0.617850 0.218522
Ni2   Ni    Ni4+2 0.370170 0.117280 0.382150 0.219539
Ni3   Ni    Ni4+2 0.629830 0.013030 0.487540 0.252388
Ni4   Ni    Ni4+2 0.370170 0.986970 0.512460 0.240810

loop_
_geom_bond_atom_site_label_1
_geom_bond_atom_site_label_2
_ccdc_geom_bond_type
N9    Ni2   S    
C41   N13   A    
C63   C65   A    
C2    H41   S    
C59   N4    A    
C29   C42   A    
N4    N15   A    
C14   C18   A    
C3    C68   A    
C40   H25   S    
C13   H39   S    
C60   H31   S    
N1    Ni1   S    
C33   C36   A    
C63   N8    A    
C47   C49   A    
C15   C19   A    
C54   N15   A    
C46   C49   A    
N3    Ni1   S    
C14   C21   A    
C35   C37   A    
C24   C26   D    
C38   C42   A    
N15   Ni3   S    
C46   H24   S    
C40   N12   A    
N3    N14   A    
C56   C57   A    
C19   C66   S    
C7    C9    A    
N6    N11   A    
C2    C13   A    
C62   C64   A    
C59   C67   A    
C58   C66   A    
C3    I1    S    
C22   C25   D    
C54   I6    S    
C35   C49   S    
C31   C33   A    
N4    Ni2   S    
C44   C47   A    
C51   H37   S    
C62   H33   S    
C48   C50   A    
C4    I2    S    
C42   H11   S    
C31   H18   S    
C23   C60   A    
C58   H29   S    
C36   I3    S    
N12   N16   A    
C62   N7    A    
C27   C51   D    
C45   C47   S    
C40   C45   A    
C37   C39   A    
C46   C48   A    
C37   I4    S    
N8    Ni4   S    
C51   C52   S    
C14   H5    S    
C9    H3    S    
C22   H10   S    
C29   H16   S    
C55   H27   S    
N12   Ni3   S    
C5    C7    A    
C17   N11   A    
C39   C43   A    
C12   N9    A    
C33   C50   S    
C32   H19   S    
C57   H28   S    
C34   C61   A    
C24   C34   S    
C38   H20   S    
C61   N6    A    
C17   H15   S    
C2    C4    A    
C32   C35   A    
C41   C56   A    
N13   Ni4   S    
C41   H26   S    
C15   C20   A    
C11   H38   S    
C16   H14   S    
C26   H7    S    
C1    N1    A    
C30   H17   S    
C53   C66   A    
C9    C11   A    
N10   Ni2   S    
N2    Ni1   S    
N16   Ni2   S    
C63   H35   S    
C16   C23   A    
C43   H13   S    
C30   C43   A    
C4    C6    A    
C17   C34   A    
C1    C64   A    
C44   H22   S    
C11   C68   A    
C44   C50   A    
C48   C56   S    
C52   H36   S    
C19   C21   A    
N14   Ni4   S    
N11   Ni1   S    
C3    C5    A    
C10   C13   A    
C6    C8    A    
C54   C67   A    
C6    C20   S    
C12   C65   A    
C27   H34   S    
C8    H2    S    
C7    H42   S    
C25   H8    S    
C36   C38   A    
C28   C65   S    
C25   C26   S    
N5    N10   A    
C29   C31   A    
N2    N13   A    
C30   C32   A    
C28   C52   D    
C12   H12   S    
C58   N3    A    
C28   H23   S    
C18   C20   A    
N5    Ni4   S    
N1    N7    A    
C60   N5    A    
C1    H1    S    
N6    Ni3   S    
C27   C64   S    
C61   H32   S    
C24   H9    S    
C15   H6    S    
C5    C21   S    
C45   C55   A    
C8    C10   A    
C55   N16   A    
N7    Ni3   S    
C59   H30   S    
C18   C67   S    
C22   C23   S    
N8    N9    A    
C53   N14   A    
C68   H40   S    
C16   N10   A    
C39   H21   S    
C53   I5    S    
C57   N2    A    
C10   H4    S    
