data_mof_unit_22358.cif
_audit_creation_date              2012-12-10T19:45:04-0500
_audit_creation_method            fapswitch 2.2
_symmetry_space_group_name_H-M    P1
_symmetry_Int_Tables_number       1
_space_group_crystal_system       triclinic
_cell_length_a                    15.077873
_cell_length_b                    10.827233
_cell_length_c                    13.685391
_cell_angle_alpha                 90.294608
_cell_angle_beta                  89.954087
_cell_angle_gamma                 89.678516
_cell_volume                      2234.09710853

loop_
_atom_site_label
_atom_site_type_symbol
_atom_type_description
_atom_site_fract_x
_atom_site_fract_y
_atom_site_fract_z
_atom_type_partial_charge
C1    C     C_R   0.497624 0.262147 0.499609 0.792122
C2    C     C_R   0.501855 0.737834 0.500476 0.802109
C3    C     C_R   0.046086 0.486894 0.677811 -0.212758
C4    C     C_R   0.953897 0.513241 0.322317 -0.212676
C5    C     C_R   0.308078 0.254458 0.262231 -0.112109
C6    C     C_R   0.686731 0.755177 0.748152 -0.117188
C7    C     C_R   0.343873 0.193133 0.342793 -0.160317
C8    C     C_R   0.652857 0.814006 0.665472 -0.187852
C9    C     C_R   0.420532 0.119820 0.332210 0.027269
C10   C     C_R   0.572711 0.880448 0.671008 0.048162
C11   C     C_R   0.459825 0.106297 0.239125 0.466345
C12   C     C_R   0.527534 0.890632 0.760938 0.476990
C13   C     C_R   0.422948 0.167661 0.158634 -0.215700
C14   C     C_R   0.561861 0.829366 0.843515 -0.240490
C15   C     C_R   0.348019 0.242755 0.170560 -0.194419
C16   C     C_R   0.641156 0.762448 0.836876 -0.172578
C17   C     C_R   0.466462 0.932695 0.420935 -0.174962
C18   C     C_R   0.531054 0.067133 0.579898 -0.199621
C19   C     C_R   0.502717 0.871628 0.501505 -0.110341
C20   C     C_R   0.495408 0.128270 0.499042 -0.114687
C21   C     C_R   0.535245 0.939267 0.582317 0.057289
C22   C     C_R   0.461429 0.060589 0.418919 0.027119
C23   C     C_R   0.328457 0.500274 0.500054 0.813450
C24   C     C_R   0.671537 0.499939 0.499966 0.810180
C25   C     C_R   0.565096 0.437745 0.793000 0.012312
C26   C     C_R   0.435065 0.562648 0.206961 0.026948
C27   C     C_R   0.435379 0.563275 0.793597 0.030138
C28   C     C_R   0.565590 0.438789 0.206297 0.000838
C29   C     C_R   0.433939 0.565067 0.896656 -0.005675
C30   C     C_R   0.567618 0.438322 0.103210 -0.004903
C31   C     C_R   0.500769 0.501702 0.948130 0.076995
C32   C     C_R   0.500648 0.501432 0.051764 0.086828
C33   C     C_R   0.567399 0.437875 0.896007 -0.012247
C34   C     C_R   0.433703 0.564558 0.103887 -0.004140
C35   C     C_R   0.367630 0.628554 0.949223 -0.213310
C36   C     C_R   0.634871 0.376860 0.050546 -0.229599
C37   C     C_R   0.367441 0.628162 0.051925 -0.214088
C38   C     C_R   0.634397 0.375854 0.947899 -0.220792
C39   C     C_R   0.814754 0.506010 0.411235 -0.254197
C40   C     C_R   0.185247 0.493474 0.588839 -0.247355
C41   C     C_R   0.768348 0.499863 0.499957 -0.075179
C42   C     C_R   0.231632 0.500756 0.500156 -0.073536
C43   C     C_R   0.814625 0.493607 0.588706 -0.260589
C44   C     C_R   0.185315 0.508641 0.411544 -0.262882
C45   C     C_R   0.907000 0.493582 0.589369 0.110044
C46   C     C_R   0.092957 0.507748 0.410830 0.110922
C47   C     C_R   0.953502 0.500141 0.500050 0.063664
C48   C     C_R   0.046466 0.500431 0.500107 0.063425
C49   C     C_R   0.907139 0.506446 0.410673 0.109284
C50   C     C_R   0.092845 0.493586 0.589448 0.108975
C51   C     C_R   0.953613 0.487066 0.677780 -0.219532
C52   C     C_R   0.046357 0.514098 0.322406 -0.218909
Cu1   Cu    Cu3+1 0.500010 0.499980 0.597420 0.943019
Cu2   Cu    Cu3+1 0.499990 0.500020 0.402580 0.940742
H1    H     H_    0.779121 0.510818 0.342543 0.153243
H2    H     H_    0.220904 0.487624 0.657466 0.151059
H3    H     H_    0.439628 0.880468 0.359998 0.168366
H4    H     H_    0.557479 0.119175 0.641167 0.146160
H5    H     H_    0.615408 0.388137 0.751947 0.120438
H6    H     H_    0.384355 0.611458 0.248017 0.120441
H7    H     H_    0.385052 0.612790 0.752989 0.134453
H8    H     H_    0.616430 0.390255 0.246824 0.114203
H9    H     H_    0.315826 0.678289 0.910934 0.144448
H10   H     H_    0.687948 0.329646 0.088648 0.131563
H11   H     H_    0.315468 0.677577 0.090690 0.137283
H12   H     H_    0.686591 0.326904 0.909129 0.136174
H13   H     H_    0.778897 0.488369 0.657346 0.147247
H14   H     H_    0.221012 0.515822 0.343035 0.145207
H15   H     H_    0.918554 0.482018 0.746794 0.138113
H16   H     H_    0.081421 0.519543 0.253416 0.138137
H17   H     H_    0.081027 0.481655 0.746850 0.140559
H18   H     H_    0.918962 0.518077 0.253256 0.141064
H19   H     H_    0.320565 0.291663 0.108747 0.154165
H20   H     H_    0.666844 0.715122 0.900422 0.151625
H21   H     H_    0.249384 0.311323 0.270841 0.132686
H22   H     H_    0.748029 0.703026 0.743249 0.133129
H23   H     H_    0.312738 0.204134 0.413695 0.127465
H24   H     H_    0.688272 0.806415 0.596780 0.129163
H25   H     H_    0.452961 0.157599 0.087152 0.145861
H26   H     H_    0.526428 0.831360 0.912314 0.146311
N1    N     N_R   0.499960 0.499900 0.743810 -0.180348
N2    N     N_R   0.500040 0.500100 0.256190 -0.175862
O1    O     O_R   0.500000 0.319630 0.582270 -0.592359
O2    O     O_R   0.500000 0.680370 0.417730 -0.583695
O3    O     O_R   0.499990 0.319660 0.417730 -0.582013
O4    O     O_R   0.500010 0.680340 0.582270 -0.564369
O5    O     O_R   0.370260 0.499960 0.582280 -0.594583
O6    O     O_R   0.629740 0.500040 0.417720 -0.593913
O7    O     O_R   0.370250 0.499990 0.417740 -0.590740
O8    O     O_R   0.629750 0.500010 0.582260 -0.589559
O9    O     O_3   0.532536 0.029652 0.226385 -0.625202
C53   C     C_3   0.609990 0.101756 0.231748 0.039067
H27   H     H_    0.610025 0.161890 0.298253 0.147770
H28   H     H_    0.615302 0.159875 0.165374 0.140895
C54   C     C_3   0.690716 0.016312 0.236642 -0.307764
H29   H     H_    0.685295 0.956393 0.302106 0.227060
H30   H     H_    0.692617 0.956303 0.170502 0.222947
C55   C     C_3   0.776572 0.089969 0.242715 -0.942631
H31   H     H_    0.784082 0.148959 0.177082 0.250028
H32   H     H_    0.833977 0.025492 0.246431 0.261856
H33   H     H_    0.776618 0.149287 0.309216 0.259178
O10   O     O_3   0.445906 0.950418 0.762959 -0.618556
C56   C     C_3   0.441268 0.037716 0.839970 0.017015
H34   H     H_    0.507139 0.078824 0.857919 0.126814
H35   H     H_    0.414009 0.992225 0.906125 0.162023
C57   C     C_3   0.379251 0.142707 0.809116 -0.296819
H36   H     H_    0.410430 0.194960 0.748505 0.229215
H37   H     H_    0.315620 0.103881 0.782235 0.230133
C58   C     C_3   0.359844 0.230720 0.893817 -0.941139
H38   H     H_    0.321240 0.182302 0.950962 0.253157
H39   H     H_    0.320354 0.310699 0.867378 0.258583
H40   H     H_    0.422559 0.265227 0.925915 0.262713

loop_
_geom_bond_atom_site_label_1
_geom_bond_atom_site_label_2
_ccdc_geom_bond_type
C8    H24   S    
C13   H25   S    
C27   C29   A    
C18   C21   A    
C2    O2    A    
C54   H29   S    
Cu2   N2    S    
Cu2   O2    S    
C54   C55   S    
C39   C41   A    
Cu1   Cu2   S    
C23   C42   S    
C4    C52   A    
C16   H20   S    
C35   C37   A    
C58   H39   S    
C9    C22   S    
C57   H36   S    
C45   C51   A    
C34   C37   A    
C46   C52   A    
Cu1   N1    S    
C27   H7    S    
C26   C34   A    
C39   H1    S    
C38   H12   S    
C40   H2    S    
C37   H11   S    
C23   O7    A    
Cu1   O4    S    
C14   H26   S    
C56   H34   S    
C7    H23   S    
C48   C50   A    
C26   N2    A    
C23   O5    A    
C25   N1    A    
C24   C41   S    
C41   C43   A    
C42   C44   A    
C3    C50   A    
C44   C46   A    
C45   C47   A    
C10   C21   S    
C1    O3    A    
C46   C48   A    
C31   C33   A    
C28   N2    A    
C47   C48   A    
C27   N1    A    
Cu2   O7    S    
C47   C49   A    
C58   H40   S    
O9    C53   S    
C5    C7    A    
C3    C51   A    
C6    C8    A    
C53   C54   S    
C32   C34   A    
C5    H21   S    
C3    H17   S    
C12   O10   S    
C24   O6    A    
C31   C32   A    
C29   C31   A    
C53   H28   S    
Cu1   O5    S    
C9    C11   A    
C10   C12   A    
C43   H13   S    
C15   H19   S    
C20   C22   A    
C55   H32   S    
C13   C15   A    
C56   H35   S    
C14   C16   A    
C44   H14   S    
C4    H18   S    
C7    C9    A    
C1    C20   S    
C39   C49   A    
C2    C19   S    
C33   C38   A    
C12   C14   A    
C40   C42   A    
C24   O8    A    
Cu2   O3    S    
C54   H30   S    
C6    H22   S    
C1    O1    A    
C55   H33   S    
C51   H15   S    
C29   C35   A    
C17   C22   A    
C30   C36   A    
C4    C49   A    
Cu1   O1    S    
Cu2   O6    S    
C36   C38   A    
C43   C45   A    
C58   H38   S    
C30   C32   A    
C11   C13   A    
C57   H37   S    
C40   C50   A    
C28   C30   A    
C53   H27   S    
C17   C19   A    
C18   H4    S    
C2    O4    A    
C56   C57   S    
C18   C20   A    
O10   C56   S    
C5    C15   A    
C52   H16   S    
C6    C16   A    
C11   O9    S    
C8    C10   A    
C55   H31   S    
C25   C33   A    
Cu1   O8    S    
C35   H9    S    
C25   H5    S    
C36   H10   S    
C26   H6    S    
C17   H3    S    
C19   C21   A    
C57   C58   S    
C28   H8    S    
