data_mof_unit_30047.cif
_audit_creation_date              2012-12-10T19:42:55-0500
_audit_creation_method            fapswitch 2.2
_symmetry_space_group_name_H-M    P1
_symmetry_Int_Tables_number       1
_space_group_crystal_system       triclinic
_cell_length_a                    10.884223
_cell_length_b                    13.000641
_cell_length_c                    11.712689
_cell_angle_alpha                 99.780777
_cell_angle_beta                  94.85841
_cell_angle_gamma                 90.755251
_cell_volume                      1626.76767953

loop_
_atom_site_label
_atom_site_type_symbol
_atom_type_description
_atom_site_fract_x
_atom_site_fract_y
_atom_site_fract_z
_atom_type_partial_charge
C1    C     C_R   0.497363 0.299264 0.478675 0.837850
C2    C     C_R   0.502639 0.700736 0.521325 0.837829
C3    C     C_R   0.871927 0.498571 0.503429 -0.076882
C4    C     C_R   0.128072 0.501425 0.496571 -0.076928
C5    C     C_R   0.949584 0.501417 0.607153 0.133084
C6    C     C_R   0.050415 0.498577 0.392847 0.133058
C7    C     C_R   0.508274 0.813938 0.533547 -0.058753
C8    C     C_R   0.491731 0.186061 0.466453 -0.058751
C9    C     C_R   0.434918 0.017130 0.350214 -0.006366
C10   C     C_R   0.565089 0.982870 0.649785 -0.006366
C11   C     C_R   0.441255 0.125525 0.362853 -0.223042
C12   C     C_R   0.558750 0.874475 0.637147 -0.223035
C13   C     C_R   0.535487 0.139122 0.559698 -0.181663
C14   C     C_R   0.464522 0.860878 0.440300 -0.181681
C15   C     C_R   0.524968 0.031073 0.553357 0.128500
C16   C     C_R   0.475041 0.968927 0.446642 0.128505
C17   C     C_R   0.437708 0.370271 0.021415 -0.120283
C18   C     C_R   0.562294 0.629729 0.978585 -0.120294
C19   C     C_R   0.438065 0.387943 0.143450 -0.010626
C20   C     C_R   0.561935 0.612057 0.856550 -0.010629
C21   C     C_R   0.514903 0.560541 0.157850 0.092792
C22   C     C_R   0.485097 0.439459 0.842150 0.092804
C23   C     C_R   0.262092 0.500868 0.498906 0.825586
C24   C     C_R   0.737908 0.499131 0.501094 0.825618
C25   C     C_R   0.519660 0.548564 0.034871 0.004868
C26   C     C_R   0.480341 0.451435 0.965128 0.004875
C27   C     C_R   0.164576 0.587972 0.124462 0.242294
C28   C     C_R   0.835430 0.412026 0.875544 0.242273
C29   C     C_R   0.133434 0.592085 0.240329 -0.041836
C30   C     C_R   0.866568 0.407910 0.759675 -0.041836
C31   C     C_R   0.094952 0.498409 0.276393 -0.030345
C32   C     C_R   0.905046 0.501586 0.723606 -0.030325
C33   C     C_R   0.090710 0.403430 0.197777 0.322923
C34   C     C_R   0.909287 0.596566 0.802218 0.322906
C35   C     C_R   0.119990 0.401103 0.084139 -0.207233
C36   C     C_R   0.880009 0.598897 0.915858 -0.207231
C37   C     C_R   0.155349 0.492461 0.045683 -0.063954
C38   C     C_R   0.844654 0.507540 0.954319 -0.063950
C39   C     C_R   0.923719 0.496252 0.397994 -0.083167
C40   C     C_R   0.076280 0.503742 0.602005 -0.083210
Cu1   Cu    Cu3+1 0.509250 0.507730 0.615930 0.983845
Cu2   Cu    Cu3+1 0.490750 0.492270 0.384070 0.983838
H1    H     H_    0.457518 0.367127 0.786421 0.206375
H2    H     H_    0.542482 0.632873 0.213579 0.206376
H3    H     H_    0.594542 0.673637 0.814393 0.135378
H4    H     H_    0.405458 0.326363 0.185607 0.135376
H5    H     H_    0.114019 0.327029 0.025161 0.243602
H6    H     H_    0.885978 0.672972 0.974832 0.243602
H7    H     H_    0.865191 0.492803 0.318112 0.182952
H8    H     H_    0.134808 0.507190 0.681887 0.182961
H9    H     H_    0.420780 0.811653 0.363843 0.188992
H10   H     H_    0.579232 0.188347 0.636154 0.188994
H11   H     H_    0.591867 0.837054 0.709448 0.146730
H12   H     H_    0.408135 0.162946 0.290553 0.146730
N1    N     N_R   0.523180 0.519350 0.790130 -0.206633
N2    N     N_R   0.476820 0.480650 0.209870 -0.206633
O1    O     O_R   0.506570 0.354460 0.582000 -0.599821
O2    O     O_R   0.493430 0.645540 0.418000 -0.599826
O3    O     O_R   0.490940 0.341410 0.386200 -0.589400
O4    O     O_R   0.509060 0.658590 0.613800 -0.589401
O5    O     O_R   0.327460 0.506540 0.597900 -0.572233
O6    O     O_R   0.672540 0.493460 0.402100 -0.572239
O7    O     O_R   0.311830 0.493480 0.402100 -0.591475
O8    O     O_R   0.688170 0.506520 0.597900 -0.591465
C41   C     C_2   0.180546 0.486933 0.922306 0.390471
H13   H     H_    0.217078 0.554189 0.891637 0.137094
O9    O     O_2   0.160267 0.406307 0.852344 -0.520009
C42   C     C_2   0.819457 0.513073 0.077697 0.390483
H14   H     H_    0.782917 0.445821 0.108368 0.137090
O10   O     O_2   0.839745 0.593699 0.147656 -0.519983
C43   C     C_2   0.391744 0.265266 0.960669 0.480942
H15   H     H_    0.398429 0.199661 0.006990 0.076567
O11   O     O_2   0.340120 0.250799 0.862541 -0.475328
C44   C     C_2   0.608259 0.734733 0.039331 0.480946
H16   H     H_    0.601576 0.800337 0.993010 0.076568
O12   O     O_2   0.659882 0.749199 0.137460 -0.475318
Cl1   Cl    Cl    0.208474 0.703646 0.075509 -0.617100
Cl2   Cl    Cl    0.791534 0.296356 0.924507 -0.617111
C45   C     C_2   0.140898 0.694654 0.320870 0.463762
H17   H     H_    0.196200 0.758909 0.302777 0.116268
O13   O     O_2   0.084243 0.710050 0.407460 -0.510920
C46   C     C_2   0.859104 0.305337 0.679137 0.463718
H18   H     H_    0.803858 0.241064 0.697268 0.116331
O14   O     O_2   0.915692 0.289957 0.592504 -0.510971
Cl3   Cl    Cl    0.047065 0.284785 0.238826 -0.553934
Cl4   Cl    Cl    0.952925 0.715210 0.761163 -0.553956
C47   C     C_2   0.386837 0.959861 0.234048 0.395971
H19   H     H_    0.316224 0.994519 0.182662 0.112967
O15   O     O_2   0.430689 0.877977 0.190990 -0.508735
C48   C     C_2   0.613170 0.040139 0.765952 0.395956
H20   H     H_    0.683779 0.005478 0.817340 0.112968
O16   O     O_2   0.569324 0.122026 0.809007 -0.508740

loop_
_geom_bond_atom_site_label_1
_geom_bond_atom_site_label_2
_ccdc_geom_bond_type
C19   N2    A    
C47   H19   S    
C8    C13   A    
C27   C29   A    
C1    C8    S    
Cu1   Cu2   S    
C2    C7    S    
Cu1   O5    S    
C35   H5    S    
Cu2   O2    S    
C19   H4    S    
C44   O12   D    
C17   C26   A    
C35   C37   A    
C9    C16   A    
C10   C15   A    
C1    O3    A    
C2    O4    A    
C15   C16   A    
C21   H2    S    
C34   Cl4   S    
C33   Cl3   S    
Cu1   N1    S    
Cu2   N2    S    
C7    C14   A    
C4    C40   A    
C42   H14   S    
C41   O9    D    
C37   C41   S    
C31   C33   A    
C28   Cl2   S    
Cu2   O6    S    
C18   C20   A    
C12   H11   S    
C5    C32   S    
C23   O7    A    
C6    C31   S    
C3    C39   A    
C18   C44   S    
C3    C24   S    
C18   C25   A    
C20   N1    A    
C7    C12   A    
C44   H16   S    
C4    C6    A    
C43   O11   D    
C4    C23   S    
C17   C19   A    
C27   Cl1   S    
C25   C26   A    
C46   H18   S    
C32   C34   A    
C30   C46   S    
C1    O1    A    
C13   H10   S    
C48   O16   D    
C14   H9    S    
C29   C45   S    
C28   C38   A    
C9    C11   A    
C11   H12   S    
C10   C12   A    
C42   O10   D    
C39   H7    S    
C38   C42   S    
C17   C43   S    
C46   O14   D    
C13   C15   A    
C14   C16   A    
C45   O13   D    
C21   C25   A    
C24   O6    A    
C20   H3    S    
Cu1   O4    S    
C3    C5    A    
Cu2   O3    S    
C21   N2    A    
C2    O2    A    
C22   N1    A    
C28   C30   A    
Cu1   O1    S    
C43   H15   S    
C29   C31   A    
C9    C47   S    
C30   C32   A    
C48   H20   S    
C27   C37   A    
C8    C11   A    
C40   H8    S    
C36   C38   A    
C33   C35   A    
C36   H6    S    
C34   C36   A    
C45   H17   S    
C23   O5    A    
C10   C48   S    
C24   O8    A    
C41   H13   S    
C22   C26   A    
C5    C40   A    
C47   O15   D    
C6    C39   A    
Cu1   O8    S    
Cu2   O7    S    
C22   H1    S    
