data_mof_unit_61098.cif
_audit_creation_date              2013-03-05T16:56:55-0500
_audit_creation_method            fapswitch 2.2
_symmetry_space_group_name_H-M    P1
_symmetry_Int_Tables_number       1
_space_group_crystal_system       triclinic
_cell_length_a                    17.585281
_cell_length_b                    16.757175
_cell_length_c                    15.721244
_cell_angle_alpha                 89.995815
_cell_angle_beta                  90.194586
_cell_angle_gamma                 89.978095
_cell_volume                      4632.70331483

loop_
_atom_site_label
_atom_site_type_symbol
_atom_site_description
_atom_site_fract_x
_atom_site_fract_y
_atom_site_fract_z
_atom_type_partial_charge
O1    O     O_R   0.389130 0.566570 0.500000 -0.596568
O2    O     O_R   0.389130 0.433430 0.500000 -0.606324
C1    C     C_R   0.353677 0.500017 0.499997 0.971078
O3    O     O_R   0.500020 0.566570 0.377150 -0.606761
O4    O     O_R   0.500020 0.433430 0.377150 -0.624480
C2    C     C_R   0.500077 0.499997 0.337919 0.929646
Zn1   Zn    Zn3+2 0.500020 0.588860 0.500000 0.979715
Zn2   Zn    Zn3+2 0.500020 0.411140 0.500000 0.970629
O5    O     O_R   0.610900 0.566520 0.500010 -0.623989
O6    O     O_R   0.610900 0.433480 0.500010 -0.634388
O7    O     O_R   0.500010 0.566510 0.622860 -0.621974
O8    O     O_R   0.500010 0.433490 0.622860 -0.603867
C3    C     C_R   0.646813 0.499959 0.499958 0.888757
C4    C     C_R   0.500356 0.499974 0.662119 0.934076
C5    C     C_3   0.514808 0.586000 0.046368 0.017381
C6    C     C_3   0.451688 0.449202 0.046122 0.022810
C7    C     C_3   0.459702 0.439336 0.950141 -0.456357
C8    C     C_3   0.500664 0.581111 0.950268 -0.441309
H1    H     H_    0.439338 0.592732 0.937401 0.243380
H2    H     H_    0.404399 0.453375 0.918790 0.234444
H3    H     H_    0.445424 0.390361 0.074649 0.135228
H4    H     H_    0.568689 0.618533 0.055566 0.120345
H5    H     H_    0.470768 0.376256 0.933375 0.158477
H6    H     H_    0.531035 0.629765 0.916440 0.171842
C9    C     C_1   0.506771 0.499601 0.750721 -0.160135
C10   C     C_3   0.520518 0.498867 0.083065 0.112546
C11   C     C_3   0.522363 0.495942 0.917359 0.132044
C12   C     C_3   0.606585 0.467746 0.949126 0.199033
C13   C     C_3   0.603041 0.463306 0.055327 0.138666
C14   C     C_1   0.513977 0.498206 0.825667 -0.074431
C15   C     C_1   0.512008 0.499789 0.174342 -0.028912
C16   C     C_1   0.505548 0.499968 0.249313 -0.137063
C17   C     C_R   0.848041 0.572059 0.500239 0.168467
C18   C     C_R   0.847548 0.426430 0.496751 0.169864
C19   C     C_R   0.769229 0.572082 0.500901 -0.223891
C20   C     C_R   0.768760 0.427060 0.497365 -0.229755
H7    H     H_    0.739400 0.628628 0.502629 0.189382
H8    H     H_    0.738579 0.370720 0.496143 0.185976
C21   C     C_R   0.729349 0.499730 0.499464 -0.119253
C22   C     C_R   0.886893 0.499082 0.498193 0.009334
C23   C     C_1   0.966980 0.498760 0.498034 0.070589
C24   C     C_1   0.034461 0.498667 0.498156 0.113602
C25   C     C_R   0.153244 0.532886 0.429573 0.160207
C26   C     C_R   0.153327 0.465526 0.568169 0.161657
C27   C     C_R   0.232691 0.533432 0.429989 0.085044
C28   C     C_R   0.232778 0.466290 0.569027 0.088878
C29   C     C_R   0.271756 0.500016 0.499724 -0.227080
C30   C     C_R   0.114682 0.498862 0.498546 -0.078891
C31   C     C_R   0.464150 0.833311 0.437386 -0.281337
C32   C     C_R   0.444449 0.166686 0.459429 -0.289043
H9    H     H_    0.435131 0.865158 0.386850 0.171800
H10   H     H_    0.399452 0.134817 0.426720 0.166593
C33   C     C_R   0.463811 0.749171 0.437452 0.041383
C34   C     C_R   0.444324 0.250820 0.459201 0.034853
H11   H     H_    0.434527 0.717427 0.387187 0.169178
H12   H     H_    0.399471 0.282569 0.426258 0.147073
N1    N     N_R   0.500030 0.707230 0.500020 -0.111015
N2    N     N_R   0.500030 0.292770 0.500020 -0.105059
C35   C     C_R   0.536980 0.746818 0.563718 -0.023831
C36   C     C_R   0.556976 0.253226 0.541441 -0.026914
H13   H     H_    0.565570 0.712906 0.612871 0.151411
H14   H     H_    0.600805 0.287174 0.573546 0.147783
C37   C     C_R   0.538367 0.830924 0.566595 0.111859
C38   C     C_R   0.559701 0.169129 0.542918 0.106049
C39   C     C_R   0.501693 0.875553 0.502344 0.078730
C40   C     C_R   0.502464 0.124470 0.501599 0.082816
C41   C     C_1   0.502068 0.963452 0.502158 0.043737
C42   C     C_1   0.502354 0.036573 0.501913 0.041243
I1    I     I_    0.294039 0.581582 0.324139 -0.220310
I2    I     I_    0.294263 0.420303 0.676445 -0.262869
I3    I     I_    0.595809 0.886023 0.669557 -0.282006
I4    I     I_    0.651647 0.114217 0.607604 -0.284272
I5    I     I_    0.440855 0.671925 0.107232 -0.273192
I6    I     I_    0.338018 0.489019 0.077796 -0.240845
C43   C     C_3   0.667609 0.518786 0.099798 -0.442659
C44   C     C_3   0.742445 0.480559 0.134243 -0.392027
C45   C     C_3   0.803274 0.543528 0.152337 -0.797361
H15   H     H_    0.820838 0.573629 0.092751 0.266223
H16   H     H_    0.781363 0.588813 0.197692 0.265856
H17   H     H_    0.854101 0.514565 0.180949 0.266812
H18   H     H_    0.731667 0.450168 0.195805 0.224995
H19   H     H_    0.766263 0.435569 0.090302 0.215773
H20   H     H_    0.683549 0.570314 0.060728 0.222842
H21   H     H_    0.643824 0.548690 0.156684 0.199341
C46   C     C_3   0.617091 0.376611 0.096659 -0.378961
C47   C     C_3   0.557872 0.308748 0.102143 -0.420556
C48   C     C_3   0.594853 0.230362 0.130251 -0.829921
H22   H     H_    0.637608 0.210274 0.083266 0.260620
H23   H     H_    0.623042 0.237811 0.193120 0.264597
H24   H     H_    0.550644 0.183367 0.136035 0.262424
H25   H     H_    0.516254 0.322972 0.152976 0.234108
H26   H     H_    0.527992 0.297388 0.041524 0.225255
H27   H     H_    0.669298 0.350660 0.069949 0.223875
H28   H     H_    0.629561 0.386043 0.165121 0.205657
C49   C     C_3   0.662159 0.533828 0.908896 -0.383639
C50   C     C_3   0.749818 0.527089 0.912947 -0.384306
C51   C     C_3   0.787815 0.609208 0.910999 -0.831810
H29   H     H_    0.771710 0.641532 0.851906 0.274582
H30   H     H_    0.770600 0.645383 0.966886 0.256138
H31   H     H_    0.850593 0.602004 0.912408 0.267827
H32   H     H_    0.769712 0.495387 0.969552 0.248161
H33   H     H_    0.771298 0.495306 0.856174 0.226129
H34   H     H_    0.650084 0.539098 0.839784 0.196535
H35   H     H_    0.646946 0.593212 0.933970 0.191991
C52   C     C_3   0.623690 0.383825 0.905283 -0.372644
C53   C     C_3   0.705751 0.351043 0.902194 -0.382181
C54   C     C_3   0.706787 0.260457 0.890945 -0.809085
H36   H     H_    0.679763 0.230667 0.945985 0.257320
H37   H     H_    0.675947 0.243377 0.831878 0.275870
H38   H     H_    0.766475 0.239291 0.886160 0.266350
H39   H     H_    0.734892 0.375260 0.845502 0.229834
H40   H     H_    0.739197 0.366312 0.959415 0.217274
H41   H     H_    0.587711 0.337571 0.933414 0.208225
H42   H     H_    0.605380 0.385236 0.837742 0.195265
I7    I     I_    0.905107 0.683768 0.502687 -0.272480
I8    I     I_    0.903767 0.314237 0.493760 -0.276260
I9    I     I_    0.090147 0.582702 0.325335 -0.215468
I10   I     I_    0.090358 0.414716 0.671417 -0.222004

loop_
_geom_bond_atom_site_label_1
_geom_bond_atom_site_label_2
_geom_bond_distance
_ccdc_geom_bond_type
C5    C8    1.532527 S    
C40   C42   1.472915 S    
C48   H22   1.108085 S    
C37   C39   1.410899 A    
C6    H3    1.088963 S    
C50   H33   1.106872 S    
C23   C24   1.186663 T    
C2    C16   1.396644 S    
C49   C50   1.546695 S    
C51   H29   1.111174 S    
C53   H40   1.103261 S    
C45   H15   1.108784 S    
Zn1   O7    1.967459 S    
C7    H5    1.106755 S    
C31   C39   1.405598 A    
C12   C49   1.608186 S    
C8    H6    1.111299 S    
C52   H41   1.094927 S    
C12   C13   1.672629 S    
C19   H7    1.083259 S    
C47   H25   1.111288 S    
O4    C2    1.274590 A    
O7    C4    1.274345 A    
C43   H21   1.108293 S    
N1    C35   1.364229 A    
C53   C54   1.528364 S    
N2    C36   1.364170 A    
C7    H2    1.113835 S    
C36   H14   1.081737 S    
C8    H1    1.113652 S    
C27   C29   1.407798 A    
O5    C3    1.281541 A    
Zn2   N2    1.983547 S    
C46   H27   1.100292 S    
C5    H4    1.102439 S    
C26   C28   1.397249 A    
C6    C7    1.524976 S    
C31   H9    1.083223 S    
C32   H10   1.083226 S    
C54   H36   1.107565 S    
C25   C30   1.402105 A    
C13   C46   1.610065 S    
C45   H16   1.111065 S    
C10   C15   1.443353 S    
C50   H32   1.092782 S    
C11   C14   1.449027 S    
C54   H37   1.111338 S    
O3    Zn1   1.967168 S    
C51   H30   1.110329 S    
C49   H34   1.109889 S    
C53   H39   1.106723 S    
C33   H11   1.081712 S    
C6    C10   1.578316 S    
C34   H12   1.081776 S    
C17   I7    2.124571 S    
C17   C22   1.400993 A    
C35   H13   1.081633 S    
C27   I1    2.144006 S    
C41   C42   1.225318 T    
C7    C11   1.544065 S    
C52   H42   1.108781 S    
C44   C45   1.528854 S    
O3    C2    1.274760 A    
C44   H19   1.105804 S    
C33   N1    1.364732 A    
C47   C48   1.529988 S    
C5    C10   1.572954 S    
C39   C41   1.472964 S    
C46   C47   1.544866 S    
O1    C1    1.277876 A    
C38   C40   1.411128 A    
C19   C21   1.401007 A    
C43   C44   1.558824 S    
C25   C27   1.397130 A    
C46   H28   1.109026 S    
C15   C16   1.184484 T    
C26   I10   2.144428 S    
C12   C52   1.595127 S    
Zn2   O8    1.967513 S    
C50   C51   1.530303 S    
C24   C30   1.410708 S    
C32   C40   1.405552 A    
C25   I9    2.144822 S    
C22   C23   1.408370 S    
C5    I5    2.165001 S    
C37   I3    2.117266 S    
C48   H23   1.111283 S    
C54   H38   1.110601 S    
C6    I6    2.166702 S    
C51   H31   1.110650 S    
C49   H35   1.103533 S    
C34   N2    1.364522 A    
C45   H17   1.110715 S    
C9    C14   1.184851 T    
Zn1   O5    1.985328 S    
C28   C29   1.407680 A    
O1    Zn1   1.985620 S    
C20   C21   1.401364 A    
O2    Zn2   1.985340 S    
C8    C11   1.565634 S    
O8    C4    1.273673 A    
O6    C3    1.280776 A    
C44   H18   1.110503 S    
O4    Zn2   1.967115 S    
C13   C43   1.624147 S    
C52   C53   1.544813 S    
C35   C37   1.410329 A    
C36   C38   1.410208 A    
C28   I2    2.145118 S    
C20   H8    1.083366 S    
O2    C1    1.277970 A    
C32   C34   1.409858 A    
C47   H26   1.103286 S    
C43   H20   1.096677 S    
C31   C33   1.409966 A    
C1    C29   1.440599 S    
C17   C19   1.386013 A    
C18   C20   1.385619 A    
C38   I4    2.117262 S    
C4    C9    1.397123 S    
C3    C21   1.451484 S    
C10   C13   1.629395 S    
Zn2   O6    1.985609 S    
C48   H24   1.110734 S    
C11   C12   1.631134 S    
C18   C22   1.400699 A    
C18   I8    2.124384 S    
Zn1   N1    1.983547 S    
C26   C30   1.402325 A    
