data_mof_unit_6226.cif
_audit_creation_date              2013-03-05T15:55:05-0500
_audit_creation_method            fapswitch 2.2
_symmetry_space_group_name_H-M    P1
_symmetry_Int_Tables_number       1
_space_group_crystal_system       triclinic
_cell_length_a                    15.123333
_cell_length_b                    15.006473
_cell_length_c                    14.995378
_cell_angle_alpha                 109.582558
_cell_angle_beta                  110.224921
_cell_angle_gamma                 108.858077
_cell_volume                      2611.30655088

loop_
_atom_site_label
_atom_site_type_symbol
_atom_site_description
_atom_site_fract_x
_atom_site_fract_y
_atom_site_fract_z
_atom_type_partial_charge
C1    C     C_R   0.200617 0.292070 0.197136 -0.134140
H1    H     H_    0.149645 0.324684 0.169357 0.107642
N1    N     N_R   0.291070 0.347930 0.293870 -0.046546
C2    C     C_R   0.602179 0.509191 0.805016 0.287210
N2    N     N_R   0.554050 0.497220 0.706150 -0.066824
C3    C     C_R   0.501067 0.200378 0.406501 -0.139645
H2    H     H_    0.480761 0.153477 0.322840 0.104060
N3    N     N_R   0.497240 0.291100 0.443210 -0.043000
C4    C     C_R   0.276780 0.538703 0.590900 -0.125784
H3    H     H_    0.296287 0.578530 0.675372 0.110276
N4    N     N_R   0.347890 0.554050 0.556810 -0.042000
C5    C     C_R   0.590717 0.288249 0.589627 -0.099041
H4    H     H_    0.648454 0.317062 0.673377 0.150066
N5    N     N_R   0.554050 0.347900 0.556830 -0.040909
C6    C     C_R   0.186842 0.439801 0.405987 -0.114913
H5    H     H_    0.124587 0.385749 0.320449 0.117375
N6    N     N_R   0.291070 0.497250 0.443190 -0.045804
C7    C     C_R   0.503545 0.592261 0.803980 -0.178713
H6    H     H_    0.476185 0.648422 0.832231 0.120347
N7    N     N_R   0.497240 0.554030 0.706140 -0.055681
C8    C     C_R   0.290094 0.199479 0.196429 -0.120632
H7    H     H_    0.319578 0.145322 0.168593 0.099543
N8    N     N_R   0.347890 0.291110 0.293870 -0.044619
C9    C     C_R   0.198362 0.199547 0.133914 0.105401
C10   C     C_R   0.568476 0.564339 0.867105 -0.008714
C11   C     C_R   0.559163 0.195779 0.496232 0.056333
C12   C     C_R   0.175071 0.468136 0.496496 0.045212
C13   C     C_R   0.445540 0.720290 0.406144 -0.141799
H8    H     H_    0.399896 0.696529 0.321632 0.105830
N9    N     N_R   0.445950 0.652100 0.443170 -0.039179
C14   C     C_R   0.799345 0.496290 0.591852 -0.068269
H9    H     H_    0.856136 0.528537 0.676987 0.133819
N10   N     N_R   0.708930 0.502750 0.556810 -0.044013
C15   C     C_R   0.562800 0.469552 0.250006 -0.128788
H10   H     H_    0.619294 0.441388 0.246355 0.111343
N11   N     N_R   0.502760 0.445970 0.293860 -0.044737
C16   C     C_R   0.723242 0.814145 0.757818 -0.132954
H11   H     H_    0.704704 0.878163 0.779162 0.155059
N12   N     N_R   0.652110 0.708890 0.706130 -0.047805
C17   C     C_R   0.814325 0.722896 0.755530 -0.009153
H12   H     H_    0.877038 0.701222 0.771844 0.157186
N13   N     N_R   0.708930 0.652070 0.706130 -0.045528
C18   C     C_R   0.464231 0.553269 0.237912 -0.124654
H13   H     H_    0.422812 0.593310 0.210462 0.099929
N14   N     N_R   0.445950 0.502780 0.293850 -0.041549
C19   C     C_R   0.536684 0.814109 0.589402 -0.140330
H14   H     H_    0.572610 0.878348 0.672093 0.139646
N15   N     N_R   0.502760 0.708900 0.556790 -0.041201
C20   C     C_R   0.703879 0.399670 0.409501 -0.157215
H15   H     H_    0.670535 0.338561 0.325406 0.096805
N16   N     N_R   0.652110 0.445950 0.443190 -0.040759
Ni1   Ni    Ni4+2 0.369690 0.500010 0.369700 0.219282
Ni2   Ni    Ni4+2 0.630310 0.499990 0.630300 0.264035
Ni3   Ni    Ni4+2 0.500000 0.369720 0.369720 0.207556
Ni4   Ni    Ni4+2 0.500000 0.630280 0.630280 0.231696
C21   C     C_R   0.509981 0.823284 0.496020 0.069558
C22   C     C_R   0.797444 0.431117 0.500413 0.055778
C23   C     C_R   0.540731 0.537221 0.214203 0.075059
C24   C     C_R   0.824867 0.825619 0.784213 0.091038
H16   H     H_    0.028712 0.565161 0.117873 0.171180
C25   C     C_R   0.093188 0.612444 0.288745 -0.099536
H17   H     H_    0.154675 0.693695 0.317790 0.127279
C26   C     C_R   0.083819 0.580623 0.364116 -0.116335
H18   H     H_    0.137997 0.638143 0.451387 0.130073
C27   C     C_R   0.004495 0.474983 0.326803 0.090579
C28   C     C_R   0.933589 0.402562 0.213118 -0.170258
H19   H     H_    0.871215 0.321244 0.182830 0.152384
C29   C     C_R   0.942821 0.435010 0.138106 -0.120020
H20   H     H_    0.887896 0.379090 0.050672 0.159445
C30   C     C_R   0.022432 0.539861 0.175941 -0.073671
C31   C     C_R   0.896175 0.422447 0.406497 -0.214325
H21   H     H_    0.835816 0.425081 0.343692 0.130889
C32   C     C_R   0.885756 0.418126 0.494343 0.069093
C33   C     C_R   0.968207 0.421578 0.579010 0.049533
C34   C     C_R   0.060458 0.431654 0.573940 -0.223841
H22   H     H_    0.124806 0.434127 0.638027 0.137591
C35   C     C_R   0.073354 0.445234 0.490837 0.067469
C36   C     C_R   0.991031 0.442316 0.406617 0.025921
C37   C     C_R   0.036512 0.519563 0.779473 -0.231582
H23   H     H_    0.083541 0.594609 0.784130 0.180207
C38   C     C_R   0.047019 0.519669 0.875831 0.411383
C39   C     C_R   0.989916 0.422289 0.870938 -0.132917
H24   H     H_    0.999583 0.421222 0.945446 0.128387
C40   C     C_R   0.921823 0.325278 0.769699 -0.166309
H25   H     H_    0.880849 0.249726 0.767044 0.146429
C41   C     C_R   0.909009 0.325346 0.672655 -0.141017
H26   H     H_    0.857735 0.249354 0.594911 0.130387
C42   C     C_R   0.966748 0.422625 0.677230 0.048528
C43   C     C_R   0.633346 0.525599 0.015973 0.231812
C44   C     C_R   0.600677 0.590167 0.979644 0.059521
C45   C     C_R   0.581222 0.664247 0.045762 -0.181387
H27   H     H_    0.560770 0.719227 0.023191 0.140304
C46   C     C_R   0.572934 0.656467 0.133307 -0.194586
H28   H     H_    0.546510 0.705705 0.176396 0.134030
C47   C     C_R   0.584578 0.574950 0.153874 0.035559
C48   C     C_R   0.626230 0.518778 0.102393 0.135253
C49   C     C_3   0.588870 0.399252 0.048826 -0.541646
C50   C     C_3   0.595884 0.406285 0.953615 -0.440450
H29   H     H_    0.649678 0.380971 0.094037 0.204835
H30   H     H_    0.504291 0.348024 0.026753 0.210918
H31   H     H_    0.659666 0.389830 0.944448 0.239153
H32   H     H_    0.515452 0.359734 0.876769 0.192706
C51   C     C_R   0.518579 0.919972 0.391863 0.111657
C52   C     C_R   0.554647 0.921359 0.491829 0.052939
C53   C     C_R   0.633761 0.020866 0.588755 -0.186746
H33   H     H_    0.672435 0.024815 0.666244 0.171525
C54   C     C_R   0.650083 0.117224 0.588699 -0.206810
H34   H     H_    0.697070 0.191661 0.667035 0.152758
C55   C     C_R   0.588442 0.112590 0.491033 0.039352
C56   C     C_R   0.535482 0.015251 0.391177 0.128139
C57   C     C_3   0.426059 0.958578 0.289720 -0.454614
C58   C     C_3   0.408518 0.854506 0.290721 -0.441939
H35   H     H_    0.368295 0.983500 0.304105 0.208224
H36   H     H_    0.432265 0.958311 0.217887 0.199975
H37   H     H_    0.341635 0.821606 0.306256 0.206225
H38   H     H_    0.405498 0.794624 0.219941 0.208141
C59   C     C_R   0.014430 0.116412 0.989753 0.143205
C60   C     C_R   0.113452 0.119639 0.021673 -0.023033
C61   C     C_R   0.120421 0.033459 0.956207 -0.243169
H39   H     H_    0.198117 0.037323 0.977124 0.167019
C62   C     C_R   0.026060 0.940080 0.864833 0.347937
C63   C     C_R   0.923829 0.930536 0.845147 -0.122023
C64   C     C_R   0.919483 0.021972 0.905640 0.102071
C65   C     C_3   0.876184 0.085877 0.863694 0.135253
C66   C     C_3   0.983431 0.187078 0.951473 -0.574290
H40   H     H_    0.858502 0.064042 0.778537 0.101601
H41   H     H_    0.032551 0.220823 0.918260 0.184207
H42   H     H_    0.978570 0.248653 0.013232 0.223690
Br1   Br    Br    0.742614 0.520132 0.863532 -0.637729
Br2   Br    Br    0.143170 0.652173 0.014025 -0.611949
Br3   Br    Br    0.044270 0.833871 0.769340 -0.584330
Br4   Br    Br    0.762005 0.093032 0.893272 -0.652442

loop_
_geom_bond_atom_site_label_1
_geom_bond_atom_site_label_2
_geom_bond_distance
_ccdc_geom_bond_type
C25   C30   1.397391 A    
N15   Ni4   1.865374 S    
C28   C29   1.397727 A    
C26   C27   1.406156 A    
C46   H28   1.082835 S    
C32   C33   1.410326 A    
C3    H2    1.079603 S    
N1    N8    1.392521 A    
C47   C48   1.395195 A    
C23   C47   1.447098 S    
C49   C50   1.503078 S    
C13   C21   1.369958 A    
C64   C65   1.506535 S    
N2    N7    1.392275 A    
C35   C36   1.409761 A    
C53   C54   1.386383 A    
C10   C44   1.451401 S    
C51   C56   1.373012 A    
N9    N15   1.381501 A    
C13   H8    1.069016 S    
C40   C41   1.400487 A    
C15   H10   1.077886 S    
N13   Ni2   1.867237 S    
C41   C42   1.402017 A    
C6    H5    1.078678 S    
C20   C22   1.373594 A    
C65   Br4   1.951262 S    
C1    H1    1.079723 S    
C22   C32   1.438927 S    
C25   C26   1.397954 A    
C56   C57   1.502843 S    
C52   C53   1.400582 A    
C18   C23   1.389241 A    
C60   C61   1.398548 A    
N12   Ni4   1.874674 S    
C57   C58   1.503433 S    
C29   H20   1.082614 S    
C20   N16   1.319204 A    
C66   H42   1.110963 S    
C54   H34   1.078316 S    
C14   N10   1.333523 A    
C4    H3    1.081163 S    
C15   N11   1.320328 A    
C24   C63   1.456201 S    
C17   N13   1.334053 A    
C28   H19   1.083215 S    
C46   C47   1.406108 A    
C17   C24   1.391379 A    
C8    H7    1.081235 S    
C54   C55   1.401632 A    
C7    C10   1.387464 A    
C62   Br3   1.921745 S    
N7    Ni4   1.865352 S    
N6    Ni1   1.880042 S    
C37   C42   1.405090 A    
C49   H29   1.112334 S    
C2    C10   1.376887 A    
N12   N13   1.392520 A    
C61   C62   1.394912 A    
N10   Ni2   1.880045 S    
C19   N15   1.334301 A    
C33   C34   1.385540 A    
C40   H25   1.081447 S    
C21   C52   1.440485 S    
N3    Ni3   1.865375 S    
C45   H27   1.081993 S    
C31   C32   1.399422 A    
C41   H26   1.083045 S    
C7    H6    1.080857 S    
C3    N3    1.315456 A    
N14   Ni1   1.879679 S    
C50   H32   1.112401 S    
C38   C39   1.398268 A    
C26   H18   1.083156 S    
C5    C11   1.386295 A    
C51   C58   1.494864 S    
C1    N1    1.322790 A    
C34   H22   1.085400 S    
C16   H11   1.064902 S    
C45   C46   1.399906 A    
C18   N14   1.343519 A    
C6    C12   1.372466 A    
C14   H9    1.077373 S    
H16   C30   1.080210 S    
C61   H39   1.082299 S    
C48   C49   1.498985 S    
N11   N14   1.392273 A    
C57   H35   1.112191 S    
C15   C23   1.375318 A    
C34   C35   1.394659 A    
C11   C55   1.441030 S    
C62   C63   1.418088 A    
C16   C24   1.382406 A    
C17   H12   1.075854 S    
C5    N5    1.333453 A    
C27   C28   1.406397 A    
C39   C40   1.397476 A    
C4    N4    1.330337 A    
C18   H13   1.074101 S    
C20   H15   1.082428 S    
C58   H38   1.112092 S    
C49   H30   1.112531 S    
N4    Ni4   1.875095 S    
C4    C12   1.388511 A    
N8    Ni3   1.874675 S    
C65   H40   1.111885 S    
N2    Ni2   1.879679 S    
C6    N6    1.315380 A    
N9    Ni1   1.867429 S    
C19   H14   1.075351 S    
N4    N6    1.381500 A    
N3    N5    1.381500 A    
C27   C36   1.487091 S    
C9    C60   1.441197 S    
C2    N2    1.323185 A    
C12   C35   1.428327 S    
N1    Ni1   1.867237 S    
C63   C64   1.405379 A    
C2    Br1   1.922784 S    
N10   N16   1.381500 A    
C50   H31   1.110499 S    
C53   H33   1.075785 S    
C37   C38   1.397354 A    
C43   C50   1.502273 S    
N16   Ni3   1.875095 S    
C14   C22   1.375896 A    
C43   C48   1.371000 A    
C8    N8    1.335277 A    
C59   C64   1.376670 A    
C31   H21   1.084277 S    
C16   N12   1.325616 A    
C59   C60   1.384224 A    
C44   C45   1.407023 A    
C3    C11   1.367943 A    
C13   N9    1.318328 A    
C57   H36   1.111917 S    
C7    N7    1.339567 A    
C31   C36   1.366820 A    
C25   H17   1.082634 S    
N11   Ni3   1.865350 S    
C38   Br2   1.909938 S    
C37   H23   1.083589 S    
N5    Ni2   1.867429 S    
C5    H4    1.077180 S    
C1    C9    1.375643 A    
C29   C30   1.397088 A    
C39   H24   1.081908 S    
C8    C9    1.380485 A    
C19   C21   1.384582 A    
C51   C52   1.396951 A    
C66   H41   1.112660 S    
C33   C42   1.475533 S    
C43   C44   1.398894 A    
C55   C56   1.402014 A    
C59   C66   1.489030 S    
C58   H37   1.112798 S    
C65   C66   1.503732 S    
