data_mof_unit_59076.cif
_audit_creation_date              2012-10-26T20:03:42-0400
_audit_creation_method            fapswitch 2.2
_symmetry_space_group_name_H-M    P1
_symmetry_Int_Tables_number       1
_space_group_crystal_system       triclinic
_cell_length_a                    12.336491
_cell_length_b                    13.159987
_cell_length_c                    15.836823
_cell_angle_alpha                 77.971289
_cell_angle_beta                  101.392386
_cell_angle_gamma                 116.596531
_cell_volume                      2232.5060953

loop_
_atom_site_label
_atom_site_type_symbol
_atom_type_description
_atom_site_fract_x
_atom_site_fract_y
_atom_site_fract_z
_atom_type_partial_charge
C1    C     C_R   0.854846 0.286460 0.507629 0.528691
C2    C     C_R   0.227936 0.834452 0.469433 -0.007219
C3    C     C_R   0.815210 0.085636 0.566456 -0.134254
C4    C     C_R   0.999851 0.500020 0.659955 0.549525
C5    C     C_R   0.736166 0.971004 0.584528 -0.143435
C6    C     C_R   0.612850 0.933001 0.553607 -0.130610
C7    C     C_R   0.566470 0.008927 0.500165 0.029094
C8    C     C_R   0.650208 0.122768 0.473588 0.023648
C9    C     C_R   0.439979 0.975430 0.471539 0.024288
C10   C     C_R   0.400803 0.051430 0.410349 0.047355
C11   C     C_R   0.486392 0.157703 0.377255 -0.143418
C12   C     C_3   0.000490 0.501209 0.916989 0.050791
C13   C     C_R   0.609310 0.192399 0.407509 -0.125327
C14   C     C_R   0.350807 0.868796 0.502377 -0.140375
C15   C     C_R   0.190171 0.910708 0.410281 -0.139931
C16   C     C_R   0.145070 0.713426 0.487622 0.539064
C17   C     C_R   0.773042 0.163223 0.513185 -0.003163
C18   C     C_R   0.357906 0.346347 0.647085 -0.149634
C19   C     C_R   0.762604 0.645641 0.383670 0.035271
C20   C     C_R   0.675832 0.689275 0.363349 -0.152574
C21   C     C_R   0.575716 0.645661 0.410740 -0.006077
C22   C     C_R   0.557179 0.546929 0.475622 -0.003379
C23   C     C_3   0.113441 0.528729 0.040941 -0.105972
C24   C     C_R   0.654712 0.510769 0.497257 0.166084
C25   C     C_R   0.451141 0.484196 0.522521 -0.016583
C26   C     C_R   0.455173 0.403137 0.596615 0.036261
C27   C     C_R   0.554332 0.375914 0.618776 -0.174439
C28   C     C_R   0.000372 0.500335 0.339984 0.542430
C29   C     C_R   0.649188 0.425128 0.568281 -0.093627
C30   C     C_R   0.338156 0.492359 0.497840 0.032527
C31   C     C_R   0.254564 0.366980 0.623135 0.044081
C32   C     C_3   0.924572 0.395335 0.034437 -0.091714
C33   C     C_3   0.887346 0.473417 0.959259 0.033238
C34   C     C_3   0.999071 0.500618 0.082514 0.043312
C35   C     C_1   0.000104 0.500651 0.749635 -0.040417
C36   C     C_1   0.000428 0.500403 0.250170 -0.042667
C37   C     C_3   0.039073 0.423778 0.991227 -0.110823
C38   C     C_3   0.760051 0.442343 0.908917 -0.255728
C39   C     C_3   0.665361 0.419347 0.968434 -0.299806
C40   C     C_3   0.538746 0.388614 0.917315 -0.454798
C41   C     C_3   0.507122 0.720261 0.396491 -0.259998
C42   C     C_3   0.425455 0.708478 0.308678 -0.304584
C43   C     C_3   0.341392 0.767708 0.299844 -0.441264
C44   C     C_3   0.074708 0.606129 0.965277 -0.110732
C45   C     C_3   0.960340 0.578339 0.008418 -0.092847
C46   C     C_1   0.000600 0.501099 0.825252 -0.072720
C47   C     C_1   0.999798 0.500501 0.174400 -0.071737
C48   C     C_R   0.276291 0.019165 0.381323 -0.134461
Cu1   Cu    Cu3+1 0.098270 0.475420 0.519690 0.919397
Cu2   Cu    Cu3+1 0.901730 0.524580 0.480310 0.911230
H1    H     H_    0.374303 0.809338 0.551354 0.119415
H2    H     H_    0.841315 0.684123 0.348292 0.127698
H3    H     H_    0.862622 0.309168 0.063924 0.095801
H4    H     H_    0.690982 0.762574 0.313177 0.093041
H5    H     H_    0.927538 0.641227 0.016726 0.094994
H6    H     H_    0.136496 0.692278 0.935663 0.102612
H7    H     H_    0.206716 0.551593 0.076195 0.102282
H8    H     H_    0.071752 0.360850 0.982820 0.100439
H9    H     H_    0.095216 0.884832 0.383685 0.120221
H10   H     H_    0.458219 0.214573 0.327805 0.105229
H11   H     H_    0.539301 0.460275 0.865605 0.156194
H12   H     H_    0.909107 0.114126 0.596211 0.127828
H13   H     H_    0.509544 0.309990 0.887066 0.146467
H14   H     H_    0.471842 0.372390 0.961832 0.139292
H15   H     H_    0.661832 0.347237 0.020625 0.159069
H16   H     H_    0.691446 0.496933 0.999256 0.159276
H17   H     H_    0.763448 0.514362 0.856694 0.146826
H18   H     H_    0.733982 0.364724 0.878161 0.139783
H19   H     H_    0.275937 0.724161 0.348743 0.176602
H20   H     H_    0.395370 0.859365 0.308871 0.163249
H21   H     H_    0.288694 0.762797 0.234131 0.136826
H22   H     H_    0.483707 0.747991 0.254883 0.154061
H23   H     H_    0.557120 0.843099 0.571127 0.099799
H24   H     H_    0.369024 0.616723 0.300767 0.160229
H25   H     H_    0.457221 0.706295 0.451762 0.139900
H26   H     H_    0.574758 0.811526 0.395611 0.149730
H27   H     H_    0.717742 0.394082 0.588270 0.185331
H28   H     H_    0.245973 0.076664 0.334352 0.104850
H29   H     H_    0.769944 0.911747 0.625220 0.118821
H30   H     H_    0.671756 0.273380 0.376508 0.149877
H31   H     H_    0.180089 0.325322 0.662678 0.119892
H32   H     H_    0.556774 0.312449 0.674272 0.105247
H33   H     H_    0.361821 0.286267 0.704669 0.086166
H34   H     H_    0.319213 0.538138 0.436897 0.136536
N1    N     N_R   0.246280 0.438200 0.549540 -0.233964
N2    N     N_R   0.754330 0.561180 0.450980 -0.238032
O1    O     O_R   0.972510 0.318130 0.524770 -0.498611
O2    O     O_R   0.806530 0.359650 0.491510 -0.526083
O3    O     O_R   0.082970 0.479240 0.637550 -0.496032
O4    O     O_R   0.916990 0.520750 0.604290 -0.510256
O5    O     O_R   0.193470 0.640350 0.508490 -0.511785
O6    O     O_R   0.027490 0.681870 0.475230 -0.500749
O7    O     O_R   0.083010 0.479250 0.395710 -0.501782
O8    O     O_R   0.917030 0.520760 0.362450 -0.508261

loop_
_geom_bond_atom_site_label_1
_geom_bond_atom_site_label_2
_ccdc_geom_bond_type
C1    O1    A    
C8    C13   A    
C31   N1    A    
C27   C29   A    
C33   C45   S    
C41   C42   S    
Cu1   O1    S    
C19   C20   A    
C18   C26   A    
C19   N2    A    
C7    C8    A    
C26   C27   A    
C40   H13   S    
C38   C39   S    
C36   C47   T    
C28   O8    A    
C48   H28   S    
C12   C37   S    
C24   C29   A    
C19   H2    S    
Cu2   O4    S    
C22   C25   A    
C5    H29   S    
C2    C16   S    
C9    C10   A    
C37   H8    S    
Cu2   O2    S    
C1    O2    A    
C13   H30   S    
C43   H19   S    
C21   C22   A    
C39   H15   S    
C15   C48   A    
Cu1   O5    S    
C4    O4    A    
C42   H24   S    
Cu1   N1    S    
C20   H4    S    
C39   C40   S    
Cu2   O8    S    
C25   C26   A    
C23   C37   S    
C40   H11   S    
C28   O7    A    
C12   C46   S    
C32   C34   S    
C9    C14   A    
C41   H25   S    
C44   H6    S    
C14   H1    S    
C23   C34   S    
C23   H7    S    
C42   H22   S    
C18   H33   S    
C34   C45   S    
C32   C37   S    
C38   H17   S    
C30   N1    A    
C2    C15   A    
C45   H5    S    
C21   C41   S    
Cu2   O6    S    
C38   H18   S    
C16   O6    A    
C43   H20   S    
C10   C48   A    
C39   H16   S    
C22   C24   A    
C42   C43   S    
C11   H10   S    
C32   H3    S    
C44   C45   S    
C6    H23   S    
C4    O3    A    
C3    H12   S    
C25   C30   A    
C7    C9    A    
C43   H21   S    
C15   H9    S    
C27   H32   S    
C33   C38   S    
Cu1   O3    S    
C3    C5    A    
C40   H14   S    
C6    C7    A    
C34   C47   S    
C1    C17   S    
C8    C17   A    
C31   H31   S    
C32   C33   S    
C12   C44   S    
C41   H26   S    
C11   C13   A    
C5    C6    A    
C3    C17   A    
C30   H34   S    
C2    C14   A    
C4    C35   S    
C10   C11   A    
Cu2   N2    S    
C29   H27   S    
C20   C21   A    
C28   C36   S    
C16   O5    A    
Cu1   Cu2   S    
C18   C31   A    
Cu1   O7    S    
C12   C33   S    
C35   C46   T    
C24   N2    A    
C23   C44   S    
