data_mof_unit_53356.cif
_audit_creation_date              2012-12-10T18:21:54-0500
_audit_creation_method            fapswitch 2.2
_symmetry_space_group_name_H-M    P1
_symmetry_Int_Tables_number       1
_space_group_crystal_system       triclinic
_cell_length_a                    19.343046
_cell_length_b                    10.716056
_cell_length_c                    9.519572
_cell_angle_alpha                 87.286424
_cell_angle_beta                  89.803174
_cell_angle_gamma                 89.262995
_cell_volume                      1970.84440537

loop_
_atom_site_label
_atom_site_type_symbol
_atom_type_description
_atom_site_fract_x
_atom_site_fract_y
_atom_site_fract_z
_atom_type_partial_charge
C1    C     C_R   0.500821 0.259679 0.502795 0.906455
C2    C     C_R   0.499702 0.740253 0.497204 0.912854
C3    C     C_3   0.502466 0.029946 0.637034 -0.469346
C4    C     C_3   0.498895 0.969716 0.362975 -0.469626
C5    C     C_3   0.556995 0.951178 0.560578 0.582047
C6    C     C_3   0.444305 0.048461 0.439352 0.582604
C7    C     C_3   0.499805 0.877128 0.492520 -0.315985
C8    C     C_3   0.501476 0.122651 0.507480 -0.313604
C9    C     C_3   0.445216 0.955491 0.566778 0.555220
C10   C     C_3   0.556115 0.044228 0.433258 0.551233
C11   C     C_3   0.519394 0.606685 0.043331 -0.012426
C12   C     C_3   0.481119 0.393105 0.956987 -0.003961
C13   C     C_3   0.458244 0.584925 0.946219 -0.030290
C14   C     C_3   0.542152 0.415581 0.053957 -0.031360
C15   C     C_3   0.560493 0.522085 0.948168 0.702563
C16   C     C_3   0.439630 0.478147 0.051536 0.705687
C17   C     C_R   0.367499 0.498939 0.500592 0.860502
C18   C     C_R   0.632299 0.501269 0.499368 0.862683
C19   C     C_R   0.253293 0.501167 0.628442 0.569893
C20   C     C_R   0.744799 0.533809 0.372699 0.564629
C21   C     C_R   0.180682 0.504716 0.627721 -0.014668
C22   C     C_R   0.817306 0.532572 0.370424 -0.026200
C23   C     C_R   0.145367 0.496028 0.498632 -0.040383
C24   C     C_R   0.854126 0.503317 0.496786 -0.056583
C25   C     C_R   0.182878 0.485954 0.371880 0.071426
C26   C     C_R   0.817358 0.475458 0.623419 0.079575
C27   C     C_R   0.255064 0.489214 0.375040 -0.257290
C28   C     C_R   0.745122 0.474888 0.621391 -0.245465
C29   C     C_R   0.290953 0.496737 0.501846 -0.179848
C30   C     C_R   0.708456 0.503479 0.497502 -0.172777
C31   C     C_R   0.930119 0.501240 0.496457 0.412638
C32   C     C_R   0.069717 0.497286 0.496307 0.413904
Cu1   Cu    Cu3+1 0.500020 0.499990 0.643150 1.005496
Cu2   Cu    Cu3+1 0.499980 0.500010 0.356850 1.002700
H1    H     H_    0.283293 0.483214 0.277571 0.246294
H2    H     H_    0.717458 0.451693 0.717996 0.219086
H3    H     H_    0.506720 0.047554 0.749700 0.185525
H4    H     H_    0.495743 0.951180 0.250375 0.189145
N1    N     N_R   0.034154 0.395590 0.543873 -0.250746
N2    N     N_R   0.965839 0.603022 0.449255 -0.244726
N3    N     N_R   0.965419 0.397355 0.543244 -0.244275
N4    N     N_R   0.034582 0.600919 0.448567 -0.252113
N5    N     N_3   0.500050 0.499970 0.858290 -0.258175
N6    N     N_3   0.499950 0.500030 0.141710 -0.255904
O1    O     O_R   0.500030 0.316850 0.620870 -0.609671
O2    O     O_R   0.499970 0.683150 0.379130 -0.608517
O3    O     O_R   0.500000 0.316860 0.379090 -0.571751
O4    O     O_R   0.500000 0.683140 0.620910 -0.571646
O5    O     O_R   0.400160 0.499980 0.620930 -0.553156
O6    O     O_R   0.599840 0.500020 0.379070 -0.558226
O7    O     O_R   0.400130 0.499990 0.379150 -0.537183
O8    O     O_R   0.599870 0.500010 0.620850 -0.534003
F1    F     F_    0.286857 0.502290 0.753334 -0.687990
F2    F     F_    0.709975 0.565653 0.252151 -0.685007
F3    F     F_    0.624781 0.546060 0.890233 -0.682379
F4    F     F_    0.375545 0.451719 0.108290 -0.695480
C33   C     C_3   0.142111 0.520641 0.765283 -0.376626
C34   C     C_3   0.114143 0.654642 0.775513 -0.332625
C35   C     C_3   0.088833 0.678198 0.923911 -0.861463
H5    H     H_    0.050250 0.607127 0.958178 0.251318
H6    H     H_    0.133007 0.674373 0.998220 0.257631
H7    H     H_    0.064287 0.772342 0.925759 0.254693
H8    H     H_    0.155223 0.722775 0.746612 0.232738
H9    H     H_    0.070354 0.671385 0.701884 0.241144
H10   H     H_    0.099089 0.453238 0.775879 0.199989
H11   H     H_    0.176655 0.498748 0.856334 0.255597
C36   C     C_3   0.853262 0.559621 0.230361 -0.357988
C37   C     C_3   0.854937 0.700670 0.194509 -0.275496
C38   C     C_3   0.894891 0.729375 0.058688 -0.843156
H12   H     H_    0.949319 0.696858 0.070702 0.255571
H13   H     H_    0.870804 0.682694 0.969757 0.257856
H14   H     H_    0.894480 0.831774 0.034528 0.248543
H15   H     H_    0.801354 0.738160 0.181982 0.260591
H16   H     H_    0.879898 0.749303 0.281147 0.233605
H17   H     H_    0.906468 0.519632 0.229674 0.194005
H18   H     H_    0.825312 0.512651 0.146152 0.221827
C39   C     C_3   0.147597 0.467498 0.232505 -0.399408
C40   C     C_3   0.124549 0.331731 0.222435 -0.303132
C41   C     C_3   0.091591 0.310615 0.080408 -0.848471
H19   H     H_    0.048487 0.378371 0.059780 0.246946
H20   H     H_    0.130804 0.321076 0.995526 0.261168
H21   H     H_    0.070830 0.214499 0.080228 0.251871
H22   H     H_    0.169941 0.267708 0.236781 0.245773
H23   H     H_    0.086330 0.307678 0.306198 0.236488
H24   H     H_    0.102657 0.532423 0.219086 0.208218
H25   H     H_    0.183582 0.490503 0.143864 0.213264
C42   C     C_3   0.852667 0.448416 0.763790 -0.382828
C43   C     C_3   0.854103 0.307656 0.801222 -0.316886
C44   C     C_3   0.891998 0.278317 0.939319 -0.843393
H26   H     H_    0.946494 0.308956 0.930312 0.259234
H27   H     H_    0.866252 0.326211 0.026524 0.246618
H28   H     H_    0.891569 0.176037 0.964133 0.249388
H29   H     H_    0.800362 0.272881 0.811021 0.221094
H30   H     H_    0.880448 0.257207 0.716444 0.246987
H31   H     H_    0.905911 0.485814 0.764254 0.206627
H32   H     H_    0.823992 0.497406 0.846874 0.206944
F5    F     F_    0.616270 0.899354 0.621042 -0.638652
F6    F     F_    0.385015 0.100186 0.378864 -0.643683
F7    F     F_    0.386347 0.908853 0.631388 -0.674543
F8    F     F_    0.615194 0.090199 0.368902 -0.679923
C45   C     C_3   0.407705 0.684897 0.884724 -0.267970
C46   C     C_3   0.355996 0.731458 0.994161 -0.374386
C47   C     C_3   0.297308 0.807587 0.924243 -0.764534
H33   H     H_    0.317824 0.886203 0.857764 0.305104
H34   H     H_    0.266374 0.747234 0.857512 0.280458
H35   H     H_    0.262945 0.845558 0.006026 0.235736
H36   H     H_    0.331839 0.652459 0.054046 0.282496
H37   H     H_    0.383047 0.789072 0.069988 0.207164
H38   H     H_    0.437195 0.765449 0.840279 0.213444
H39   H     H_    0.378740 0.645786 0.798242 0.293838
C48   C     C_3   0.597873 0.325574 0.115176 -0.282809
C49   C     C_3   0.640301 0.262740 0.000996 -0.392681
C50   C     C_3   0.703844 0.195152 0.063534 -0.788927
H40   H     H_    0.739865 0.263555 0.106593 0.262355
H41   H     H_    0.688731 0.126950 0.148854 0.311062
H42   H     H_    0.731166 0.144140 0.980613 0.236779
H43   H     H_    0.607596 0.195547 0.947774 0.212861
H44   H     H_    0.658667 0.332097 0.919952 0.268696
H45   H     H_    0.633490 0.379267 0.179158 0.273711
H46   H     H_    0.573531 0.252450 0.183644 0.239083
C51   C     C_3   0.546088 0.730816 0.091849 -0.353965
C52   C     C_3   0.583232 0.805941 0.973612 -0.299652
C53   C     C_3   0.601677 0.935435 0.018440 -0.846680
H47   H     H_    0.554265 0.992592 0.032525 0.243482
H48   H     H_    0.631382 0.928945 0.118200 0.291452
H49   H     H_    0.633999 0.981464 0.935110 0.276470
H50   H     H_    0.632289 0.758031 0.946536 0.302810
H51   H     H_    0.550606 0.815207 0.877991 0.245459
H52   H     H_    0.501009 0.784529 0.128463 0.193896
H53   H     H_    0.583037 0.712284 0.179592 0.268824
C54   C     C_3   0.454189 0.268203 0.911294 -0.341746
C55   C     C_3   0.430159 0.184586 0.037356 -0.325147
C56   C     C_3   0.396985 0.065637 0.990529 -0.821184
H54   H     H_    0.354154 0.089050 0.916120 0.279150
H55   H     H_    0.435547 0.004917 0.939830 0.248335
H56   H     H_    0.375514 0.013425 0.083894 0.274924
H57   H     H_    0.474548 0.159148 0.106675 0.218985
H58   H     H_    0.391189 0.233859 0.100482 0.312731
H59   H     H_    0.410645 0.286205 0.836929 0.254726
H60   H     H_    0.496858 0.220454 0.858032 0.196791

loop_
_geom_bond_atom_site_label_1
_geom_bond_atom_site_label_2
_ccdc_geom_bond_type
C42   C43   S    
C45   C46   S    
C12   C54   S    
C27   C29   A    
C1    C8    S    
Cu1   O1    S    
C2    C7    S    
C33   H11   S    
C17   O7    A    
C6    C9    S    
C18   O8    A    
C53   H47   S    
N1    N3    A    
C20   C30   A    
C39   C40   S    
C2    O2    A    
Cu1   O8    S    
Cu2   O7    S    
C25   C39   S    
C6    F6    S    
C19   C21   A    
C24   C26   A    
C12   N5    S    
C38   H12   S    
C49   H43   S    
C53   H48   S    
C37   H16   S    
C17   C29   S    
C31   N2    A    
C48   H45   S    
C26   C42   S    
C32   N1    A    
C52   H50   S    
C38   H13   S    
C54   H60   S    
C11   C15   S    
C40   H22   S    
C12   C16   S    
C55   C56   S    
C42   H31   S    
C56   H56   S    
C46   H37   S    
Cu2   O2    S    
C44   H27   S    
C16   N6    S    
C50   H42   S    
C19   F1    S    
N2    N4    A    
C45   H38   S    
C39   H24   S    
C35   H5    S    
C9    F7    S    
C11   C51   S    
C4    C7    S    
C49   C50   S    
C5    C7    S    
C34   H9    S    
C14   C48   S    
C43   H30   S    
Cu2   O6    S    
C35   H6    S    
C36   C37   S    
Cu1   N5    S    
C46   H36   S    
Cu2   N6    S    
C4    C6    S    
C3    C8    S    
C17   O5    A    
C41   H20   S    
C40   C41   S    
C37   C38   S    
C53   H49   S    
C6    C8    S    
C27   H1    S    
C55   H57   S    
C48   H46   S    
C15   F3    S    
C38   H14   S    
C16   F4    S    
C21   C33   S    
C3    C9    S    
C33   H10   S    
C42   H32   S    
Cu1   Cu2   S    
C11   N6    S    
C47   H34   S    
C51   H53   S    
C44   H28   S    
C10   F8    S    
C45   H39   S    
C3    H3    S    
C51   C52   S    
C18   C30   S    
C20   F2    S    
C12   C14   S    
C39   H25   S    
C21   C23   A    
C56   H54   S    
C22   C24   A    
C34   C35   S    
C36   H17   S    
C20   C22   A    
C13   C45   S    
C54   C55   S    
C19   C29   A    
C13   N5    S    
C18   O6    A    
C14   N6    S    
C50   H40   S    
C34   H8    S    
C7    C9    S    
C43   H29   S    
C35   H7    S    
C31   N3    A    
C48   C49   S    
C1    O3    A    
C4    C10   S    
C51   H52   S    
Cu1   O5    S    
C3    C5    S    
C41   H21   S    
C52   C53   S    
C36   H18   S    
C25   C27   A    
C26   C28   A    
C2    O4    A    
C23   C32   S    
C28   C30   A    
C37   H15   S    
C24   C31   S    
C15   N5    S    
C5    C10   S    
C49   H44   S    
C11   C13   S    
C1    O1    A    
C33   C34   S    
C5    F5    S    
C47   H35   S    
C23   C25   A    
C52   H51   S    
C46   C47   S    
C22   C36   S    
C54   H59   S    
C41   H19   S    
C40   H23   S    
C43   C44   S    
C28   H2    S    
C8    C10   S    
C13   C16   S    
C47   H33   S    
C56   H55   S    
Cu1   O4    S    
C32   N4    A    
C14   C15   S    
Cu2   O3    S    
C44   H26   S    
C4    H4    S    
C55   H58   S    
C50   H41   S    
