data_mof_unit_28744.cif
_audit_creation_date              2012-12-10T20:32:47-0500
_audit_creation_method            fapswitch 2.2
_symmetry_space_group_name_H-M    P1
_symmetry_Int_Tables_number       1
_space_group_crystal_system       triclinic
_cell_length_a                    11.533481
_cell_length_b                    10.702229
_cell_length_c                    9.863685
_cell_angle_alpha                 91.227511
_cell_angle_beta                  90.099194
_cell_angle_gamma                 90.187013
_cell_volume                      1217.22578523

loop_
_atom_site_label
_atom_site_type_symbol
_atom_type_description
_atom_site_fract_x
_atom_site_fract_y
_atom_site_fract_z
_atom_type_partial_charge
C1    C     C_R   0.503708 0.259950 0.498055 0.904516
C2    C     C_R   0.570908 0.577684 0.074371 -0.261119
C3    C     C_R   0.573996 0.575408 0.929267 0.496904
C4    C     C_R   0.281884 0.499567 0.499933 0.908733
C5    C     C_R   0.439533 0.411499 0.926868 0.058095
C6    C     C_3   0.313505 0.383589 0.917761 0.285632
C7    C     C_3   0.312426 0.384742 0.072614 -0.529497
C8    C     C_R   0.497638 0.739826 0.501099 0.919168
C9    C     C_R   0.718105 0.499869 0.500140 0.887059
C10   C     C_1   0.161462 0.498834 0.499973 -0.209128
C11   C     C_1   0.059283 0.498405 0.500391 -0.017266
C12   C     C_R   0.516808 0.127889 0.490063 -0.259952
C13   C     C_1   0.940668 0.498468 0.500699 -0.012240
C14   C     C_1   0.838501 0.499007 0.500529 -0.207638
C15   C     C_R   0.572441 0.064578 0.594000 -0.022537
C16   C     C_3   0.505090 0.086909 0.144706 0.115927
C17   C     C_3   0.626325 0.145366 0.151129 -0.861531
C18   C     C_3   0.180591 0.245978 0.822072 0.106449
C19   C     C_3   0.165557 0.114559 0.762672 -0.824212
C20   C     C_3   0.710231 0.237253 0.781003 0.182788
C21   C     C_3   0.827949 0.267193 0.843542 -0.897728
C22   C     C_3   0.763855 0.636228 0.893501 0.057460
C23   C     C_R   0.477509 0.060256 0.373852 0.535971
C24   C     C_3   0.816473 0.757552 0.951344 -0.352751
C25   C     C_3   0.942714 0.739409 0.992962 -0.948798
C26   C     C_R   0.465563 0.931811 0.382958 -0.343018
C27   C     C_R   0.501918 0.871718 0.499993 -0.166130
C28   C     C_R   0.562071 0.937877 0.600052 0.086536
C29   C     C_3   0.552221 0.940334 0.750938 -0.436980
C30   C     C_3   0.573139 0.080749 0.745590 0.264734
C31   C     C_R   0.439599 0.411153 0.068764 0.160001
H1    H     H_    0.262058 0.463839 0.117232 0.177126
H2    H     H_    0.511810 0.984024 0.128524 0.125526
H3    H     H_    0.674555 0.113147 0.241280 0.237988
H4    H     H_    0.675845 0.116402 0.059742 0.256337
H5    H     H_    0.620496 0.248805 0.155238 0.266483
H6    H     H_    0.155757 0.313680 0.742968 0.148346
H7    H     H_    0.122194 0.257224 0.911322 0.144890
H8    H     H_    0.187109 0.044547 0.840259 0.252330
H9    H     H_    0.074559 0.099909 0.729066 0.211476
H10   H     H_    0.223865 0.100916 0.674042 0.256144
H11   H     H_    0.644489 0.296843 0.832802 0.147384
H12   H     H_    0.292999 0.292218 0.116526 0.243308
H13   H     H_    0.714927 0.259443 0.671589 0.156816
H14   H     H_    0.895280 0.206521 0.796613 0.262320
H15   H     H_    0.850838 0.366272 0.825521 0.204242
H16   H     H_    0.826010 0.251933 0.954481 0.252929
H17   H     H_    0.810912 0.610517 0.798850 0.178107
H18   H     H_    0.779316 0.558561 0.965236 0.117435
H19   H     H_    0.812575 0.830996 0.873570 0.242796
H20   H     H_    0.765986 0.790022 0.041140 0.219565
H21   H     H_    0.948924 0.668929 0.073710 0.265227
H22   H     H_    0.978769 0.829333 0.032657 0.270796
H23   H     H_    0.423911 0.879945 0.300694 0.174759
H24   H     H_    0.995132 0.708025 0.904252 0.260516
H25   H     H_    0.463618 0.915575 0.786000 0.161668
H26   H     H_    0.623381 0.888596 0.799978 0.250136
H27   H     H_    0.501073 0.137061 0.790066 0.144642
H28   H     H_    0.624700 0.642911 0.131504 0.168334
H29   H     H_    0.263726 0.460572 0.870413 0.086511
H30   H     H_    0.460658 0.122592 0.053482 0.184259
N1    N     N_R   0.499240 0.499140 0.142800 -0.122690
N2    N     N_R   0.499240 0.499180 0.857150 -0.176433
O1    O     O_R   0.500010 0.316790 0.614690 -0.643827
O2    O     O_3   0.297389 0.262725 0.860551 -0.600284
O3    O     O_3   0.685009 0.109493 0.797136 -0.617435
O4    O     O_3   0.645738 0.655563 0.859603 -0.623083
O5    O     O_R   0.500000 0.316760 0.385350 -0.553848
O6    O     O_R   0.334450 0.500030 0.614670 -0.622535
O7    O     O_R   0.334440 0.500000 0.385330 -0.605720
O8    O     O_R   0.500000 0.683240 0.614650 -0.576410
O9    O     O_R   0.499990 0.683210 0.385310 -0.629177
O10   O     O_R   0.665560 0.500000 0.614670 -0.613652
O11   O     O_R   0.665550 0.499970 0.385330 -0.615171
O12   O     O_3   0.437318 0.120490 0.259728 -0.612776
Zn1   Zn    Zn3+2 0.500010 0.500020 0.653130 0.966700
Zn2   Zn    Zn3+2 0.499990 0.499980 0.346870 0.958499

loop_
_geom_bond_atom_site_label_1
_geom_bond_atom_site_label_2
_ccdc_geom_bond_type
C22   H17   S    
C16   O12   S    
N1    Zn2   S    
C4    O7    A    
C18   O2    S    
C12   C23   A    
C26   C27   A    
O9    Zn2   S    
C20   O3    S    
C28   C29   S    
C18   H6    S    
C25   H22   S    
C5    C6    S    
N2    Zn1   S    
C1    O5    A    
C5    N2    A    
O6    Zn1   S    
C18   C19   S    
C23   C26   A    
C6    O2    S    
C16   C17   S    
O11   Zn2   S    
C16   H30   S    
C17   H5    S    
C7    H12   S    
C24   H20   S    
C13   C14   T    
O7    Zn2   S    
C31   N1    A    
C1    C12   S    
C9    O10   A    
C26   H23   S    
C4    O6    A    
C20   H13   S    
C21   H14   S    
C24   H19   S    
C8    O9    A    
C7    C31   S    
C6    H29   S    
C24   C25   S    
C19   H9    S    
C2    H28   S    
C9    C14   S    
C29   C30   S    
C16   H2    S    
C12   C15   A    
O1    Zn1   S    
C30   O3    S    
C19   H8    S    
C22   H18   S    
C29   H26   S    
O10   Zn1   S    
C22   C24   S    
C9    O11   A    
C4    C10   S    
C1    O1    A    
C15   C30   S    
C21   H15   S    
O5    Zn2   S    
C8    O8    A    
C7    H1    S    
C3    O4    S    
C25   H24   S    
C23   O12   S    
C20   H11   S    
C6    C7    S    
C29   H25   S    
C3    N2    A    
C2    C3    A    
C18   H7    S    
C25   H21   S    
C11   C13   S    
C15   C28   A    
O8    Zn1   S    
C30   H27   S    
C22   O4    S    
C10   C11   T    
C2    N1    A    
C20   C21   S    
C17   H3    S    
C27   C28   A    
C8    C27   S    
C17   H4    S    
C21   H16   S    
C19   H10   S    
C5    C31   A    
