data_mof_unit_50249.cif
_audit_creation_date              2012-12-11T17:07:31-0500
_audit_creation_method            fapswitch 2.2
_symmetry_space_group_name_H-M    P1
_symmetry_Int_Tables_number       1
_space_group_crystal_system       triclinic
_cell_length_a                    6.960955
_cell_length_b                    14.498701
_cell_length_c                    16.079421
_cell_angle_alpha                 89.969926
_cell_angle_beta                  89.954524
_cell_angle_gamma                 89.985738
_cell_volume                      1622.81164765

loop_
_atom_site_label
_atom_site_type_symbol
_atom_type_description
_atom_site_fract_x
_atom_site_fract_y
_atom_site_fract_z
_atom_type_partial_charge
O1    O     O_R   0.505720 0.583900 0.413310 -0.540612
O2    O     O_R   0.175940 0.594920 0.586080 -0.553169
O3    O     O_R   0.005640 0.416100 0.586690 -0.543114
C1    C     C_R   0.344590 0.616667 0.615055 0.673799
O4    O     O_R   0.176000 0.594930 0.413930 -0.547286
O5    O     O_R   0.005700 0.416110 0.413310 -0.532645
C2    C     C_R   0.344723 0.616666 0.385037 0.767411
O6    O     O_R   0.505660 0.583890 0.586690 -0.547097
O7    O     O_3   0.339200 0.441330 0.500000 -0.358581
V1    V     V_3+5 0.064350 0.510880 0.500000 1.448602
O8    O     O_R   0.675980 0.405080 0.413920 -0.518242
C3    C     C_R   0.845019 0.383355 0.384964 0.819101
O9    O     O_R   0.675920 0.405070 0.586070 -0.521938
C4    C     C_R   0.844840 0.382479 0.614043 0.816337
V2    V     V_3+5 0.564340 0.489120 0.500000 1.507798
O10   O     O_3   0.839360 0.558670 0.500000 -0.393367
H1    H     H_    0.696121 0.066118 0.513528 0.152715
C5    C     C_R   0.942071 0.438174 0.780638 -0.157987
C6    C     C_R   0.989949 0.467860 0.860369 -0.101748
C7    C     C_R   0.002316 0.404779 0.925222 -0.084909
C8    C     C_R   0.966765 0.311567 0.910834 -0.145701
C9    C     C_R   0.918589 0.279284 0.830422 0.073868
C10   C     C_R   0.906091 0.343802 0.763840 0.055379
C11   C     C_R   0.879128 0.184788 0.816194 -0.141785
C12   C     C_R   0.826604 0.154692 0.735394 0.010869
C13   C     C_R   0.816545 0.218685 0.667986 -0.044967
C14   C     C_R   0.855431 0.313790 0.682638 -0.182976
C15   C     C_R   0.786603 0.060500 0.720170 -0.151138
C16   C     C_R   0.738570 0.029524 0.641095 -0.229231
C17   C     C_R   0.731325 0.091040 0.575127 -0.152376
C18   C     C_R   0.770498 0.184330 0.587448 0.588215
H2    H     H_    0.932361 0.490243 0.732659 0.082951
H3    H     H_    0.016667 0.540303 0.871934 0.132139
H4    H     H_    0.038642 0.428235 0.987157 0.147643
H5    H     H_    0.976077 0.265426 0.963583 0.097898
H6    H     H_    0.792820 0.009523 0.769116 0.117895
H7    H     H_    0.708470 0.957165 0.630790 0.147617
C19   C     C_R   0.728023 0.249534 0.188096 0.008771
C20   C     C_R   0.882149 0.187836 0.181137 -0.107678
C21   C     C_R   0.033179 0.197083 0.238813 -0.133861
H8    H     H_    0.155313 0.151191 0.235845 0.134410
C22   C     C_R   0.021317 0.260927 0.304719 -0.061435
H9    H     H_    0.135357 0.262897 0.350294 0.136932
C23   C     C_R   0.857988 0.317254 0.314932 -0.156037
C24   C     C_R   0.716495 0.312796 0.253233 0.072292
C25   C     C_3   0.505479 0.299064 0.261818 0.489150
C26   C     C_3   0.517787 0.230535 0.190518 -0.443433
H10   H     H_    0.463885 0.268398 0.322531 0.053551
H11   H     H_    0.443746 0.253968 0.133024 0.203301
H12   H     H_    0.486478 0.158382 0.209561 0.134884
C27   C     C_R   0.512121 0.744884 0.691391 0.103730
C28   C     C_R   0.352875 0.686884 0.681912 -0.097287
C29   C     C_R   0.199675 0.698192 0.738176 -0.178162
H13   H     H_    0.075515 0.653916 0.734035 0.129531
C30   C     C_R   0.211528 0.761943 0.804095 -0.171755
H14   H     H_    0.094803 0.765876 0.848338 0.142847
C31   C     C_R   0.377721 0.815716 0.816087 -0.091182
C32   C     C_R   0.524601 0.807611 0.756996 0.096646
C33   C     C_3   0.731724 0.786428 0.770424 -0.421676
C34   C     C_3   0.718244 0.719077 0.698542 -0.403115
H15   H     H_    0.757577 0.752214 0.831311 0.190630
H16   H     H_    0.826063 0.846259 0.756767 0.167587
H17   H     H_    0.737662 0.645935 0.717622 0.167323
H18   H     H_    0.802615 0.740785 0.643160 0.174325
C35   C     C_R   0.485793 0.673437 0.250321 0.044346
C36   C     C_R   0.352028 0.682753 0.314955 -0.166593
C37   C     C_R   0.217345 0.755021 0.308496 -0.246915
H19   H     H_    0.108111 0.763668 0.355869 0.156212
C38   C     C_R   0.231390 0.821166 0.244382 0.701522
C39   C     C_R   0.375938 0.814441 0.182874 -0.203322
C40   C     C_R   0.496157 0.736951 0.185498 -0.071425
C41   C     C_3   0.709858 0.729930 0.182127 0.697206
C42   C     C_3   0.698276 0.660017 0.252659 -0.419428
H20   H     H_    0.763577 0.684676 0.311705 0.185270
H21   H     H_    0.739947 0.588912 0.234210 0.164708
O11   O     O_R   0.229140 0.916090 0.913340 -0.546806
O12   O     O_R   0.558860 0.905090 0.086080 -0.510194
O13   O     O_R   0.729100 0.083920 0.086690 -0.537312
C43   C     C_R   0.389900 0.883568 0.115235 0.794725
O14   O     O_R   0.558860 0.905090 0.913930 -0.544358
O15   O     O_R   0.729100 0.083920 0.913310 -0.544213
C44   C     C_R   0.389918 0.882476 0.885660 0.685513
O16   O     O_R   0.229140 0.916080 0.086720 -0.502672
O17   O     O_3   0.395570 0.058660 0.000020 -0.386450
V3    V     V_3+5 0.670450 0.989140 0.000000 1.519679
O18   O     O_R   0.058810 0.094980 0.913910 -0.546040
C45   C     C_R   0.889874 0.117254 0.885757 0.666849
O19   O     O_R   0.058810 0.094980 0.086060 -0.544660
C46   C     C_R   0.890020 0.117136 0.114696 0.754330
V4    V     V_3+5 0.170450 0.010950 0.999970 1.497612
O20   O     O_3   0.895460 0.941370 0.999990 -0.347470
F1    F     F_    0.404734 0.377992 0.240697 -0.671734
F2    F     F_    0.113842 0.895823 0.246596 -0.639767
F3    F     F_    0.796938 0.811321 0.205884 -0.622773
I1    I     I_    0.814248 0.676075 0.066640 -0.417805
F4    F     F_    0.765725 0.239068 0.519176 -0.729687

loop_
_geom_bond_atom_site_label_1
_geom_bond_atom_site_label_2
_ccdc_geom_bond_type
C30   H14   S    
C42   H20   S    
C29   C30   A    
C6    C7    A    
C1    O6    A    
V3    O20   S    
C26   H11   S    
C29   H13   S    
C23   C24   A    
C12   C15   A    
C13   C14   A    
C16   C17   A    
C22   C23   A    
C1    C28   S    
C34   H17   S    
C15   C16   A    
C38   F2    S    
O5    C3    A    
C17   C18   A    
C25   F1    S    
C18   F4    S    
C31   C44   S    
C35   C42   S    
C5    C6    A    
C19   C24   A    
C41   I1    S    
O8    V2    S    
C39   C40   A    
O1    V2    S    
C10   C14   A    
C4    C14   S    
O7    V1    S    
C7    H4    S    
C21   C22   A    
C36   C37   A    
O12   V3    S    
C33   C34   S    
O9    C4    A    
H1    C17   S    
C42   H21   S    
O17   V4    S    
O4    V1    S    
C26   H12   S    
C31   C32   A    
O12   C43   A    
O13   C46   A    
C25   H10   S    
C33   H15   S    
C5    C10   A    
C11   C12   A    
O14   C44   A    
O18   V4    S    
O11   C44   A    
C20   C21   A    
O4    C2    A    
O18   C45   A    
C32   C33   S    
C24   C25   S    
C37   H19   S    
C37   C38   A    
O2    C1    A    
O14   V3    S    
C7    C8    A    
C27   C32   A    
O17   V3    S    
C19   C26   S    
O15   C45   A    
O3    C4    A    
O13   V3    S    
C21   H8    S    
O19   V4    S    
O6    V2    S    
C30   C31   A    
C6    H3    S    
C9    C11   A    
C5    H2    S    
C22   H9    S    
O2    V1    S    
C28   C29   A    
O16   V4    S    
C25   C26   S    
C33   H16   S    
C39   C43   S    
O1    C2    A    
C41   C42   S    
O5    V1    S    
O8    C3    A    
C8    H5    S    
C34   H18   S    
O9    V2    S    
C12   C13   A    
C41   F3    S    
C27   C28   A    
C3    C23   S    
O3    V1    S    
C35   C40   A    
C2    C36   S    
C43   O16   A    
V4    O20   S    
C19   C20   A    
O7    V2    S    
C38   C39   A    
C11   C45   S    
C13   C18   A    
C40   C41   S    
O19   C46   A    
C15   H6    S    
C35   C36   A    
C16   H7    S    
C9    C10   A    
V1    O10   S    
C27   C34   S    
C8    C9    A    
C20   C46   S    
O15   V3    S    
V2    O10   S    
O11   V4    S    
