data_mof_unit_10451.cif
_audit_creation_date              2012-12-10T19:11:18-0500
_audit_creation_method            fapswitch 2.2
_symmetry_space_group_name_H-M    P1
_symmetry_Int_Tables_number       1
_space_group_crystal_system       triclinic
_cell_length_a                    15.925443
_cell_length_b                    9.093507
_cell_length_c                    7.786224
_cell_angle_alpha                 89.995513
_cell_angle_beta                  90.113836
_cell_angle_gamma                 89.999343
_cell_volume                      1127.58415012

loop_
_atom_site_label
_atom_site_type_symbol
_atom_type_description
_atom_site_fract_x
_atom_site_fract_y
_atom_site_fract_z
_atom_type_partial_charge
C1    C     C_R   0.499999 0.220024 0.500004 0.841231
C2    C     C_1   0.824764 0.490651 0.502735 -0.070513
C3    C     C_1   0.175239 0.490298 0.499812 -0.070473
C4    C     C_R   0.339840 0.499932 0.499835 0.820787
C5    C     C_R   0.660160 0.499932 0.500198 0.820980
C6    C     C_1   0.499999 0.934635 0.499994 -0.178262
C7    C     C_1   0.499999 0.065377 0.500006 -0.178436
C8    C     C_R   0.500000 0.779985 0.499996 0.841010
C9    C     C_3   0.050111 0.432129 0.682870 0.037371
C10   C     C_3   0.048240 0.383668 0.351381 0.046841
C11   C     C_3   0.951837 0.448637 0.689944 0.046811
C12   C     C_3   0.949972 0.371139 0.366127 0.035501
C13   C     C_1   0.749506 0.495922 0.500999 -0.180819
C14   C     C_1   0.250495 0.495774 0.499514 -0.180641
C15   C     C_3   0.083166 0.482032 0.501454 0.247232
C16   C     C_3   0.916842 0.482598 0.505174 0.247310
C17   C     C_3   0.951402 0.637026 0.455258 -0.530020
C18   C     C_3   0.048453 0.639829 0.469392 -0.531606
Cu1   Cu    Cu3+1 0.500000 0.500010 0.669080 1.001964
Cu2   Cu    Cu3+1 0.500000 0.500010 0.330920 1.002399
N1    N     N_1   0.500000 0.499970 0.076820 -0.047236
N2    N     N_1   0.500000 0.499970 0.923180 -0.047285
O1    O     O_R   0.500000 0.288400 0.642760 -0.577336
O2    O     O_R   0.500000 0.288400 0.357240 -0.577322
O3    O     O_R   0.379440 0.500020 0.642850 -0.577480
O4    O     O_R   0.379440 0.500020 0.357150 -0.578210
O5    O     O_R   0.620560 0.500020 0.642850 -0.578893
O6    O     O_R   0.620560 0.500020 0.357150 -0.577267
O7    O     O_R   0.500000 0.711620 0.642810 -0.577345
O8    O     O_R   0.500000 0.711620 0.357190 -0.577284
H1    H     H_    0.067470 0.714325 0.576101 0.186188
H2    H     H_    0.075157 0.687063 0.349361 0.191855
H3    H     H_    0.924629 0.723681 0.540106 0.190724
H4    H     H_    0.932337 0.665200 0.321567 0.187697
C19   C     C_3   0.904324 0.329397 0.792991 -0.868229
H5    H     H_    0.906860 0.219658 0.733227 0.248583
H6    H     H_    0.931010 0.321117 0.924483 0.224239
H7    H     H_    0.837301 0.360130 0.808178 0.238789
C20   C     C_3   0.916109 0.212691 0.384571 -0.846480
H8    H     H_    0.950909 0.148531 0.481638 0.240146
H9    H     H_    0.848439 0.212150 0.418001 0.236393
H10   H     H_    0.922296 0.153985 0.260151 0.224084
C21   C     C_3   0.084160 0.282254 0.745456 -0.847531
H11   H     H_    0.049472 0.188616 0.689830 0.239081
H12   H     H_    0.151849 0.269654 0.715605 0.238900
H13   H     H_    0.077971 0.274837 0.887225 0.223244
C22   C     C_3   0.095931 0.238269 0.318001 -0.868855
H14   H     H_    0.093556 0.161072 0.426971 0.249275
H15   H     H_    0.069283 0.182431 0.203421 0.226410
H16   H     H_    0.162907 0.260676 0.288778 0.235878
H17   H     H_    0.060148 0.446549 0.230719 0.126603
H18   H     H_    0.076154 0.512385 0.777410 0.122136
H19   H     H_    0.923818 0.409090 0.240691 0.122687
H20   H     H_    0.939817 0.549662 0.767498 0.125171

loop_
_geom_bond_atom_site_label_1
_geom_bond_atom_site_label_2
_ccdc_geom_bond_type
C15   C18   S    
Cu1   O1    S    
C21   H11   S    
C6    C7    T    
C3    C14   T    
C20   H10   S    
C5    O6    A    
C2    C16   S    
C11   C16   S    
C4    O4    A    
Cu1   Cu2   S    
C5    O5    A    
C8    O8    A    
C19   H7    S    
C12   C20   S    
C11   C19   S    
C4    O3    A    
C9    C15   S    
C3    C15   S    
C22   H15   S    
C9    H18   S    
N1    N2    T    
Cu2   O8    S    
C21   H12   S    
C12   H19   S    
C17   H3    S    
C12   C16   S    
C10   H17   S    
C10   C12   S    
C11   H20   S    
C19   H6    S    
C1    O1    A    
C22   H16   S    
C10   C15   S    
C9    C11   S    
C4    C14   S    
Cu1   O3    S    
C21   H13   S    
C9    C21   S    
C18   H2    S    
C17   H4    S    
C8    O7    A    
Cu1   O7    S    
C22   H14   S    
Cu2   O2    S    
C20   H8    S    
Cu1   N2    S    
Cu1   O5    S    
Cu2   N1    S    
C20   H9    S    
C1    O2    A    
C17   C18   S    
C10   C22   S    
C2    C13   T    
C6    C8    S    
C18   H1    S    
Cu2   O6    S    
C1    C7    S    
C5    C13   S    
C19   H5    S    
C16   C17   S    
Cu2   O4    S    
