data_mof_unit_39574.cif
_audit_creation_date              2012-12-11T14:15:36-0500
_audit_creation_method            fapswitch 2.2
_symmetry_space_group_name_H-M    P1
_symmetry_Int_Tables_number       1
_space_group_crystal_system       triclinic
_cell_length_a                    11.147316
_cell_length_b                    12.683395
_cell_length_c                    23.573444
_cell_angle_alpha                 89.760974
_cell_angle_beta                  96.654544
_cell_angle_gamma                 68.66891
_cell_volume                      3079.83945976

loop_
_atom_site_label
_atom_site_type_symbol
_atom_type_description
_atom_site_fract_x
_atom_site_fract_y
_atom_site_fract_z
_atom_type_partial_charge
C1    C     C_R   0.149406 0.617650 0.429107 0.549490
C2    C     C_R   0.626561 0.578697 0.312779 -0.025256
C3    C     C_R   0.699505 0.738797 0.318242 0.009720
C4    C     C_R   0.703293 0.740158 0.258160 -0.000317
C5    C     C_R   0.676058 0.654161 0.226911 0.050996
C6    C     C_R   0.686608 0.649847 0.168275 0.240120
C7    C     C_R   0.720083 0.828183 0.167555 -0.042273
C8    C     C_R   0.737075 0.821496 0.228227 0.212637
C9    C     C_1   0.235856 0.162044 0.122412 0.058350
C10   C     C_2   0.182774 0.233088 0.225761 0.031575
C11   C     C_2   0.148090 0.168536 0.262899 0.036741
C12   C     C_R   0.745940 0.606571 0.404307 0.543559
C13   C     C_1   0.129514 0.200743 0.321147 -0.001719
C14   C     C_1   0.211036 0.196704 0.168931 -0.005988
C15   C     C_1   0.115368 0.232600 0.368981 0.066755
C16   C     C_1   0.168147 0.748036 0.123358 0.072403
C17   C     C_2   0.152037 0.682438 0.228648 0.258283
C18   C     C_2   0.228888 0.699126 0.274239 0.047667
C19   C     C_1   0.214948 0.664923 0.331011 -0.007337
C20   C     C_1   0.158563 0.717633 0.170625 0.022478
C21   C     C_1   0.193697 0.640104 0.377262 0.037977
C22   C     C_1   0.601279 0.769647 0.860317 0.052159
C23   C     C_R   0.101152 0.282198 0.423628 0.562291
C24   C     C_2   0.601961 0.756064 0.748607 0.000831
C25   C     C_2   0.649945 0.653534 0.725018 -0.004341
C26   C     C_1   0.666667 0.645590 0.665316 -0.004921
C27   C     C_1   0.606854 0.763852 0.809760 -0.038887
C28   C     C_1   0.694675 0.631553 0.617495 0.093359
C29   C     C_R   0.193253 0.188565 0.853658 -0.030873
C30   C     C_R   0.117108 0.208142 0.638578 -0.022932
C31   C     C_R   0.006692 0.164758 0.714154 0.319437
C32   C     C_R   0.013312 0.181109 0.655311 0.194383
C33   C     C_R   0.222615 0.199314 0.679801 -0.001380
C34   C     C_R   0.148038 0.614823 0.591009 0.616315
C35   C     C_R   0.200865 0.211552 0.737177 -0.074710
C36   C     C_R   0.098298 0.184773 0.755538 0.017916
C37   C     C_R   0.092957 0.175929 0.814858 0.231928
C38   C     C_R   0.269398 0.246583 0.834691 -0.024368
C39   C     C_R   0.272953 0.258032 0.775482 0.169030
C40   C     C_R   0.133826 0.746059 0.851674 0.081881
C41   C     C_R   0.178067 0.627404 0.650752 0.104910
C42   C     C_R   0.324235 0.597865 0.736908 -0.123420
C43   C     C_R   0.305201 0.587714 0.678003 0.203764
C44   C     C_R   0.072218 0.671037 0.681816 0.241560
C45   C     C_R   0.747703 0.602442 0.564995 0.570396
C46   C     C_R   0.091810 0.705660 0.736819 -0.032040
C47   C     C_R   0.218510 0.659025 0.766192 -0.052211
C48   C     C_R   0.237790 0.673782 0.824232 0.176434
C49   C     C_R   0.009081 0.798961 0.821671 0.180947
C50   C     C_R   0.988171 0.782148 0.763114 -0.007475
C51   C     C_R   0.265779 0.109893 0.069255 0.566718
C52   C     C_R   0.603800 0.772802 0.080650 0.592567
C53   C     C_R   0.189397 0.786974 0.069538 0.571605
C54   C     C_R   0.239773 0.117284 0.907562 0.566164
C55   C     C_R   0.572376 0.777706 0.917847 0.560027
C56   C     C_R   0.101670 0.274734 0.584578 0.557471
C57   C     C_R   0.165194 0.786664 0.907007 0.601430
C58   C     C_R   0.682357 0.746693 0.137817 0.008805
C59   C     C_R   0.679813 0.647702 0.345564 -0.078225
C60   C     C_R   0.626558 0.580953 0.253227 0.302443
Cr1   Cr    Cr6+3 0.189770 0.415650 0.511620 1.137946
Cr2   Cr    Cr6+3 0.930400 0.667320 0.496770 1.122242
Cr3   Cr    Cr6+3 0.879870 0.417010 0.491650 1.089136
Cr4   Cr    Cr6+3 0.149500 0.973980 0.985330 1.115288
Cr5   Cr    Cr6+3 0.457000 0.976510 0.994660 1.110126
Cr6   Cr    Cr6+3 0.411170 0.724270 0.995270 1.110189
H1    H     H_    0.421894 0.560506 0.758784 0.163442
O1    O     O_R   0.196340 0.303200 0.448500 -0.474213
O2    O     O_R   0.811960 0.658090 0.547150 -0.440020
O3    O     O_R   0.757930 0.506140 0.547110 -0.504374
O4    O     O_R   0.988670 0.321620 0.556040 -0.494198
O5    O     O_3   0.000020 0.499990 0.500010 -0.289565
O6    O     O_R   0.113660 0.883270 0.047820 -0.464749
O7    O     O_R   0.186930 0.068530 0.043990 -0.479426
O8    O     O_R   0.377770 0.089040 0.054220 -0.494686
O9    O     O_R   0.562800 0.872960 0.056970 -0.464267
O10   O     O_R   0.555390 0.700940 0.062700 -0.501429
O11   O     O_R   0.295020 0.731920 0.049950 -0.503235
O12   O     O_R   0.199310 0.519670 0.454880 -0.482749
O13   O     O_R   0.094290 0.884230 0.921550 -0.445713
O14   O     O_R   0.168980 0.069410 0.926940 -0.496200
O15   O     O_R   0.358400 0.089990 0.927950 -0.486454
O16   O     O_R   0.544850 0.873850 0.939920 -0.495795
O17   O     O_R   0.536020 0.701900 0.936430 -0.468171
O18   O     O_R   0.277070 0.732810 0.932890 -0.461004
O19   O     O_3   0.339220 0.891590 0.991750 -0.297520
O20   O     O_R   0.045660 0.691380 0.441680 -0.521478
O21   O     O_R   0.811930 0.659460 0.430950 -0.490186
O22   O     O_R   0.757900 0.507620 0.421760 -0.503240
O23   O     O_R   0.988630 0.322990 0.439840 -0.494179
O24   O     O_R   0.196380 0.301720 0.573850 -0.452439
O25   O     O_R   0.199350 0.518300 0.571080 -0.466705
O26   O     O_R   0.045700 0.689900 0.567030 -0.456097
O27   O     O_3   0.705515 0.550453 0.140637 -0.621794
H2    H     H_    0.618917 0.546676 0.129210 0.387610
O28   O     O_3   0.064247 0.632130 0.237975 -0.664801
H3    H     H_    0.015668 0.627492 0.200630 0.328562
C61   C     C_2   0.702876 0.542662 0.758481 0.196089
H4    H     H_    0.756965 0.466561 0.737848 0.132046
O29   O     O_2   0.684960 0.533392 0.808062 -0.484517
C62   C     C_2   0.538396 0.865750 0.714664 0.236846
H5    H     H_    0.511285 0.944391 0.736768 0.086665
O30   O     O_2   0.512992 0.870463 0.662718 -0.434569
O31   O     O_3   0.994669 0.149229 0.834069 -0.597072
H6    H     H_    0.974870 0.187346 0.870337 0.342178
C63   C     C_2   0.349257 0.290018 0.876272 0.275742
H7    H     H_    0.439387 0.295116 0.865918 0.137363
O32   O     O_2   0.313791 0.322089 0.922423 -0.466877
O33   O     O_3   0.909655 0.133721 0.732046 -0.606713
H8    H     H_    0.855985 0.119151 0.698821 0.389713
O34   O     O_3   0.338823 0.319216 0.753249 -0.716988
H9    H     H_    0.346683 0.376330 0.780331 0.336683
O35   O     O_3   0.918024 0.169971 0.615495 -0.668228
H10   H     H_    0.954586 0.148635 0.579003 0.344975
C64   C     C_2   0.358076 0.161495 0.664700 0.331715
H11   H     H_    0.437612 0.163012 0.695374 0.164936
O36   O     O_2   0.384563 0.119242 0.619128 -0.430015
O37   O     O_3   0.358992 0.618826 0.854300 -0.643384
H12   H     H_    0.418948 0.648941 0.838072 0.339876
C65   C     C_2   0.741651 0.920374 0.136240 0.253661
H13   H     H_    0.719865 0.003085 0.154052 0.143343
O38   O     O_2   0.788140 0.903514 0.091178 -0.476298
O39   O     O_3   0.910854 0.868158 0.850646 -0.668103
H14   H     H_    0.856679 0.935555 0.825729 0.342981
C66   C     C_2   0.862872 0.853576 0.729445 0.271955
H15   H     H_    0.773460 0.877340 0.748366 0.093882
O40   O     O_2   0.859373 0.890652 0.681135 -0.415280
O41   O     O_3   0.407202 0.536636 0.646967 -0.668571
H16   H     H_    0.489670 0.511393 0.673211 0.330701
O42   O     O_3   0.953520 0.668114 0.659214 -0.647701
H17   H     H_    0.910801 0.652951 0.691237 0.307062
O43   O     O_3   0.571763 0.517165 0.219692 -0.644527
H18   H     H_    0.489579 0.522537 0.233885 0.348716
O44   O     O_3   0.784328 0.894198 0.258413 -0.717035
H19   H     H_    0.845939 0.912122 0.236663 0.334455
C67   C     C_2   0.571542 0.504374 0.341124 0.258948
H20   H     H_    0.525235 0.531355 0.379379 0.108870
O45   O     O_2   0.581377 0.411529 0.323531 -0.440999
C68   C     C_2   0.709661 0.832780 0.353304 0.351283
H21   H     H_    0.796619 0.853032 0.357014 0.176221
O46   O     O_2   0.621785 0.885089 0.380591 -0.483751
C69   C     C_2   0.128431 0.061346 0.247896 0.260911
H22   H     H_    0.113910 0.009654 0.281331 0.106554
O47   O     O_2   0.125333 0.030199 0.199009 -0.465660
C70   C     C_2   0.199275 0.341868 0.240184 0.270867
H23   H     H_    0.232681 0.384729 0.209058 0.122097
O48   O     O_2   0.175617 0.385673 0.285625 -0.456176
C71   C     C_2   0.322304 0.757497 0.270923 0.165117
H24   H     H_    0.372871 0.773289 0.310224 0.111216
O49   O     O_2   0.344849 0.788127 0.225519 -0.495906

loop_
_geom_bond_atom_site_label_1
_geom_bond_atom_site_label_2
_ccdc_geom_bond_type
C1    O20   A    
C1    C21   S    
C62   H5    S    
Cr4   O13   S    
C6    C58   A    
O34   H9    S    
C9    C51   S    
C51   O7    A    
C4    C8    A    
O41   H16   S    
C60   O43   S    
Cr6   O18   S    
C70   H23   S    
C52   O10   A    
C7    C8    A    
Cr5   O9    S    
C63   O32   D    
C36   C37   A    
C19   C21   T    
C71   O49   D    
C18   C19   S    
C18   C71   S    
C45   O2    A    
C5    C6    A    
C2    C60   A    
Cr5   O16   S    
C63   H7    S    
C44   O42   S    
C40   C49   A    
C49   O39   S    
C17   C20   S    
C24   C62   S    
C16   C53   S    
O37   H12   S    
C12   C59   S    
C56   O24   A    
C35   C36   A    
C65   O38   D    
O43   H18   S    
C6    O27   S    
Cr5   O19   S    
C29   C38   A    
Cr4   O6    S    
C24   C27   S    
C32   O35   S    
C7    C58   A    
C30   C33   A    
Cr1   O25   S    
C15   C23   S    
C62   O30   D    
C41   C43   A    
C57   O13   A    
C34   C41   S    
Cr4   O19   S    
O31   H6    S    
C70   O48   D    
C44   C46   A    
C38   C39   A    
Cr6   O11   S    
C28   C45   S    
C33   C64   S    
C12   O21   A    
C8    O44   S    
C68   O46   D    
C12   O22   A    
O39   H14   S    
C71   H24   S    
C67   O45   D    
C10   C14   S    
C50   C66   S    
C2    C59   A    
C67   H20   S    
C48   O37   S    
C64   O36   D    
C25   C26   S    
Cr2   O21   S    
C2    C67   S    
Cr2   O2    S    
C23   O1    A    
C38   C63   S    
C35   C39   A    
C9    C14   T    
C47   C48   A    
Cr3   O3    S    
C16   C20   T    
C56   O4    A    
O28   H3    S    
Cr3   O22   S    
C17   C18   D    
C31   O33   S    
C23   O23   A    
Cr2   O5    S    
C17   O28   S    
C24   C25   D    
C22   C55   S    
C52   C58   S    
Cr1   O5    S    
Cr3   O4    S    
C49   C50   A    
C61   O29   D    
C22   C27   T    
C13   C15   T    
C66   H15   S    
C1    O12   A    
C41   C44   A    
C69   O47   D    
C11   C69   S    
C3    C68   S    
C42   C43   A    
C55   O16   A    
C3    C4    A    
C54   O15   A    
C65   H13   S    
O35   H10   S    
C40   C48   A    
Cr6   O10   S    
C46   C47   A    
C40   C57   S    
C5    C60   A    
C45   O3    A    
C31   C36   A    
C7    C65   S    
C31   C32   A    
C53   O6    A    
C51   O8    A    
C4    C5    A    
C52   O9    A    
C43   O41   S    
Cr6   O19   S    
C37   O31   S    
C68   H21   S    
O44   H19   S    
Cr2   O20   S    
C46   C50   A    
C26   C28   T    
Cr5   O8    S    
C53   O11   A    
O33   H8    S    
C30   C32   A    
C11   C13   S    
Cr1   O1    S    
Cr5   O15   S    
C42   H1    S    
C30   C56   S    
Cr1   O12   S    
Cr3   O23   S    
C39   O34   S    
C33   C35   A    
C57   O18   A    
O42   H17   S    
C42   C47   A    
O27   H2    S    
C34   O26   A    
C34   O25   A    
Cr4   O14   S    
C10   C11   D    
C10   C70   S    
Cr6   O17   S    
C25   C61   S    
Cr3   O5    S    
C61   H4    S    
C29   C54   S    
Cr2   O26   S    
C29   C37   A    
C66   O40   D    
Cr4   O7    S    
C69   H22   S    
C64   H11   S    
C55   O17   A    
C54   O14   A    
Cr1   O24   S    
C3    C59   A    
