data_mof_unit_62349.cif
_audit_creation_date              2012-12-11T17:02:30-0500
_audit_creation_method            fapswitch 2.2
_symmetry_space_group_name_H-M    P1
_symmetry_Int_Tables_number       1
_space_group_crystal_system       triclinic
_cell_length_a                    8.293567
_cell_length_b                    15.039634
_cell_length_c                    16.421781
_cell_angle_alpha                 97.752916
_cell_angle_beta                  93.073133
_cell_angle_gamma                 98.163911
_cell_volume                      2003.49644744

loop_
_atom_site_label
_atom_site_type_symbol
_atom_type_description
_atom_site_fract_x
_atom_site_fract_y
_atom_site_fract_z
_atom_type_partial_charge
Ba1   Ba    Ba6+2 0.163630 0.544320 0.462600 1.628725
Ba2   Ba    Ba6+2 0.646550 0.455670 0.537340 1.640456
C1    C     C_3   0.373051 0.750296 0.157814 -0.369237
C2    C     C_3   0.390009 0.727793 0.245198 0.348257
C3    C     C_3   0.561615 0.736244 0.657061 0.272363
C4    C     C_3   0.600587 0.839993 0.679656 -0.143522
C5    C     C_3   0.807770 0.212142 0.701389 0.316219
C6    C     C_3   0.782941 0.115083 0.720777 -0.365026
C7    C     C_3   0.379629 0.247061 0.755150 0.374011
C8    C     C_3   0.441424 0.221038 0.838435 0.150294
C9    C     C_R   0.643184 0.826782 0.450481 0.031844
C10   C     C_R   0.882498 0.791953 0.523445 0.041049
C11   C     C_R   0.056648 0.231138 0.528721 -0.306470
C12   C     C_3   0.969222 0.794022 0.282774 0.439659
C13   C     C_R   0.160111 0.170621 0.548633 0.074978
C14   C     C_R   0.111537 0.077041 0.527953 0.058936
C15   C     C_R   0.947770 0.042637 0.496021 -0.048903
C16   C     C_R   0.855680 0.104913 0.461281 -0.026212
C17   C     C_R   0.875638 0.948551 0.493457 0.014045
C18   C     C_R   0.718069 0.917979 0.452927 -0.020928
C19   C     C_R   0.640308 0.977678 0.412825 -0.095313
C20   C     C_R   0.709277 0.067322 0.412828 0.157379
C21   C     C_R   0.949790 0.884393 0.533247 -0.140747
C22   C     C_R   0.730006 0.764178 0.481684 -0.283299
C23   C     C_3   0.050306 0.886097 0.264317 -0.333583
C24   C     C_R   0.915501 0.201242 0.476377 0.075064
C25   C     C_R   0.622599 0.536858 0.268804 -0.291958
C26   C     C_R   0.466806 0.491372 0.241456 0.049945
C27   C     C_R   0.410548 0.485923 0.158308 -0.112663
C28   C     C_R   0.512278 0.525885 0.102215 0.240410
C29   C     C_R   0.672060 0.567058 0.130623 -0.166322
C30   C     C_R   0.727422 0.571464 0.213424 -0.005647
C31   C     C_R   0.378311 0.530564 0.855494 -0.132658
C32   C     C_R   0.328626 0.525269 0.771902 -0.009520
C33   C     C_R   0.270497 0.492332 0.910103 0.243683
C34   C     C_3   0.775888 0.349383 0.288175 0.351754
C35   C     C_R   0.172112 0.482635 0.741981 -0.266459
C36   C     C_R   0.062890 0.445982 0.794666 0.036256
C37   C     C_R   0.112007 0.450810 0.878649 -0.150257
C38   C     C_3   0.750475 0.327485 0.194361 -0.137465
C39   C     C_3   0.143405 0.743610 0.720210 0.442548
C40   C     C_3   0.135316 0.720228 0.807627 -0.317412
C41   C     C_3   0.327059 0.252199 0.326475 0.411582
C42   C     C_3   0.244806 0.157528 0.287311 -0.335003
H1    H     H_    0.281249 0.680971 0.256104 0.123800
H2    H     H_    0.751724 0.391420 0.167657 0.062049
H3    H     H_    0.852472 0.293767 0.169750 0.110254
H4    H     H_    0.057508 0.763057 0.843485 0.111189
H5    H     H_    0.081510 0.648130 0.805971 0.073346
H6    H     H_    0.460406 0.252984 0.331543 0.082741
H7    H     H_    0.268170 0.787434 0.150113 0.149787
H8    H     H_    0.114113 0.158772 0.269252 0.130330
H9    H     H_    0.248982 0.107720 0.331188 0.069642
H10   H     H_    0.306241 0.134512 0.231520 0.097909
H11   H     H_    0.496893 0.692480 0.250684 -0.032655
H12   H     H_    0.463592 0.720848 0.606202 0.031192
H13   H     H_    0.606747 0.872192 0.622661 0.052856
H14   H     H_    0.502287 0.865877 0.714158 0.151734
H15   H     H_    0.485883 0.793210 0.144218 0.104844
H16   H     H_    0.009531 0.896613 0.201242 0.113782
H17   H     H_    0.701461 0.221987 0.662187 0.119685
H18   H     H_    0.916610 0.221070 0.665984 -0.023337
H19   H     H_    0.665558 0.099869 0.748958 0.139469
H20   H     H_    0.780421 0.066941 0.662965 0.088359
H21   H     H_    0.448464 0.314735 0.749412 0.076545
H22   H     H_    0.572992 0.216023 0.836280 0.139525
H23   H     H_    0.675800 0.693642 0.476215 0.071519
H24   H     H_    0.523590 0.955718 0.378670 0.110073
H25   H     H_    0.056950 0.904583 0.574192 0.056713
H26   H     H_    0.499854 0.564606 0.877285 0.104318
H27   H     H_    0.666334 0.540436 0.332620 0.073858
H28   H     H_    0.134192 0.478831 0.677342 0.078592
H29   H     H_    0.017029 0.941286 0.309473 0.079877
H30   H     H_    0.184745 0.891011 0.268898 0.139267
H31   H     H_    0.667059 0.374475 0.313209 -0.029256
H32   H     H_    0.883223 0.403157 0.303803 0.055431
N1    N     N_2   0.462816 0.524403 0.017111 -0.238000
N2    N     N_2   0.316411 0.493181 0.995729 -0.232754
O1    O     O_2   0.162570 0.722330 0.548140 -0.489149
O2    O     O_3   0.288941 0.312991 0.273779 -0.612900
O3    O     O_3   0.007020 0.724394 0.223163 -0.616505
O4    O     O_2   0.647720 0.277620 0.451840 -0.467039
O5    O     O_3   0.919570 0.391090 0.454510 -0.500517
O6    O     O_3   0.416180 0.333440 0.599870 -0.493627
O7    O     O_3   0.802510 0.270636 0.320195 -0.626895
O8    O     O_3   0.378690 0.546410 0.598100 -0.479565
O9    O     O_3   0.838770 0.379270 0.642240 -0.491157
O10   O     O_2   0.720439 0.430418 0.786626 -0.493991
O11   O     O_3   0.827408 0.274336 0.774599 -0.615186
O12   O     O_3   0.890730 0.608900 0.545420 -0.456796
O13   O     O_3   0.431610 0.453580 0.401830 -0.506358
O14   O     O_2   0.628250 0.544210 0.698290 -0.426418
O15   O     O_3   0.509806 0.698124 0.726367 -0.653242
O16   O     O_2   0.494289 0.174512 0.539057 -0.468458
O17   O     O_3   0.410900 0.181524 0.690001 -0.637638
O18   O     O_3   0.394120 0.666550 0.400060 -0.490697
O19   O     O_2   0.302990 0.823694 0.450713 -0.506315
O20   O     O_3   0.986490 0.720842 0.680075 -0.643721
O21   O     O_3   0.406782 0.807996 0.301663 -0.623516
O22   O     O_2   0.182040 0.455740 0.301680 -0.450429
O23   O     O_3   0.971530 0.620720 0.357690 -0.489443
O24   O     O_2   0.054241 0.554338 0.209588 -0.497649
P1    P     P_3+3 0.987060 0.708150 0.571770 0.974300
P2    P     P_3+3 0.349540 0.428350 0.313090 0.985928
P3    P     P_3+3 0.939746 0.616841 0.250794 0.919787
P4    P     P_3+3 0.823240 0.291840 0.428170 0.996784
P5    P     P_3+3 0.861865 0.385175 0.749819 0.956559
P6    P     P_3+3 0.435833 0.782733 0.402146 0.923212
P7    P     P_3+3 0.459417 0.580036 0.700511 0.950141
P8    P     P_3+3 0.369642 0.215741 0.593685 0.937970
N3    N     N_3   0.594458 0.269260 0.169801 -0.496006
H33   H     H_    0.576077 0.262648 0.105641 0.201674
H34   H     H_    0.604032 0.204415 0.184070 0.196347
N4    N     N_3   0.202405 0.840654 0.724672 -0.523743
H35   H     H_    0.112975 0.878096 0.746745 0.170560
H36   H     H_    0.224969 0.855475 0.665738 0.146180
H37   H     H_    0.228242 0.702812 0.688967 0.056730
H38   H     H_    0.259819 0.731571 0.839274 0.095713
N5    N     N_3   0.264636 0.272075 0.406771 -0.520343
H39   H     H_    0.168126 0.309029 0.401596 0.163836
H40   H     H_    0.356211 0.311588 0.447136 0.219077
H41   H     H_    0.352432 0.686781 0.113139 0.103559
H42   H     H_    0.671226 0.708817 0.635618 0.046409
N6    N     N_3   0.753708 0.868745 0.730466 -0.497107
H43   H     H_    0.761766 0.826818 0.775957 0.223432
H44   H     H_    0.849423 0.861689 0.692728 0.176551
H45   H     H_    0.883979 0.104658 0.763889 0.121408
N7    N     N_3   0.205299 0.252655 0.755681 -0.515897
H46   H     H_    0.175563 0.292759 0.711630 0.116179
H47   H     H_    0.140655 0.187483 0.737791 0.168531
N8    N     N_3   0.425566 0.290587 0.907843 -0.481456
H48   H     H_    0.303074 0.299294 0.910772 0.203334
H49   H     H_    0.491958 0.352237 0.898034 0.186883
H50   H     H_    0.017053 0.786513 0.345720 0.082709
N9    N     N_3   0.358009 0.132851 0.853862 -0.473775
H51   H     H_    0.369277 0.083201 0.804266 0.191879
H52   H     H_    0.233600 0.135432 0.858969 0.192097
H53   H     H_    0.097532 0.303269 0.545388 0.071909
N10   N     N_3   0.239669 0.022290 0.521805 -0.481449
H54   H     H_    0.268909 0.002570 0.578718 0.180111
H55   H     H_    0.210154 0.968214 0.474147 0.209032
N11   N     N_3   0.628174 0.117412 0.360164 -0.456692
H56   H     H_    0.509147 0.115948 0.377820 0.185125
H57   H     H_    0.622737 0.084218 0.299635 0.155456
H58   H     H_    0.753651 0.595040 0.088051 0.094549
H59   H     H_    0.290080 0.449492 0.137689 0.121973
N12   N     N_3   0.793631 0.795084 0.280811 -0.508259
H60   H     H_    0.745914 0.782553 0.219421 0.177652
H61   H     H_    0.742271 0.742208 0.310618 0.113258
H62   H     H_    0.028304 0.420683 0.919218 0.091567

loop_
_geom_bond_atom_site_label_1
_geom_bond_atom_site_label_2
_ccdc_geom_bond_type
C38   H3    S    
Ba1   O12   S    
C10   C22   A    
C32   C35   A    
C39   C40   S    
C4    H14   S    
C3    H12   S    
Ba2   O6    S    
C17   C18   A    
C16   C24   A    
C4    N6    S    
O13   P2    S    
N7    H46   S    
C24   P4    S    
N4    H35   S    
N9    H51   S    
N1    N2    D    
C38   H2    S    
O21   P6    S    
C10   C21   A    
C35   C36   A    
O2    P2    S    
C26   C27   A    
N12   H61   S    
C23   H30   S    
C3    C4    S    
O14   P7    D    
C4    H13   S    
C13   C14   A    
C5    O11   S    
C9    C22   A    
O22   P2    D    
O24   P3    D    
Ba1   Ba2   S    
C36   P5    S    
Ba2   O12   S    
C21   H25   S    
C8    N8    S    
C5    H17   S    
C34   H32   S    
N12   H60   S    
C15   C17   A    
C28   N1    S    
C42   H9    S    
N3    H33   S    
C14   C15   A    
C23   H16   S    
C7    C8    S    
C39   N4    S    
C22   H23   S    
C1    H41   S    
C42   H8    S    
N5    H40   S    
C40   H5    S    
O18   P6    S    
Ba1   O13   S    
C19   C20   A    
O19   P6    D    
C13   P8    S    
O1    P1    D    
Ba2   O5    S    
C35   H28   S    
Ba1   O22   S    
C31   C32   A    
C38   N3    S    
C2    H1    S    
C8    H22   S    
O23   P3    S    
O3    P3    S    
C9    C18   A    
C7    N7    S    
C34   C38   S    
O8    P7    S    
C8    N9    S    
C10   P1    S    
C27   H59   S    
O10   P5    D    
C1    H7    S    
C40   H38   S    
C12   H50   S    
C41   O2    S    
C12   N12   S    
Ba2   P4    S    
O6    P8    S    
C17   C21   A    
C41   C42   S    
C5    H18   S    
C27   C28   A    
C34   H31   S    
C26   P2    S    
C6    H45   S    
N4    H36   S    
C29   C30   A    
C37   H62   S    
C28   C29   A    
N10   H54   S    
O11   P5    S    
C15   C16   A    
Ba2   O9    S    
N3    H34   S    
C40   H4    S    
Ba2   O14   S    
Ba1   P2    S    
C31   H26   S    
C6    H20   S    
C30   P3    S    
C11   C13   A    
C2    H11   S    
Ba1   O1    S    
N11   H57   S    
C11   C24   A    
Ba2   O4    S    
C14   N10   S    
C1    C2    S    
Ba1   O23   S    
C9    P6    S    
C25   H27   S    
N6    H44   S    
Ba1   P1    S    
Ba1   O8    S    
N9    H52   S    
C7    O17   S    
C25   C30   A    
C16   C20   A    
O7    P4    S    
N8    H49   S    
O17   P8    S    
N7    H47   S    
C3    O15   S    
N5    H39   S    
C41   H6    S    
C34   O7    S    
Ba1   O5    S    
C3    H42   S    
C33   N2    S    
O5    P4    S    
C11   H53   S    
C19   H24   S    
N8    H48   S    
N10   H55   S    
C36   C37   A    
C20   N11   S    
Ba1   O18   S    
C33   C37   A    
C31   C33   A    
O16   P8    D    
Ba2   O8    S    
C23   H29   S    
O4    P4    D    
C12   C23   S    
Ba2   O13   S    
C7    H21   S    
O12   P1    S    
C5    C6    S    
C6    H19   S    
C29   H58   S    
C42   H10   S    
O9    P5    S    
C18   C19   A    
C2    O21   S    
O15   P7    S    
C25   C26   A    
C32   P7    S    
N11   H56   S    
C12   O3    S    
C39   H37   S    
C39   O20   S    
O20   P1    S    
C41   N5    S    
N6    H43   S    
C1    H15   S    
