data_mof_unit_43000.cif
_audit_creation_date              2012-12-11T21:12:33-0500
_audit_creation_method            fapswitch 2.2
_symmetry_space_group_name_H-M    P1
_symmetry_Int_Tables_number       1
_space_group_crystal_system       triclinic
_cell_length_a                    8.354456
_cell_length_b                    18.774519
_cell_length_c                    26.878194
_cell_angle_alpha                 99.352319
_cell_angle_beta                  92.337274
_cell_angle_gamma                 88.368772
_cell_volume                      4155.34973563

loop_
_atom_site_label
_atom_site_type_symbol
_atom_type_description
_atom_site_fract_x
_atom_site_fract_y
_atom_site_fract_z
_atom_type_partial_charge
Ba1   Ba    Ba6+2 0.160810 0.465630 0.521640 1.721284
Ba2   Ba    Ba6+2 0.649380 0.534380 0.478400 1.682654
C1    C     C_3   0.545507 0.210859 0.669898 -0.294676
C2    C     C_R   0.064987 0.095122 0.444245 -0.073012
C3    C     C_R   0.201586 0.951021 0.452199 -0.092813
C4    C     C_3   0.955225 0.288914 0.675866 0.471817
C5    C     C_R   0.051349 0.975158 0.471712 0.025922
C6    C     C_R   0.258885 0.880842 0.452842 -0.095863
C7    C     C_R   0.170023 0.831095 0.473206 -0.042753
C8    C     C_R   0.023913 0.854684 0.495996 0.013548
C9    C     C_R   0.963952 0.926857 0.495182 0.024601
C10   C     C_R   0.222733 0.758421 0.471484 0.001093
C11   C     C_R   0.128360 0.710092 0.491367 -0.275145
C12   C     C_3   0.496510 0.272382 0.641195 0.463517
C13   C     C_R   0.991102 0.733219 0.518030 -0.031852
C14   C     C_R   0.937650 0.806345 0.519819 -0.047370
C15   C     C_R   0.841873 0.069354 0.493157 0.044354
C16   C     C_3   0.964308 0.268925 0.729348 -0.094208
C17   C     C_R   0.783948 0.141971 0.494306 0.040172
C18   C     C_R   0.873107 0.191430 0.472620 -0.022448
C19   C     C_R   0.007705 0.165559 0.445252 -0.017401
C20   C     C_R   0.800485 0.832880 0.544989 -0.041537
C21   C     C_R   0.741709 0.902465 0.544468 -0.060291
C22   C     C_R   0.817045 0.950043 0.518004 0.015331
C23   C     C_3   0.443946 0.311444 0.402724 0.335616
C24   C     C_R   0.752901 0.020566 0.515521 0.029890
C25   C     C_R   0.600270 0.043696 0.533778 -0.091039
C26   C     C_R   0.636625 0.165149 0.516997 -0.019509
C27   C     C_R   0.544053 0.114259 0.534585 -0.100908
C28   C     C_3   0.843439 0.714216 0.649650 0.529599
C29   C     C_R   0.586930 0.238628 0.521362 -0.042679
C30   C     C_R   0.686039 0.287673 0.505024 -0.268766
C31   C     C_R   0.824352 0.265132 0.479121 0.038607
C32   C     C_R   0.274937 0.430437 0.171924 0.628688
C33   C     C_R   0.146882 0.546595 0.172580 0.582687
C34   C     C_3   0.461755 0.230105 0.386984 -0.364973
C35   C     C_2   0.018378 0.507452 0.269454 -0.059849
C36   C     C_3   0.990632 0.508862 0.325134 -0.026645
C37   C     C_1   0.275952 0.483474 0.335430 0.020104
C38   C     C_2   0.303557 0.482551 0.287300 -0.113661
C39   C     C_2   0.167094 0.493892 0.251096 0.196285
C40   C     C_3   0.968442 0.773519 0.657763 -0.043672
C41   C     C_R   0.274979 0.487101 0.096415 -0.079574
C42   C     C_R   0.315213 0.428059 0.121153 -0.041633
C43   C     C_R   0.396023 0.368073 0.094744 -0.035376
C44   C     C_R   0.188606 0.546361 0.122146 -0.021375
C45   C     C_3   0.855489 0.720778 0.374808 0.306225
C46   C     C_2   0.146284 0.514965 0.355905 -0.275776
C47   C     C_2   0.658951 0.488275 0.641180 -0.193815
C48   C     C_R   0.421444 0.421148 0.966304 0.007770
C49   C     C_R   0.352529 0.550784 0.973879 0.041504
C50   C     C_R   0.407937 0.485230 0.944664 0.018253
C51   C     C_R   0.462238 0.356034 0.934962 -0.121005
C52   C     C_3   0.846061 0.350440 0.359825 0.242885
C53   C     C_R   0.497243 0.353651 0.884306 0.165748
C54   C     C_R   0.495615 0.417995 0.863156 -0.012945
C55   C     C_R   0.451944 0.483832 0.893680 -0.118237
C56   C     C_3   0.899598 0.794888 0.362681 -0.117116
C57   C     C_R   0.452856 0.548464 0.873382 -0.053145
C58   C     C_R   0.498868 0.547244 0.823245 0.614274
C59   C     C_R   0.535403 0.418558 0.812352 0.594944
C60   C     C_2   0.719837 0.447682 0.723556 -0.031396
C61   C     C_3   0.741725 0.431698 0.667170 -0.083582
C62   C     C_1   0.521709 0.516483 0.658378 0.017317
C63   C     C_2   0.476283 0.516007 0.705144 -0.086611
C64   C     C_3   0.882824 0.328928 0.304139 0.178984
C65   C     C_2   0.583716 0.482005 0.741267 0.239017
C66   C     C_R   0.392112 0.423782 0.018415 0.025939
C67   C     C_3   0.393814 0.687787 0.344609 0.391421
C68   C     C_R   0.319685 0.486552 0.045647 0.043773
C69   C     C_R   0.289836 0.548488 0.022367 0.031621
C70   C     C_R   0.432655 0.365647 0.044391 -0.095613
C71   C     C_R   0.143972 0.603728 0.096650 -0.060576
C72   C     C_R   0.367560 0.615915 0.953840 0.110718
C73   C     C_R   0.413699 0.613697 0.904126 -0.063113
C74   C     C_R   0.192143 0.604448 0.047692 -0.072999
C75   C     C_3   0.329900 0.684915 0.588492 0.356038
C76   C     C_3   0.317122 0.767552 0.604427 -0.148729
C77   C     C_3   0.466610 0.703830 0.295842 -0.081086
C78   C     C_R   0.988504 0.046343 0.469877 0.022257
H1    H     H_    0.971901 0.798986 0.623799 0.005905
H2    H     H_    0.323184 0.781406 0.646290 0.149122
H3    H     H_    0.604437 0.285809 0.622027 -0.044555
H4    H     H_    0.628007 0.230488 0.702253 0.113110
H5    H     H_    0.554482 0.332794 0.423161 -0.070387
H6    H     H_    0.345685 0.322477 0.428809 0.090542
H7    H     H_    0.565985 0.217108 0.362520 0.142089
H8    H     H_    0.480288 0.203454 0.420723 0.045022
H9    H     H_    0.351531 0.208627 0.365986 0.150670
H10   H     H_    0.606810 0.166961 0.644380 0.101195
H11   H     H_    0.904147 0.216809 0.728800 0.115967
H12   H     H_    0.085433 0.748321 0.666074 0.095546
H13   H     H_    0.729915 0.722676 0.386380 0.089064
H14   H     H_    0.934043 0.711297 0.407367 -0.009689
H15   H     H_    0.884071 0.836044 0.396883 0.076058
H16   H     H_    0.027348 0.794838 0.353054 0.152527
H17   H     H_    0.441264 0.634883 0.352360 0.078816
H18   H     H_    0.598289 0.702204 0.300766 0.133510
H19   H     H_    0.429496 0.759101 0.289453 0.126377
H20   H     H_    0.166314 0.654005 0.487958 0.062446
H21   H     H_    0.374485 0.866463 0.437096 0.120222
H22   H     H_    0.072424 0.199387 0.424541 0.111774
H23   H     H_    0.849074 0.409892 0.370131 0.040128
H24   H     H_    0.736230 0.800159 0.565732 0.123961
H25   H     H_    0.427340 0.128304 0.549669 0.127651
H26   H     H_    0.650041 0.344157 0.510258 0.061587
H27   H     H_    0.280150 0.985468 0.436613 0.075056
H28   H     H_    0.169528 0.080484 0.422384 0.067443
H29   H     H_    0.638018 0.918000 0.566403 0.066706
H30   H     H_    0.828210 0.301301 0.667805 -0.094547
H31   H     H_    0.519091 0.008131 0.547210 0.075725
H32   H     H_    0.424965 0.476539 0.274360 0.130040
H33   H     H_    0.430954 0.322268 0.112924 0.145967
H34   H     H_    0.728055 0.329397 0.365410 0.042393
H35   H     H_    0.802453 0.424060 0.748728 0.068978
H36   H     H_    0.462588 0.304927 0.948407 0.074747
H37   H     H_    0.497924 0.318249 0.027140 0.080595
H38   H     H_    0.916221 0.513321 0.244050 0.132607
H39   H     H_    0.071129 0.648608 0.114510 0.130032
H40   H     H_    0.422252 0.664333 0.890038 0.137956
H41   H     H_    0.361968 0.540123 0.717435 0.123367
H42   H     H_    0.144362 0.647951 0.029482 0.112111
H43   H     H_    0.149934 0.542896 0.394642 0.064933
H44   H     H_    0.718413 0.509659 0.611701 0.092106
H45   H     H_    0.999692 0.351135 0.296662 0.074167
H46   H     H_    0.897638 0.310077 0.755448 0.107347
H47   H     H_    0.354667 0.322539 0.697370 0.224139
H48   H     H_    0.401574 0.374682 0.655632 0.179996
H49   H     H_    0.455393 0.855262 0.607243 0.180892
H50   H     H_    0.404939 0.816804 0.549154 0.187725
H51   H     H_    0.681167 0.820793 0.331973 0.187866
H52   H     H_    0.810746 0.777349 0.289293 0.232124
H53   H     H_    0.176853 0.671823 0.371832 0.121199
H54   H     H_    0.188355 0.642782 0.310777 0.173131
H55   H     H_    0.305734 0.662006 0.239871 0.231849
H56   H     H_    0.208541 0.664182 0.578368 -0.039812
H57   H     H_    0.435990 0.599765 0.259145 0.184647
H58   H     H_    0.439017 0.251046 0.855155 0.189221
H59   H     H_    0.635049 0.262540 0.872198 0.181089
H60   H     H_    0.463586 0.710877 0.985929 0.193954
H61   H     H_    0.267860 0.716196 0.967943 0.186085
H62   H     H_    0.176564 0.314064 0.757761 0.209332
H63   H     H_    0.196862 0.230518 0.722662 0.218745
H64   H     H_    0.605596 0.726213 0.665584 0.221831
H65   H     H_    0.678087 0.797988 0.647991 0.170996
H66   H     H_    0.406837 0.671230 0.555418 0.087999
H67   H     H_    0.438811 0.188406 0.684509 0.133671
H68   H     H_    0.201531 0.788079 0.590705 0.032567
I1    I     I_    0.925898 0.860190 0.719111 -0.376191
I2    I     I_    0.701617 0.368500 0.256837 -0.382597
I3    I     I_    0.896491 0.213832 0.283822 -0.337585
I4    I     I_    0.008442 0.196724 0.620448 -0.450760
I5    I     I_    0.848173 0.665735 0.717647 -0.329141
N1    N     N_R   0.195157 0.490113 0.197571 -0.428815
N2    N     N_3   0.128020 0.262599 0.749576 -0.471958
N3    N     N_3   0.681919 0.741704 0.639813 -0.467272
N4    N     N_R   0.539237 0.482780 0.793262 -0.436313
N5    N     N_3   0.448151 0.336011 0.676465 -0.478436
N6    N     N_3   0.443488 0.804968 0.584266 -0.491062
N7    N     N_3   0.800568 0.816561 0.321473 -0.475258
N8    N     N_3   0.219679 0.685769 0.338895 -0.478527
N9    N     N_3   0.424279 0.652107 0.250937 -0.495150
N10   N     N_3   0.535929 0.284999 0.854848 -0.432903
N11   N     N_3   0.353654 0.685298 0.984916 -0.504557
O1    O     O_2   0.106080 0.324280 0.466820 -0.448399
O2    O     O_2   0.673837 0.561924 0.330409 -0.500420
O3    O     O_3   0.878422 0.665630 0.333133 -0.603832
O4    O     O_3   0.859130 0.413620 0.470620 -0.487485
O5    O     O_3   0.459240 0.537930 0.559910 -0.492701
O6    O     O_2   0.583120 0.462390 0.379940 -0.474333
O7    O     O_3   0.410752 0.343443 0.359705 -0.597529
O8    O     O_2   0.558827 0.756795 0.475266 -0.493594
O9    O     O_3   0.439506 0.744241 0.383431 -0.626335
O10   O     O_2   0.309300 0.378922 0.193169 -0.541766
O11   O     O_2   0.565404 0.361760 0.784821 -0.582685
O12   O     O_3   0.390496 0.653404 0.629341 -0.627888
O13   O     O_2   0.069457 0.597605 0.194431 -0.597219
O14   O     O_2   0.504698 0.603802 0.806442 -0.556316
O15   O     O_3   0.376230 0.370290 0.556910 -0.486121
O16   O     O_2   0.251790 0.242720 0.516794 -0.459753
O17   O     O_3   0.963676 0.319197 0.388006 -0.630277
O18   O     O_3   0.366986 0.249951 0.607699 -0.555298
O19   O     O_2   0.227190 0.537650 0.620070 -0.426903
O20   O     O_3   0.971110 0.406970 0.583250 -0.448865
O21   O     O_2   0.047004 0.485230 0.672793 -0.445598
O22   O     O_3   0.059329 0.345823 0.671922 -0.591149
O23   O     O_2   0.704230 0.675760 0.533200 -0.449874
O24   O     O_3   0.951180 0.586390 0.529420 -0.443420
O25   O     O_3   0.434080 0.629720 0.443130 -0.487071
O26   O     O_3   0.887726 0.655892 0.612083 -0.593181
O27   O     O_3   0.351080 0.462080 0.440130 -0.480869
O28   O     O_3   0.839200 0.593040 0.416790 -0.486552
P1    P     P_3+3 0.929380 0.335110 0.452880 0.988437
P2    P     P_3+3 0.398530 0.559060 0.613740 1.035047
P3    P     P_3+3 0.954515 0.417260 0.649087 1.015278
P4    P     P_3+3 0.880940 0.664900 0.547160 1.011778
P5    P     P_3+3 0.845230 0.581232 0.351078 0.962903
P6    P     P_3+3 0.396252 0.275660 0.549191 0.979774
P7    P     P_3+3 0.403571 0.437422 0.377249 0.998927
P8    P     P_3+3 0.413899 0.722371 0.443707 0.914498

loop_
_geom_bond_atom_site_label_1
_geom_bond_atom_site_label_2
_ccdc_geom_bond_type
C34   H9    S    
C33   O13   D    
C53   C54   A    
C1    H67   S    
C71   H39   S    
Ba2   O4    S    
O23   P4    D    
C25   C27   A    
C77   H18   S    
C17   C18   A    
C59   O11   D    
C33   N1    Am   
C41   C42   A    
C46   H43   S    
Ba1   O19   S    
H48   N5    S    
C38   H32   S    
C75   C76   S    
C34   H8    S    
C5    C9    A    
C2    H28   S    
C24   C25   A    
H52   N7    S    
C49   C69   A    
C60   C65   D    
C12   N5    S    
C1    H10   S    
C47   C61   S    
C16   H11   S    
C77   H19   S    
C26   C27   A    
C75   H66   S    
O27   P7    S    
C2    C78   A    
C69   C74   A    
C55   C57   A    
C58   O14   D    
C13   C14   A    
C9    C22   A    
O19   P2    D    
C20   H24   S    
C54   C55   A    
C18   C31   A    
Ba1   Ba2   S    
C40   I1    S    
C56   H16   S    
Ba2   O23   S    
O7    P7    S    
H65   N3    S    
C28   I5    S    
C35   H38   S    
C6    C7    A    
C63   C65   S    
C62   P2    S    
C70   H37   S    
C48   C50   A    
C21   C22   A    
C49   C72   A    
C68   C69   A    
C75   H56   S    
C63   H41   S    
H62   N2    S    
O17   P1    S    
C7    C8    A    
C36   C46   S    
C51   H36   S    
O26   P4    S    
C4    I4    S    
C23   O7    S    
C28   N3    S    
C25   H31   S    
C57   C58   A    
C47   C62   D    
C30   H26   S    
C29   P6    S    
C43   C70   A    
C4    H30   S    
C27   H25   S    
C40   H1    S    
C67   O9    S    
C12   H3    S    
O21   P3    D    
C21   H29   S    
O6    P7    D    
C12   O18   S    
Ba1   O20   S    
C32   N1    Am   
C34   H7    S    
O3    P5    S    
C4    C16   S    
C52   O17   S    
C48   C51   A    
C72   C73   A    
C49   C50   A    
C52   H23   S    
C32   C42   A    
C58   N4    Am   
C8    C9    A    
C37   C38   D    
C3    C5    A    
C23   C34   S    
Ba1   O4    S    
C47   H44   S    
C15   C78   A    
H53   N8    S    
H50   N6    S    
Ba2   P4    S    
H64   N3    S    
Ba1   P1    S    
C56   H15   S    
C71   C74   A    
C35   C36   S    
C32   O10   D    
Ba2   O25   S    
C59   N4    Am   
C45   O3    S    
C76   H2    S    
H63   N2    S    
C29   C30   A    
Ba1   O1    S    
C66   C70   A    
C60   C61   S    
C23   H5    S    
C10   P8    S    
C36   P5    S    
C65   N4    S    
O28   P5    S    
C10   C11   A    
C17   C26   A    
H47   N5    S    
H58   N10   S    
C1    C12   S    
Ba2   O6    S    
C19   H22   S    
Ba1   O27   S    
O25   P8    S    
C38   C39   S    
O15   P6    S    
C41   C68   A    
O4    P1    S    
C11   C13   A    
H55   N9    S    
C61   P3    S    
C67   C77   S    
C13   P4    S    
C77   N9    S    
C57   C73   A    
H49   N6    S    
C5    C78   A    
C42   C43   A    
C39   N1    S    
C3    H27   S    
Ba1   O24   S    
C37   P7    S    
Ba2   O28   S    
C14   C20   A    
C45   H13   S    
C54   C59   A    
C51   C53   A    
C26   C29   A    
C73   H40   S    
C22   C24   A    
C67   N8    S    
O1    P1    D    
C3    C6    A    
C64   H45   S    
C64   I2    S    
O5    P2    S    
C52   C64   S    
C6    H21   S    
C76   H68   S    
O22   P3    S    
H60   N11   S    
O20   P3    S    
C4    O22   S    
H54   N8    S    
C74   H42   S    
C62   C63   D    
C11   H20   S    
H59   N10   S    
Ba1   P2    S    
O2    P5    D    
C53   N10   S    
C60   H35   S    
C8    C14   A    
C30   C31   A    
C45   C56   S    
C72   N11   S    
C2    C19   A    
Ba1   O15   S    
H57   N9    S    
C41   C44   A    
C52   H34   S    
Ba1   O5    S    
C23   H6    S    
C15   C17   A    
C45   H14   S    
C15   C24   A    
O8    P8    D    
C40   H12   S    
C28   O26   S    
C35   C39   D    
H51   N7    S    
C7    C10   A    
Ba2   O24   S    
O16   P6    D    
C50   C55   A    
Ba2   O5    S    
C31   P1    S    
C43   H33   S    
C76   N6    S    
C64   I3    S    
C18   C19   A    
O24   P4    S    
H61   N11   S    
C66   C68   A    
C1    H4    S    
C20   C21   A    
C28   C40   S    
C56   N7    S    
O18   P6    S    
C75   O12   S    
O12   P2    S    
C33   C44   A    
C48   C66   A    
Ba2   O27   S    
C44   C71   A    
C16   H46   S    
C16   N2    S    
C37   C46   D    
O9    P8    S    
C67   H17   S    
