data_mof_unit_33090.cif
_audit_creation_date              2012-12-11T20:30:25-0500
_audit_creation_method            fapswitch 2.2
_symmetry_space_group_name_H-M    P1
_symmetry_Int_Tables_number       1
_space_group_crystal_system       triclinic
_cell_length_a                    8.180177
_cell_length_b                    17.378669
_cell_length_c                    18.740071
_cell_angle_alpha                 102.566557
_cell_angle_beta                  90.948339
_cell_angle_gamma                 98.559002
_cell_volume                      2568.01261253

loop_
_atom_site_label
_atom_site_type_symbol
_atom_type_description
_atom_site_fract_x
_atom_site_fract_y
_atom_site_fract_z
_atom_type_partial_charge
Ba1   Ba    Ba6+2 0.853800 0.535410 0.467450 1.638813
Ba2   Ba    Ba6+2 0.336030 0.464660 0.532560 1.631401
C1    C     C_3   0.566937 0.772037 0.231958 -0.347107
C2    C     C_R   0.894278 0.422638 0.093626 0.035069
C3    C     C_R   0.731105 0.389079 0.071073 -0.076376
C4    C     C_3   0.116801 0.700681 0.279131 0.405650
C5    C     C_R   0.666016 0.394464 0.003795 -0.090749
C6    C     C_R   0.764480 0.431226 0.955502 0.016463
C7    C     C_R   0.929646 0.465148 0.977692 -0.006933
C8    C     C_R   0.699781 0.433983 0.885850 0.114875
C9    C     C_R   0.804308 0.464962 0.834730 -0.027593
C10   C     C_R   0.969662 0.502085 0.858806 -0.036952
C11   C     C_R   0.030232 0.502576 0.930670 -0.010113
C12   C     C_3   0.629379 0.735266 0.292178 0.521388
C13   C     C_R   0.752936 0.459328 0.760172 0.014669
C14   C     C_R   0.864738 0.489355 0.712873 -0.316523
C15   C     C_R   0.022378 0.531531 0.736998 0.038761
C16   C     C_3   0.100223 0.728418 0.208105 -0.350790
C17   C     C_R   0.075586 0.538761 0.811438 -0.037348
C18   C     C_R   0.156043 0.498422 0.072170 -0.005416
C19   C     C_R   0.216283 0.498526 0.143782 -0.002443
C20   C     C_R   0.112797 0.460840 0.190598 -0.047614
C21   C     C_R   0.956939 0.418604 0.162313 -0.043687
C22   C     C_R   0.233147 0.580085 0.839776 -0.039211
C23   C     C_3   0.459892 0.335883 0.305078 0.315738
C24   C     C_R   0.294330 0.577931 0.909620 0.032107
C25   C     C_R   0.193584 0.538696 0.955165 0.009161
C26   C     C_R   0.256548 0.536225 0.025608 0.009043
C27   C     C_R   0.457160 0.613168 0.934084 -0.086431
C28   C     C_3   0.240586 0.710126 0.629999 0.313482
C29   C     C_R   0.520127 0.609249 0.002830 -0.096813
C30   C     C_R   0.420514 0.571402 0.049285 0.029832
C31   C     C_R   0.379566 0.536074 0.168277 -0.041571
C32   C     C_R   0.481919 0.569441 0.119273 -0.118366
C33   C     C_R   0.433506 0.540014 0.241450 -0.010474
C34   C     C_3   0.435057 0.308902 0.222344 -0.401972
C35   C     C_R   0.324873 0.508794 0.288704 -0.291927
C36   C     C_R   0.166897 0.467971 0.264506 0.043954
C37   C     C_2   0.446540 0.718716 0.478687 -0.251931
C38   C     C_3   0.367740 0.767486 0.434317 -0.033529
C39   C     C_2   0.416064 0.855600 0.461958 -0.119647
C40   C     C_3   0.272876 0.800834 0.650636 -0.389699
C41   C     C_2   0.552122 0.884827 0.507007 0.002909
C42   C     C_2   0.637935 0.828632 0.538193 -0.129196
C43   C     C_1   0.577973 0.751358 0.523325 0.059739
C44   C     C_R   0.803246 0.138095 0.533906 -0.167870
C45   C     C_3   0.053761 0.309171 0.724847 0.348530
C46   C     C_R   0.859044 0.219669 0.544874 0.018360
C47   C     C_R   0.619157 0.235543 0.474501 0.014084
C48   C     C_R   0.565727 0.152448 0.460189 0.076336
C49   C     C_R   0.655581 0.104040 0.492270 0.037804
C50   C     C_2   0.618332 0.971282 0.524542 -0.089874
C51   C     C_2   0.601022 0.016966 0.476215 -0.053921
C52   C     C_3   0.954711 0.287984 0.367803 0.307233
C53   C     C_R   0.763256 0.268555 0.518304 -0.297648
C54   C     C_3   0.927863 0.197310 0.345134 -0.393145
C55   C     C_3   0.730146 0.651477 0.693339 0.319890
C56   C     C_3   0.075295 0.293025 0.800749 -0.354072
C57   C     C_3   0.746554 0.678937 0.776281 -0.403318
C58   C     C_3   0.530629 0.260314 0.672645 0.432011
C59   C     C_3   0.498329 0.177315 0.688992 -0.091928
C60   C     C_R   0.993442 0.462272 0.047838 0.013014
H1    H     H_    0.378573 0.821728 0.691661 0.117447
H2    H     H_    0.672602 0.796652 0.202876 0.122977
H3    H     H_    0.851947 0.728473 0.792523 0.125287
H4    H     H_    0.768442 0.629162 0.801608 0.057270
H5    H     H_    0.631004 0.700149 0.796941 0.118980
H6    H     H_    0.519912 0.711978 0.319619 -0.083258
H7    H     H_    0.496685 0.820709 0.255794 0.068118
H8    H     H_    0.341836 0.351953 0.327489 0.018711
H9    H     H_    0.557939 0.389117 0.318083 0.062646
H10   H     H_    0.330458 0.258735 0.207775 0.126914
H11   H     H_    0.407017 0.358913 0.198564 0.057159
H12   H     H_    0.160986 0.823796 0.673949 0.129547
H13   H     H_    0.549275 0.288791 0.198851 0.120210
H14   H     H_    0.482907 0.726200 0.191965 0.081455
H15   H     H_    0.183353 0.785844 0.211424 0.104524
H16   H     H_    0.921230 0.311844 0.714498 -0.058403
H17   H     H_    0.207764 0.292351 0.813813 0.151312
H18   H     H_    0.031168 0.340202 0.842303 0.071513
H19   H     H_    0.002769 0.234439 0.803176 0.110187
H20   H     H_    0.664532 0.275789 0.664995 -0.102241
H21   H     H_    0.460598 0.258454 0.620991 0.056756
H22   H     H_    0.528167 0.132480 0.640914 0.032961
H23   H     H_    0.839133 0.308439 0.387495 0.006419
H24   H     H_    0.037000 0.641995 0.273931 0.088064
H25   H     H_    0.364969 0.162340 0.698983 0.134668
H26   H     H_    0.652133 0.359713 0.106120 0.061615
H27   H     H_    0.537937 0.368319 0.990308 0.066103
H28   H     H_    0.825195 0.482828 0.656213 0.069319
H29   H     H_    0.879286 0.384317 0.194006 0.100206
H30   H     H_    0.312484 0.612764 0.807410 0.093455
H31   H     H_    0.536940 0.642959 0.899630 0.063722
H32   H     H_    0.608742 0.595997 0.135451 0.105896
H33   H     H_    0.366662 0.513435 0.344777 0.070969
H34   H     H_    0.052070 0.307221 0.412501 0.080652
H35   H     H_    0.540474 0.990017 0.422810 0.097884
H36   H     H_    0.879611 0.100927 0.554256 0.082489
H37   H     H_    0.683474 0.996998 0.577245 0.072698
H38   H     H_    0.346311 0.894526 0.440170 0.083203
H39   H     H_    0.135241 0.683113 0.161780 0.062487
H40   H     H_    0.971091 0.736929 0.197583 0.153886
H41   H     H_    0.355122 0.687716 0.611208 0.003359
H42   H     H_    0.143630 0.691256 0.585033 0.085151
H43   H     H_    0.671545 0.843754 0.365471 0.130554
H44   H     H_    0.761199 0.772134 0.389956 0.204842
H45   H     H_    0.821815 0.176038 0.304328 0.126288
H46   H     H_    0.302322 0.824942 0.601496 0.078326
H47   H     H_    0.128403 0.367722 0.723998 0.089898
H48   H     H_    0.564307 0.118646 0.765301 0.175203
H49   H     H_    0.722022 0.177723 0.739169 0.173444
H50   H     H_    0.458102 0.438989 0.907066 0.170626
H51   H     H_    0.500665 0.345981 0.869333 0.193796
H52   H     H_    0.646640 0.636448 0.019891 0.072222
H53   H     H_    0.247662 0.692779 0.286369 -0.113361
H54   H     H_    0.749506 0.851689 0.573193 0.084294
H55   H     H_    0.322030 0.141756 0.430280 0.212530
H56   H     H_    0.901718 0.171023 0.393261 0.067566
H57   H     H_    0.449139 0.127160 0.359705 0.181188
H58   H     H_    0.408905 0.654495 0.464423 0.077346
H59   H     H_    0.807243 0.331946 0.527241 0.073622
H60   H     H_    0.040984 0.176729 0.320765 0.125919
H61   H     H_    0.849395 0.635510 0.673097 0.008276
H62   H     H_    0.631677 0.598578 0.678640 0.062313
N1    N     N_3   0.736189 0.796681 0.345526 -0.429499
N2    N     N_3   0.598469 0.174697 0.753342 -0.483663
N3    N     N_3   0.526949 0.406489 0.868421 -0.455203
N4    N     N_3   0.424952 0.115991 0.411388 -0.511196
O1    O     O_2   0.871520 0.445720 0.321500 -0.464038
O2    O     O_2   0.197794 0.223134 0.538108 -0.497852
O3    O     O_3   0.107373 0.247920 0.672976 -0.599341
O4    O     O_3   0.121030 0.451930 0.411150 -0.493976
O5    O     O_3   0.581210 0.598010 0.542960 -0.491906
O6    O     O_2   0.335820 0.303580 0.452320 -0.468453
O7    O     O_3   0.506817 0.273380 0.333088 -0.645005
O8    O     O_2   0.409088 0.460346 0.751868 -0.473504
O9    O     O_3   0.477048 0.315620 0.730298 -0.578291
O10   O     O_3   0.662190 0.593100 0.375060 -0.475540
O11   O     O_2   0.767920 0.529751 0.245476 -0.492043
O12   O     O_3   0.689961 0.714214 0.664272 -0.633780
O13   O     O_3   0.000652 0.318523 0.306801 -0.642080
O14   O     O_3   0.722911 0.676054 0.260361 -0.596680
O15   O     O_2   0.853880 0.696450 0.547730 -0.466520
O16   O     O_3   0.085100 0.636210 0.413950 -0.487869
O17   O     O_2   0.043232 0.783395 0.480706 -0.484319
O18   O     O_3   0.068065 0.757073 0.337721 -0.567156
O19   O     O_2   0.318180 0.554310 0.678550 -0.471605
O20   O     O_3   0.068680 0.548140 0.588860 -0.495737
O21   O     O_3   0.527520 0.406960 0.624950 -0.484929
O22   O     O_3   0.190499 0.681603 0.691668 -0.639836
O23   O     O_3   0.608500 0.402060 0.457050 -0.475930
O24   O     O_3   0.104610 0.363860 0.586060 -0.484487
P1    P     P_3+3 0.038810 0.422920 0.331160 0.970641
P2    P     P_3+3 0.678260 0.686080 0.568600 0.979821
P3    P     P_3+3 0.139997 0.737662 0.419471 0.960302
P4    P     P_3+3 0.150900 0.577150 0.668860 0.971261
P5    P     P_3+3 0.066813 0.262530 0.585287 0.946626
P6    P     P_3+3 0.644527 0.584055 0.280207 0.941261
P7    P     P_3+3 0.518811 0.301503 0.428768 0.936508
P8    P     P_3+3 0.543799 0.412218 0.717973 0.978679

loop_
_geom_bond_atom_site_label_1
_geom_bond_atom_site_label_2
_ccdc_geom_bond_type
C46   C53   A    
C27   H31   S    
C53   H59   S    
C14   H28   S    
C36   P1    S    
O17   P3    D    
Ba1   O4    S    
C12   O14   S    
C5    C6    A    
C1    H2    S    
C42   C43   D    
H44   N1    S    
C24   C25   A    
Ba2   O6    S    
C12   N1    S    
O2    P5    D    
C1    H7    S    
C22   C24   A    
Ba1   O1    S    
C57   H4    S    
C4    O18   S    
C58   H21   S    
C41   C50   S    
C55   C57   S    
C19   C31   A    
Ba2   O20   S    
C13   C14   A    
C20   C36   A    
C2    C60   A    
O23   P7    S    
C35   H33   S    
Ba1   Ba2   S    
C16   H40   S    
O3    P5    S    
C7    C11   A    
H50   N3    S    
C59   H25   S    
C57   H5    S    
C3    H26   S    
C58   H20   S    
O18   P3    S    
C1    H14   S    
O11   P6    D    
C6    C7    A    
C28   H41   S    
Ba2   O4    S    
C38   P3    S    
C59   N2    S    
C23   H9    S    
C29   H52   S    
C52   H34   S    
C56   H18   S    
C58   O9    S    
C37   C43   D    
H57   N4    S    
C23   H8    S    
Ba2   O21   S    
O6    P7    D    
C44   H36   S    
O22   P4    S    
C19   C20   A    
C39   C41   D    
C9    C13   A    
O14   P6    S    
Ba1   O5    S    
C22   H30   S    
H55   N4    S    
C48   C49   A    
C44   C46   A    
Ba2   O24   S    
C4    C16   S    
C52   C54   S    
C40   H12   S    
Ba2   O5    S    
O7    P7    S    
O5    P2    S    
C26   C30   A    
C8    C9    A    
C56   H19   S    
C37   C38   S    
C3    C5    A    
C2    C21   A    
C14   C15   A    
O15   P2    D    
C18   C26   A    
C51   H35   S    
Ba2   O19   S    
C47   C53   A    
C44   C49   A    
C7    C60   A    
C55   O12   S    
C45   O3    S    
C58   C59   S    
C49   C51   S    
C16   H39   S    
C30   C32   A    
C41   C42   S    
C54   H45   S    
C35   C36   A    
Ba1   O15   S    
C34   H13   S    
C55   H61   S    
O10   P6    S    
C29   C30   A    
H49   N2    S    
O4    P1    S    
C39   H38   S    
C10   C11   A    
Ba1   P1    S    
O19   P4    D    
C1    C12   S    
C56   H17   S    
H48   N2    S    
C38   C39   S    
C21   H29   S    
C48   N4    S    
C8    N3    S    
C50   C51   D    
Ba2   O23   S    
O24   P5    S    
Ba2   P4    S    
O9    P8    S    
C33   C35   A    
C54   H56   S    
C28   C40   S    
C32   H32   S    
C2    C3    A    
C59   H22   S    
C54   H60   S    
C52   H23   S    
C9    C10   A    
H51   N3    S    
C46   P5    S    
C50   H37   S    
C4    H24   S    
H43   N1    S    
O16   P3    S    
C17   C22   A    
C33   P6    S    
C13   P8    S    
C27   C29   A    
Ba1   O16   S    
C45   H47   S    
C57   H3    S    
C55   H62   S    
O1    P1    D    
C31   C33   A    
O13   P1    S    
C40   H46   S    
C16   H15   S    
C10   C17   A    
C15   C17   A    
C31   C32   A    
Ba1   O23   S    
C18   C60   A    
Ba1   P2    S    
C23   O7    S    
O21   P8    S    
C4    H53   S    
C28   O22   S    
C34   H11   S    
C23   C34   S    
O8    P8    D    
C34   H10   S    
C52   O13   S    
C18   C19   A    
C42   H54   S    
C24   C27   A    
C6    C8    A    
C47   C48   A    
C28   H42   S    
C25   C26   A    
C12   H6    S    
C20   C21   A    
C11   C25   A    
Ba1   O20   S    
C43   P2    S    
O20   P4    S    
C45   H16   S    
C15   P4    S    
C47   P7    S    
C40   H1    S    
Ba1   O10   S    
C37   H58   S    
O12   P2    S    
C45   C56   S    
C5    H27   S    
