data_mof_unit_28618.cif
_audit_creation_date              2012-10-26T21:26:10-0400
_audit_creation_method            fapswitch 2.2
_symmetry_space_group_name_H-M    P1
_symmetry_Int_Tables_number       1
_space_group_crystal_system       triclinic
_cell_length_a                    16.110826
_cell_length_b                    16.109479
_cell_length_c                    30.041355
_cell_angle_alpha                 90.037321
_cell_angle_beta                  89.834552
_cell_angle_gamma                 90.038729
_cell_volume                      7796.80761519

loop_
_atom_site_label
_atom_site_type_symbol
_atom_type_description
_atom_site_fract_x
_atom_site_fract_y
_atom_site_fract_z
_atom_type_partial_charge
C1    C     C_3   0.001535 0.000264 0.249929 0.009751
C2    C     C_R   0.926476 0.000484 0.282414 -0.004522
C3    C     C_R   0.781738 0.777069 0.177260 -0.099036
C4    C     C_R   0.713748 0.723085 0.176726 -0.112059
C5    C     C_R   0.725749 0.637740 0.181956 -0.102394
C6    C     C_R   0.805751 0.606233 0.187864 -0.110240
C7    C     C_R   0.873903 0.659990 0.188487 -0.089441
C8    C     C_R   0.133394 0.258857 0.814662 0.034312
C9    C     C_R   0.215432 0.230330 0.818845 -0.099367
C10   C     C_R   0.281617 0.286515 0.818177 -0.112523
C11   C     C_R   0.266505 0.371408 0.813167 -0.102446
C12   C     C_R   0.185182 0.400262 0.808683 -0.111049
C13   C     C_R   0.000120 0.614858 0.941753 0.554305
C14   C     C_R   0.118822 0.344300 0.809266 -0.089921
C15   C     C_R   0.252118 0.861425 0.681451 0.035659
C16   C     C_R   0.221407 0.780469 0.675669 -0.099824
C17   C     C_R   0.275778 0.712857 0.675032 -0.112653
C18   C     C_R   0.361014 0.725468 0.680333 -0.101954
C19   C     C_R   0.392016 0.805699 0.686431 -0.109156
C20   C     C_R   0.337863 0.873472 0.687165 -0.085554
C21   C     C_R   0.757185 0.145392 0.323446 0.032336
C22   C     C_R   0.714328 0.173932 0.285747 -0.100295
C23   C     C_R   0.664385 0.244707 0.288464 -0.114596
C24   C     C_R   0.999879 0.385144 0.058257 0.554024
C25   C     C_R   0.657179 0.287753 0.328689 -0.104558
C26   C     C_R   0.700208 0.260312 0.366222 -0.107152
C27   C     C_R   0.750329 0.189644 0.363644 -0.084762
C28   C     C_R   0.139237 0.849072 0.875245 0.032252
C29   C     C_R   0.157999 0.918030 0.902098 -0.098127
C30   C     C_R   0.224514 0.914890 0.931850 -0.109331
C31   C     C_R   0.273055 0.843257 0.934792 -0.098111
C32   C     C_R   0.255247 0.774666 0.907956 -0.103844
C33   C     C_R   0.188762 0.777497 0.878183 -0.083819
C34   C     C_R   0.856915 0.156484 0.127994 0.031193
C35   C     C_R   0.385237 0.999998 0.441716 0.553649
C36   C     C_R   0.833563 0.088879 0.101201 -0.098100
C37   C     C_R   0.764876 0.095096 0.073046 -0.110455
C38   C     C_R   0.718709 0.168460 0.071692 -0.100032
C39   C     C_R   0.741057 0.235698 0.098532 -0.106210
C40   C     C_R   0.809755 0.229807 0.126684 -0.087924
C41   C     C_R   0.850686 0.862095 0.376309 0.034911
C42   C     C_R   0.843190 0.781025 0.359465 -0.100669
C43   C     C_R   0.838958 0.713359 0.388533 -0.111895
C44   C     C_R   0.842531 0.726038 0.434524 -0.102517
C45   C     C_R   0.850759 0.806372 0.451510 -0.108467
C46   C     C_R   0.614749 0.999985 0.558294 0.551386
C47   C     C_R   0.855320 0.874131 0.422595 -0.084178
C48   C     C_R   0.146883 0.135864 0.622246 0.034592
C49   C     C_R   0.152304 0.218127 0.637564 -0.101442
C50   C     C_R   0.154109 0.283975 0.607253 -0.112192
C51   C     C_R   0.150113 0.268258 0.561539 -0.101906
C52   C     C_R   0.143897 0.186684 0.546068 -0.108500
C53   C     C_R   0.141797 0.120720 0.576236 -0.084292
C54   C     C_R   0.862438 0.150017 0.877255 0.031769
C55   C     C_R   0.846376 0.080759 0.904398 -0.098589
C56   C     C_R   0.781987 0.083027 0.935689 -0.109476
C57   C     C_R   0.000034 0.385260 0.941660 0.554259
C58   C     C_R   0.732882 0.154082 0.939910 -0.097258
C59   C     C_R   0.747926 0.222928 0.912770 -0.103466
C60   C     C_R   0.812268 0.220961 0.881448 -0.084180
C61   C     C_R   0.140766 0.845542 0.125323 0.032278
C62   C     C_R   0.161268 0.913854 0.098346 -0.098385
C63   C     C_R   0.228151 0.909119 0.068682 -0.109679
C64   C     C_R   0.275339 0.836528 0.065960 -0.098146
C65   C     C_R   0.255812 0.768576 0.092929 -0.103529
C66   C     C_R   0.188956 0.773001 0.122612 -0.083922
C67   C     C_R   0.159044 0.144434 0.371516 0.032914
C68   C     C_R   0.999953 0.614744 0.058352 0.553952
C69   C     C_R   0.089978 0.170904 0.396472 -0.101802
C70   C     C_R   0.095811 0.240689 0.423982 -0.125205
C71   C     C_R   0.170437 0.284600 0.426794 -0.108784
C72   C     C_R   0.239227 0.259114 0.401880 -0.103782
C73   C     C_R   0.233586 0.189586 0.374166 -0.082873
C74   C     C_R   0.843355 0.856728 0.627237 0.033256
C75   C     C_R   0.912847 0.831698 0.602193 -0.102881
C76   C     C_R   0.908151 0.762190 0.574421 -0.126028
C77   C     C_R   0.834240 0.717119 0.571426 -0.110821
C78   C     C_R   0.765011 0.741220 0.596384 -0.104710
C79   C     C_R   0.614679 0.000020 0.441557 0.553140
C80   C     C_R   0.769524 0.810455 0.624366 -0.082933
C81   C     C_R   0.385233 0.999997 0.558374 0.552287
C82   C     C_R   0.069128 0.129556 0.212541 -0.136073
C83   C     C_3   0.998538 0.999812 0.750082 0.010401
C84   C     C_R   0.932830 0.867900 0.786057 -0.137290
C85   C     C_R   0.866474 0.065850 0.714930 -0.134847
C86   C     C_R   0.131787 0.932694 0.286023 -0.134461
C87   C     C_R   0.933884 0.868963 0.214603 -0.139290
C88   C     C_R   0.064141 0.133415 0.784226 -0.139199
C89   C     C_R   0.129669 0.932754 0.713979 -0.136396
C90   C     C_R   0.873699 0.069636 0.287812 -0.137575
C91   C     C_R   0.065894 0.916203 0.812347 -0.125222
C92   C     C_R   0.932727 0.085900 0.188940 -0.126287
C93   C     C_R   0.917080 0.933841 0.312422 -0.123058
C94   C     C_R   0.000732 0.075686 0.217858 -0.004486
C95   C     C_R   0.081983 0.065507 0.686957 -0.124307
C96   C     C_R   0.932916 0.083923 0.812856 -0.124900
C97   C     C_R   0.067909 0.914684 0.188002 -0.123713
C98   C     C_R   0.088349 0.068716 0.310518 -0.122027
C99   C     C_R   0.913174 0.932083 0.688648 -0.122807
C100  C     C_R   0.067761 0.194862 0.181729 -0.008877
C101  C     C_R   0.934440 0.802522 0.816824 -0.009335
C102  C     C_R   0.801331 0.064818 0.684052 -0.007074
C103  C     C_R   0.196910 0.933537 0.316914 -0.006623
C104  C     C_R   0.934559 0.803253 0.183925 -0.009417
C105  C     C_R   0.999558 0.924245 0.782127 -0.006202
C106  C     C_R   0.063186 0.199142 0.814874 -0.009583
C107  C     C_R   0.194240 0.933010 0.682562 -0.009892
C108  C     C_R   0.810911 0.070798 0.320239 -0.009763
C109  C     C_R   0.068214 0.852425 0.843990 -0.009749
C110  C     C_R   0.930282 0.150006 0.157484 -0.009550
C111  C     C_R   0.855580 0.933884 0.345490 -0.007627
C112  C     C_R   0.144387 0.066052 0.654402 -0.008793
C113  C     C_R   0.931558 0.147710 0.844538 -0.009657
C114  C     C_R   0.069385 0.850573 0.156513 -0.009057
C115  C     C_R   0.152333 0.070833 0.341963 -0.007866
C116  C     C_R   0.922300 0.998798 0.718633 -0.004535
C117  C     C_R   0.849001 0.929684 0.657315 -0.007787
C118  C     C_R   0.998064 0.205207 0.153898 0.019883
C119  C     C_R   0.002301 0.794782 0.846154 0.018882
C120  C     C_R   0.792743 0.996700 0.654782 0.019934
C121  C     C_R   0.207105 0.002725 0.345305 0.020340
C122  C     C_R   0.002442 0.794142 0.154461 0.019637
C123  C     C_R   0.996904 0.206081 0.845512 0.019500
C124  C     C_R   0.201753 0.999931 0.652479 0.019267
C125  C     C_R   0.801168 0.002259 0.349095 0.018990
C126  C     C_1   0.000723 0.730996 0.120188 -0.054202
C127  C     C_R   0.077765 0.000975 0.281347 -0.004559
C128  C     C_1   0.998917 0.269102 0.879822 -0.054267
C129  C     C_1   0.266929 0.999950 0.619225 -0.056780
C130  C     C_1   0.734270 0.000961 0.381378 -0.056997
C131  C     C_1   0.998807 0.268362 0.119684 -0.053989
C132  C     C_1   0.001307 0.731654 0.880364 -0.054853
C133  C     C_1   0.730342 0.998484 0.620247 -0.056712
C134  C     C_1   0.269558 0.001139 0.379812 -0.055792
C135  C     C_1   0.999989 0.678164 0.091792 -0.021306
C136  C     C_1   0.999896 0.321879 0.908228 -0.021236
C137  C     C_1   0.320978 0.999978 0.591428 -0.023327
C138  C     C_R   0.001460 0.924260 0.218221 -0.004566
C139  C     C_1   0.679375 0.000231 0.408714 -0.023709
C140  C     C_1   0.999456 0.321414 0.091457 -0.020878
C141  C     C_1   0.000554 0.678595 0.908577 -0.021253
C142  C     C_1   0.677908 0.999639 0.591747 -0.024672
C143  C     C_1   0.322037 0.000220 0.408288 -0.022460
C144  C     C_R   0.141112 0.250385 0.178711 0.036144
C145  C     C_R   0.220428 0.217085 0.170837 -0.098356
C146  C     C_R   0.289649 0.269298 0.168329 -0.111894
C147  C     C_R   0.280316 0.354943 0.173819 -0.101807
C148  C     C_R   0.201768 0.388520 0.181962 -0.107955
C149  C     C_R   0.998104 0.076043 0.781702 -0.005393
C150  C     C_R   0.132399 0.336538 0.184564 -0.085345
C151  C     C_R   0.863218 0.744064 0.818163 0.036458
C152  C     C_R   0.782062 0.774074 0.824208 -0.098590
C153  C     C_R   0.714889 0.719083 0.825090 -0.112457
C154  C     C_R   0.728125 0.633915 0.819789 -0.101787
C155  C     C_R   0.808544 0.603592 0.813458 -0.108601
C156  C     C_R   0.875880 0.658359 0.812481 -0.086178
C157  C     C_R   0.743971 0.136837 0.682578 0.036172
C158  C     C_R   0.775308 0.217587 0.676819 -0.098042
C159  C     C_R   0.721363 0.285515 0.675827 -0.113273
C160  C     C_R   0.074000 0.000006 0.717815 -0.004698
C161  C     C_R   0.635918 0.273453 0.680739 -0.101707
C162  C     C_R   0.604270 0.193454 0.686789 -0.107925
C163  C     C_R   0.657986 0.125364 0.687869 -0.086766
C164  C     C_R   0.252370 0.860157 0.319419 0.035521
C165  C     C_R   0.218931 0.780559 0.326297 -0.097657
C166  C     C_R   0.271078 0.711316 0.328250 -0.112632
C167  C     C_R   0.356805 0.720903 0.323192 -0.101826
C168  C     C_R   0.390532 0.799729 0.316036 -0.107187
C169  C     C_R   0.338618 0.869125 0.313994 -0.086225
C170  C     C_R   0.862483 0.745863 0.182877 0.034168
Cu1   Cu    Cu3+1 0.916660 0.500000 0.000000 0.932498
Cu2   Cu    Cu3+1 0.083340 0.500000 0.000000 0.932267
Cu3   Cu    Cu3+1 0.500000 0.916660 0.500000 0.937805
Cu4   Cu    Cu3+1 0.500000 0.083340 0.500000 0.932274
H1    H     H_    0.125128 0.120949 0.231652 0.121078
H2    H     H_    0.880721 0.043340 0.191181 0.115897
H3    H     H_    0.959541 0.881775 0.310461 0.117816
H4    H     H_    0.037692 0.116130 0.687829 0.119144
H5    H     H_    0.882577 0.039229 0.812496 0.118980
H6    H     H_    0.119392 0.958003 0.189114 0.117721
H7    H     H_    0.045991 0.120830 0.308518 0.120789
H8    H     H_    0.956703 0.880858 0.690032 0.118068
H9    H     H_    0.228515 0.150852 0.166335 0.098863
H10   H     H_    0.350540 0.243355 0.162097 0.101513
H11   H     H_    0.333965 0.395263 0.171853 0.100617
H12   H     H_    0.877910 0.874399 0.765872 0.121571
H13   H     H_    0.194652 0.454825 0.186383 0.101143
H14   H     H_    0.072029 0.363335 0.191352 0.100557
H15   H     H_    0.770930 0.839900 0.828540 0.099241
H16   H     H_    0.652556 0.742504 0.829914 0.102029
H17   H     H_    0.676056 0.591443 0.820493 0.101342
H18   H     H_    0.818697 0.537653 0.809176 0.100695
H19   H     H_    0.937767 0.634062 0.807075 0.099306
H20   H     H_    0.841367 0.227826 0.672796 0.101151
H21   H     H_    0.745812 0.347525 0.671225 0.102275
H22   H     H_    0.594256 0.326106 0.679955 0.102921
H23   H     H_    0.873422 0.120623 0.735317 0.120859
H24   H     H_    0.538115 0.184214 0.690777 0.104930
H25   H     H_    0.632652 0.063820 0.693067 0.100256
H26   H     H_    0.152628 0.772245 0.330442 0.101784
H27   H     H_    0.245017 0.650210 0.333711 0.103111
H28   H     H_    0.397075 0.667236 0.324720 0.103251
H29   H     H_    0.456903 0.807042 0.311935 0.107523
H30   H     H_    0.365546 0.929716 0.307947 0.103929
H31   H     H_    0.771550 0.843046 0.172998 0.099317
H32   H     H_    0.651736 0.747426 0.172232 0.102777
H33   H     H_    0.673047 0.596049 0.181526 0.100834
H34   H     H_    0.123305 0.877142 0.266412 0.120187
H35   H     H_    0.814946 0.540159 0.192097 0.101303
H36   H     H_    0.935451 0.634781 0.193589 0.099865
H37   H     H_    0.228040 0.164735 0.822919 0.100133
H38   H     H_    0.344645 0.264231 0.821568 0.102546
H39   H     H_    0.317814 0.414804 0.812665 0.101537
H40   H     H_    0.173566 0.465989 0.804618 0.100580
H41   H     H_    0.056191 0.367467 0.805261 0.099259
H42   H     H_    0.155509 0.769840 0.671373 0.098619
H43   H     H_    0.251825 0.650669 0.670407 0.101027
H44   H     H_    0.403010 0.673062 0.679820 0.101541
H45   H     H_    0.879140 0.876613 0.235006 0.117795
H46   H     H_    0.458002 0.815364 0.690727 0.100986
H47   H     H_    0.362663 0.935204 0.692416 0.102750
H48   H     H_    0.719238 0.141105 0.254363 0.103693
H49   H     H_    0.631270 0.266186 0.259371 0.101467
H50   H     H_    0.618484 0.342526 0.330735 0.101913
H51   H     H_    0.694976 0.293991 0.397289 0.104628
H52   H     H_    0.784184 0.169786 0.392851 0.105249
H53   H     H_    0.120643 0.973819 0.900284 0.108942
H54   H     H_    0.238402 0.967973 0.952648 0.101390
H55   H     H_    0.324628 0.840990 0.957749 0.096678
H56   H     H_    0.117958 0.127548 0.762988 0.118453
H57   H     H_    0.293070 0.719330 0.910161 0.103180
H58   H     H_    0.176038 0.724105 0.857353 0.104013
H59   H     H_    0.869035 0.031781 0.101798 0.108812
H60   H     H_    0.747481 0.043070 0.052242 0.100172
H61   H     H_    0.665492 0.173146 0.049944 0.095963
H62   H     H_    0.705079 0.292379 0.097566 0.101870
H63   H     H_    0.826070 0.282210 0.147513 0.102671
H64   H     H_    0.839979 0.770341 0.323900 0.103705
H65   H     H_    0.832792 0.651089 0.375397 0.103795
H66   H     H_    0.839127 0.673633 0.456985 0.099658
H67   H     H_    0.123293 0.878517 0.734798 0.122162
H68   H     H_    0.853770 0.816273 0.487071 0.123903
H69   H     H_    0.862778 0.935903 0.436274 0.105769
H70   H     H_    0.155719 0.231149 0.672900 0.103094
H71   H     H_    0.158680 0.347200 0.619211 0.102388
H72   H     H_    0.151598 0.319271 0.538123 0.099985
H73   H     H_    0.140500 0.174447 0.510716 0.123240
H74   H     H_    0.135850 0.057916 0.563747 0.108377
H75   H     H_    0.884271 0.025446 0.901644 0.109376
H76   H     H_    0.770234 0.029740 0.956717 0.102279
H77   H     H_    0.683038 0.155708 0.964113 0.098049
H78   H     H_    0.882461 0.125107 0.268173 0.122273
H79   H     H_    0.709659 0.277815 0.915968 0.103468
H80   H     H_    0.822907 0.274571 0.860448 0.104093
H81   H     H_    0.124990 0.970383 0.099999 0.108845
H82   H     H_    0.243374 0.961709 0.047783 0.100815
H83   H     H_    0.327199 0.833011 0.043072 0.096516
H84   H     H_    0.292592 0.712497 0.090897 0.102893
H85   H     H_    0.174902 0.720083 0.143548 0.103600
H86   H     H_    0.031852 0.137192 0.394844 0.106760
H87   H     H_    0.042568 0.260512 0.443291 0.103523
H88   H     H_    0.174911 0.338444 0.448220 0.099969
H89   H     H_    0.116587 0.960451 0.811093 0.119677
H90   H     H_    0.296875 0.293424 0.403913 0.105552
H91   H     H_    0.287107 0.171263 0.354609 0.107324
H92   H     H_    0.970454 0.866256 0.603997 0.107716
H93   H     H_    0.961729 0.743452 0.555067 0.105664
H94   H     H_    0.830648 0.663501 0.549789 0.099758
H95   H     H_    0.707916 0.706030 0.594198 0.104750
H96   H     H_    0.715717 0.827602 0.644006 0.104095
O1    O     O_R   0.929840 0.586710 0.956230 -0.499619
O2    O     O_R   0.070160 0.586710 0.956230 -0.503257
O3    O     O_R   0.413290 0.070160 0.543770 -0.499616
O4    O     O_R   0.586710 0.929840 0.456230 -0.498325
O5    O     O_R   0.070160 0.586710 0.043770 -0.503389
O6    O     O_R   0.929840 0.413290 0.956230 -0.503675
O7    O     O_R   0.586710 0.929840 0.543770 -0.504994
O8    O     O_R   0.413290 0.070160 0.456230 -0.503737
O9    O     O_R   0.070160 0.413290 0.043770 -0.499967
O10   O     O_R   0.413290 0.929840 0.456230 -0.498148
O11   O     O_R   0.586710 0.070160 0.543770 -0.499565
O12   O     O_R   0.070160 0.413290 0.956230 -0.499394
O13   O     O_R   0.929840 0.586710 0.043770 -0.499634
O14   O     O_R   0.586710 0.070160 0.456230 -0.504223
O15   O     O_R   0.413290 0.929840 0.543770 -0.500523
O16   O     O_R   0.929840 0.413290 0.043770 -0.502732

loop_
_geom_bond_atom_site_label_1
_geom_bond_atom_site_label_2
_ccdc_geom_bond_type
C23   H49   S    
C70   H87   S    
C88   H56   S    
C55   C56   A    
C165  C166  A    
C115  C121  A    
C35   O8    A    
C59   H79   S    
C41   C42   A    
C91   C105  A    
Cu1   O1    S    
C147  C148  A    
C98   H7    S    
C12   H40   S    
Cu2   O2    S    
Cu1   O16   S    
C92   C110  A    
C7    H36   S    
C161  C162  A    
C42   H64   S    
C17   H43   S    
C37   H60   S    
C46   C142  S    
C6    H35   S    
C54   C60   A    
Cu3   Cu4   S    
C92   H2    S    
C148  H13   S    
C159  H21   S    
C22   H48   S    
C133  C142  T    
C158  H20   S    
C34   C40   A    
C28   C29   A    
C76   H93   S    
C148  C150  A    
C1    C2    S    
C154  H17   S    
C95   C112  A    
C13   O1    A    
C150  H14   S    
C39   H62   S    
C78   C80   A    
C167  H28   S    
Cu4   O3    S    
C104  C122  A    
C28   C33   A    
C130  C139  T    
C26   H51   S    
C9    H37   S    
C15   C16   A    
C54   C113  S    
C46   O7    A    
C18   C19   A    
C61   C114  S    
C25   H50   S    
C16   H42   S    
C120  C133  S    
C88   C149  A    
C78   H95   S    
C15   C107  S    
C2    C90   A    
C67   C115  S    
C74   C75   A    
C99   H8    S    
C144  C150  A    
C131  C140  T    
C156  H19   S    
C134  C143  T    
C168  C169  A    
C84   H12   S    
C125  C130  S    
C157  C158  A    
C83   C160  S    
C63   H82   S    
C91   H89   S    
C16   C17   A    
C56   H76   S    
C106  C123  A    
C111  C125  A    
C151  C152  A    
C55   H75   S    
C57   C136  S    
C70   C71   A    
C67   C73   A    
C87   H45   S    
C108  C125  A    
C14   H41   S    
C50   H71   S    
C9    C10   A    
C157  C163  A    
C80   H96   S    
C2    C93   A    
C43   H65   S    
Cu3   O10   S    
Cu2   O12   S    
C99   C117  A    
C71   H88   S    
C21   C27   A    
C32   H57   S    
C163  H25   S    
C59   C60   A    
C167  C168  A    
C112  C124  A    
C74   C80   A    
C21   C22   A    
C43   C44   A    
C84   C101  A    
C118  C131  S    
C164  C165  A    
C164  C169  A    
C15   C20   A    
C107  C124  A    
Cu1   O13   S    
C86   C103  A    
C44   H66   S    
C102  C157  S    
C92   C94   A    
C17   C18   A    
Cu3   O7    S    
C153  H16   S    
C45   C47   A    
C69   C70   A    
C62   H81   S    
C21   C108  S    
C24   O16   A    
C72   H90   S    
C35   O10   A    
C146  C147  A    
C95   C160  A    
C101  C119  A    
C30   H54   S    
C51   H72   S    
C38   C39   A    
C76   C77   A    
C72   C73   A    
C66   H85   S    
C100  C144  S    
C117  C120  A    
C86   H34   S    
C38   H61   S    
C93   H3    S    
C8    C9    A    
C97   H6    S    
C41   C111  S    
C50   C51   A    
C25   C26   A    
C77   C78   A    
C90   H78   S    
C101  C151  S    
C24   C140  S    
C152  H15   S    
C51   C52   A    
C161  H22   S    
C8    C106  S    
C67   C69   A    
C166  H27   S    
C3    H31   S    
C158  C159  A    
C122  C126  S    
C81   C137  S    
C75   C76   A    
C79   C139  S    
C37   C38   A    
C5    H33   S    
C88   C106  A    
C57   O12   A    
C95   H4    S    
C31   C32   A    
C113  C123  A    
C30   C31   A    
C20   H47   S    
C89   C107  A    
C62   C63   A    
C60   H80   S    
C84   C105  A    
C41   C47   A    
Cu3   O15   S    
C27   H52   S    
C99   C116  A    
C151  C156  A    
Cu3   O4    S    
C110  C118  A    
Cu1   Cu2   S    
C154  C155  A    
C49   H70   S    
C73   H91   S    
C11   H39   S    
C69   H86   S    
C85   H23   S    
C48   C49   A    
Cu4   O8    S    
C128  C136  T    
C93   C111  A    
C126  C135  T    
C49   C50   A    
C79   O4    A    
C13   C141  S    
C10   C11   A    
C147  H11   S    
C103  C164  S    
C26   C27   A    
C166  C167  A    
C34   C110  S    
C89   H67   S    
C96   C113  A    
C165  H26   S    
C100  C118  A    
C42   C43   A    
C29   H53   S    
C121  C134  S    
C3    C4    A    
C103  C121  A    
C52   H73   S    
C145  C146  A    
C39   C40   A    
Cu2   O5    S    
C102  C120  A    
C64   H83   S    
C109  C119  A    
C89   C160  A    
C104  C170  S    
C162  C163  A    
C57   O6    A    
C10   H38   S    
C132  C141  T    
C74   C117  S    
C145  H9    S    
C54   C55   A    
C98   C127  A    
C28   C109  S    
C8    C14   A    
C61   C66   A    
C48   C112  S    
C86   C127  A    
C82   C100  A    
C83   C116  S    
C85   C116  A    
Cu4   O11   S    
C44   C45   A    
C1    C127  S    
C12   C14   A    
C63   C64   A    
C119  C132  S    
C1    C94   S    
C11   C12   A    
C77   H94   S    
C3    C170  A    
C4    H32   S    
C6    C7    A    
C19   H46   S    
C24   O9    A    
C48   C53   A    
C79   O14   A    
C58   H77   S    
Cu4   O14   S    
C162  H24   S    
C35   C143  S    
C168  H29   S    
C146  H10   S    
C144  C145  A    
C32   C33   A    
C68   O13   A    
C19   C20   A    
C81   O15   A    
C159  C161  A    
C36   H59   S    
C53   H74   S    
C90   C108  A    
C71   C72   A    
C64   C65   A    
C169  H30   S    
C33   H58   S    
C40   H63   S    
C91   C109  A    
C98   C115  A    
C5    C6    A    
C68   O5    A    
C68   C135  S    
Cu2   O9    S    
C96   C149  A    
C31   H55   S    
C47   H69   S    
C34   C36   A    
C56   C58   A    
C124  C129  S    
C65   H84   S    
C81   O3    A    
C23   C25   A    
C96   H5    S    
C61   C62   A    
C58   C59   A    
C13   O2    A    
C155  H18   S    
C85   C102  A    
C29   C30   A    
C87   C104  A    
C114  C122  A    
C83   C105  S    
C4    C5    A    
C129  C137  T    
C82   H1    S    
C36   C37   A    
C65   C66   A    
Cu1   O6    S    
C7    C170  A    
C123  C128  S    
C155  C156  A    
C46   O11   A    
C22   C23   A    
C82   C94   A    
C152  C153  A    
C87   C138  A    
C83   C149  S    
C97   C114  A    
C45   H68   S    
C1    C138  S    
C97   C138  A    
C52   C53   A    
C153  C154  A    
C75   H92   S    
C18   H44   S    
