data_mof_unit_22041.cif
_audit_creation_date              2012-12-10T17:46:01-0500
_audit_creation_method            fapswitch 2.2
_symmetry_space_group_name_H-M    P1
_symmetry_Int_Tables_number       1
_space_group_crystal_system       triclinic
_cell_length_a                    15.059149
_cell_length_b                    13.67792
_cell_length_c                    27.49801
_cell_angle_alpha                 90.415307
_cell_angle_beta                  90.599305
_cell_angle_gamma                 89.155621
_cell_volume                      5662.91315789

loop_
_atom_site_label
_atom_site_type_symbol
_atom_type_description
_atom_site_fract_x
_atom_site_fract_y
_atom_site_fract_z
_atom_type_partial_charge
C1    C     C_R   0.328597 0.500889 0.499281 0.867001
C2    C     C_R   0.671210 0.499283 0.501421 0.844809
C3    C     C_R   0.591612 0.485179 0.103460 -0.100311
C4    C     C_R   0.578202 0.496728 0.900040 -0.103760
C5    C     C_R   0.612386 0.569858 0.130528 -0.032660
C6    C     C_R   0.595672 0.412437 0.871900 -0.072387
C7    C     C_R   0.644208 0.652197 0.106572 -0.218704
C8    C     C_R   0.627956 0.327510 0.894599 -0.161647
C9    C     C_R   0.556992 0.403066 0.126741 -0.150805
C10   C     C_R   0.548584 0.583991 0.877388 -0.146420
C11   C     C_R   0.515755 0.498046 0.354550 -0.170900
C12   C     C_R   0.511855 0.502184 0.646066 -0.165542
C13   C     C_R   0.588487 0.580251 0.978663 -0.080856
C14   C     C_R   0.591901 0.397455 0.025454 -0.037708
C15   C     C_R   0.606665 0.402234 0.974302 0.062200
C16   C     C_R   0.612692 0.575151 0.028520 0.033158
C17   C     C_R   0.591118 0.493231 0.950980 -0.030542
C18   C     C_R   0.599769 0.485462 0.052516 -0.039046
C19   C     C_R   0.553667 0.666396 0.956835 0.415065
C20   C     C_R   0.557315 0.313486 0.048884 0.428455
C21   C     C_R   0.535991 0.669288 0.906544 0.240195
C22   C     C_R   0.528497 0.323131 0.097855 0.164430
C23   C     C_R   0.501444 0.499631 0.407253 0.900024
C24   C     C_R   0.501979 0.500511 0.592812 0.856094
C25   C     C_R   0.645354 0.655206 0.055915 0.306181
C26   C     C_R   0.635239 0.322426 0.945119 0.313700
C27   C     C_R   0.811222 0.558851 0.470660 -0.302895
C28   C     C_R   0.188330 0.444813 0.532371 -0.310987
C29   C     C_R   0.767598 0.497906 0.502777 -0.121534
C30   C     C_R   0.231880 0.503487 0.499153 -0.112826
C31   C     C_R   0.815698 0.438710 0.535928 0.155344
C32   C     C_R   0.183284 0.564946 0.467255 0.203876
C33   C     C_R   0.909281 0.440947 0.536037 0.057470
C34   C     C_R   0.089809 0.564468 0.468022 0.050006
C35   C     C_R   0.952897 0.501576 0.502484 0.036022
C36   C     C_R   0.046322 0.503500 0.501431 0.034375
C37   C     C_R   0.903296 0.560704 0.470026 0.116028
C38   C     C_R   0.096065 0.444520 0.533882 0.133301
C39   C     C_R   0.960646 0.384761 0.568846 -0.191187
C40   C     C_R   0.038481 0.623025 0.436211 -0.158499
C41   C     C_R   0.052948 0.386281 0.567575 -0.215494
C42   C     C_R   0.946294 0.621021 0.437253 -0.218377
C43   C     C_R   0.442121 0.794370 0.528793 0.102546
C44   C     C_R   0.559742 0.205572 0.472210 0.087839
C45   C     C_R   0.559269 0.791564 0.471900 0.058792
C46   C     C_R   0.441007 0.208102 0.528137 0.081039
C47   C     C_R   0.600869 0.570138 0.180970 0.546238
C48   C     C_R   0.585186 0.416412 0.821307 0.638220
C49   C     C_R   0.561985 0.894760 0.471611 -0.093756
C50   C     C_R   0.439446 0.104846 0.528910 -0.105372
C51   C     C_R   0.441385 0.897566 0.530056 -0.110169
C52   C     C_R   0.562672 0.102153 0.472028 -0.100329
C53   C     C_R   0.501317 0.948095 0.500578 -0.054676
C54   C     C_R   0.501185 0.051620 0.500508 -0.055028
C55   C     C_R   0.623943 0.944838 0.443203 0.314980
C56   C     C_R   0.377638 0.054184 0.557248 0.342897
C57   C     C_R   0.382972 0.950711 0.560439 0.341047
C58   C     C_R   0.626546 0.048867 0.444894 0.347674
C59   C     C_R   0.548165 0.406405 0.177893 0.671979
C60   C     C_R   0.530892 0.580901 0.826667 0.576329
C61   C     C_R   0.605527 0.437970 0.287181 0.534829
C62   C     C_R   0.481224 0.430076 0.724772 0.530723
C63   C     C_R   0.583109 0.436441 0.336466 -0.404385
C64   C     C_R   0.472777 0.429294 0.673897 -0.367796
C65   C     C_R   0.467312 0.560340 0.323079 0.439286
C66   C     C_R   0.563099 0.574704 0.669281 0.396336
C67   C     C_R   0.484217 0.553442 0.272655 -0.310411
C68   C     C_R   0.575950 0.571764 0.719692 -0.274730
C69   C     C_R   0.552892 0.493353 0.254954 0.207975
C70   C     C_R   0.536313 0.499461 0.747722 0.185861
Cu1   Cu    Cu3+1 0.500000 0.597420 0.500000 0.977225
Cu2   Cu    Cu3+1 0.500000 0.402580 0.500000 0.967583
H1    H     H_    0.930535 0.338341 0.595483 0.197692
H2    H     H_    0.068413 0.670804 0.410126 0.192037
H3    H     H_    0.090755 0.341274 0.592889 0.148865
H4    H     H_    0.908494 0.666747 0.412243 0.144574
H5    H     H_    0.396486 0.753681 0.550703 0.165964
H6    H     H_    0.605370 0.246353 0.450335 0.159729
H7    H     H_    0.604448 0.748679 0.449715 0.161612
H8    H     H_    0.395381 0.250733 0.550137 0.156810
H9    H     H_    0.445146 0.593563 0.246214 0.163786
H10   H     H_    0.616403 0.626829 0.737227 0.185936
H11   H     H_    0.667662 0.714873 0.127021 0.206155
H12   H     H_    0.650012 0.265252 0.873091 0.217737
H13   H     H_    0.433881 0.372907 0.656280 0.179645
H14   H     H_    0.619999 0.389161 0.361116 0.173236
H15   H     H_    0.772973 0.604163 0.445574 0.155445
H16   H     H_    0.226826 0.400740 0.557820 0.142591
N1    N     N_R   0.568911 0.489393 0.203529 -0.441060
N2    N     N_R   0.550618 0.498613 0.799762 -0.450720
N3    N     N_R   0.500000 0.743810 0.500000 -0.205584
N4    N     N_R   0.500000 0.256190 0.500000 -0.201660
O1    O     O_R   0.370260 0.582280 0.500010 -0.550008
O2    O     O_R   0.629740 0.417720 0.499990 -0.561917
O3    O     O_R   0.629740 0.582280 0.499990 -0.610283
O4    O     O_R   0.370260 0.417720 0.500010 -0.603736
O5    O     O_R   0.500020 0.582260 0.430260 -0.553642
O6    O     O_R   0.499980 0.417740 0.569740 -0.569635
O7    O     O_R   0.499980 0.582260 0.569740 -0.561526
O8    O     O_R   0.500020 0.417740 0.430260 -0.590512
O9    O     O_2   0.620746 0.650670 0.207310 -0.585021
O10   O     O_2   0.609857 0.338760 0.793771 -0.489075
O11   O     O_2   0.492675 0.658121 0.804203 -0.514571
O12   O     O_2   0.521060 0.327168 0.202182 -0.460578
O13   O     O_3   0.400228 0.618939 0.343195 -0.568742
C71   C     C_3   0.381270 0.706490 0.317576 0.141510
H17   H     H_    0.325117 0.743538 0.336379 0.205581
H18   H     H_    0.355733 0.692598 0.280239 0.121205
C72   C     C_3   0.459593 0.777159 0.318643 -0.426482
H19   H     H_    0.479251 0.791938 0.357044 0.233372
H20   H     H_    0.517434 0.744212 0.299607 0.236425
C73   C     C_3   0.434482 0.873343 0.293879 -0.864438
H21   H     H_    0.414087 0.859684 0.255516 0.266128
H22   H     H_    0.492299 0.922674 0.294026 0.256368
H23   H     H_    0.379071 0.910279 0.313438 0.262364
O14   O     O_3   0.595925 0.652106 0.643184 -0.606933
C74   C     C_3   0.687313 0.636191 0.634941 0.076332
H24   H     H_    0.698861 0.565071 0.615863 0.170914
H25   H     H_    0.725186 0.636858 0.669957 0.149784
C75   C     C_3   0.721078 0.718146 0.602810 -0.324548
H26   H     H_    0.685111 0.716848 0.567320 0.243104
H27   H     H_    0.707496 0.789937 0.620650 0.226709
C76   C     C_3   0.820623 0.707543 0.593921 -0.879907
H28   H     H_    0.858070 0.713339 0.628810 0.259676
H29   H     H_    0.842351 0.766504 0.569388 0.259864
H30   H     H_    0.836156 0.635946 0.576595 0.267505
Br1   Br    Br    0.753043 0.360216 0.582428 -0.570995
Br2   Br    Br    0.244688 0.646609 0.421937 -0.521411
O15   O     O_3   0.687103 0.890716 0.417843 -0.637862
C77   C     C_3   0.674516 0.901850 0.367199 0.078385
H31   H     H_    0.710450 0.967340 0.354795 0.199338
H32   H     H_    0.603069 0.909557 0.356797 0.136680
C78   C     C_3   0.712999 0.811558 0.341385 -0.393736
H33   H     H_    0.782358 0.798188 0.354217 0.232394
H34   H     H_    0.673063 0.746602 0.350551 0.211907
C79   C     C_3   0.713245 0.824401 0.286297 -0.840577
H35   H     H_    0.644821 0.837806 0.272261 0.273962
H36   H     H_    0.740488 0.757156 0.268812 0.279126
H37   H     H_    0.755559 0.886872 0.276376 0.252590
O16   O     O_3   0.315733 0.106560 0.584294 -0.629106
C80   C     C_3   0.229695 0.095444 0.563791 0.068138
H38   H     H_    0.181080 0.116661 0.592233 0.170271
H39   H     H_    0.214869 0.018446 0.553499 0.179926
C81   C     C_3   0.215364 0.162504 0.519832 -0.390116
H40   H     H_    0.232791 0.238321 0.530141 0.229540
H41   H     H_    0.259117 0.138447 0.489605 0.220526
C82   C     C_3   0.119176 0.161196 0.502006 -0.891846
H42   H     H_    0.101272 0.086500 0.489615 0.258929
H43   H     H_    0.110509 0.212332 0.471077 0.267527
H44   H     H_    0.073832 0.184666 0.531588 0.261818
O17   O     O_3   0.327256 0.900951 0.591197 -0.624351
C83   C     C_3   0.357267 0.910545 0.639995 0.063076
H45   H     H_    0.298674 0.902467 0.663767 0.179070
H46   H     H_    0.385181 0.983848 0.648574 0.170940
C84   C     C_3   0.425381 0.829920 0.652671 -0.411388
H47   H     H_    0.396959 0.757163 0.644129 0.238279
H48   H     H_    0.486097 0.839047 0.630647 0.234784
C85   C     C_3   0.451394 0.833571 0.706430 -0.743777
H49   H     H_    0.480145 0.905679 0.715848 0.255222
H50   H     H_    0.501906 0.775787 0.714246 0.290305
H51   H     H_    0.392504 0.820963 0.729425 0.263733
O18   O     O_3   0.687942 0.099311 0.417893 -0.631734
C86   C     C_3   0.773734 0.090005 0.439107 0.037143
H52   H     H_    0.822735 0.101208 0.409815 0.173018
H53   H     H_    0.788196 0.016017 0.454185 0.176833
C87   C     C_3   0.788106 0.167876 0.478606 -0.346759
H54   H     H_    0.774015 0.241721 0.463486 0.235294
H55   H     H_    0.742199 0.155347 0.509235 0.239931
C88   C     C_3   0.883322 0.163937 0.497912 -0.884120
H56   H     H_    0.900256 0.089670 0.511577 0.253921
H57   H     H_    0.890646 0.216600 0.528380 0.283495
H58   H     H_    0.930144 0.183530 0.468734 0.256762
O19   O     O_3   0.440625 0.359132 0.752074 -0.569014
C89   C     C_3   0.348042 0.377864 0.754161 0.039106
H59   H     H_    0.315695 0.307769 0.762928 0.190221
H60   H     H_    0.318839 0.402202 0.718746 0.120681
C90   C     C_3   0.326407 0.452389 0.794430 -0.367990
H61   H     H_    0.358073 0.428502 0.829153 0.238460
H62   H     H_    0.353213 0.524780 0.784681 0.235696
C91   C     C_3   0.226426 0.463280 0.801571 -0.851614
H63   H     H_    0.193647 0.488262 0.767384 0.254287
H64   H     H_    0.213047 0.518249 0.830593 0.267882
H65   H     H_    0.197893 0.392451 0.812570 0.261397
O20   O     O_3   0.675836 0.382438 0.269205 -0.581695
C92   C     C_3   0.757480 0.413599 0.289830 0.041877
H66   H     H_    0.809305 0.359179 0.279147 0.185020
H67   H     H_    0.756936 0.413914 0.330278 0.129465
C93   C     C_3   0.784409 0.514080 0.270592 -0.366536
H68   H     H_    0.787404 0.511341 0.230233 0.245798
H69   H     H_    0.734376 0.570480 0.281313 0.225982
C94   C     C_3   0.874520 0.544295 0.291118 -0.888230
H70   H     H_    0.872243 0.548928 0.331446 0.251981
H71   H     H_    0.891816 0.617225 0.276816 0.263278
H72   H     H_    0.926825 0.490646 0.280203 0.266780
Br3   Br    Br    0.497843 0.794730 0.881151 -0.374290
Br4   Br    Br    0.430856 0.244655 0.119770 -0.448381
O21   O     O_3   0.533148 0.748201 0.984663 -0.548142
C95   C     C_3   0.449304 0.736225 0.006190 0.070716
H73   H     H_    0.446495 0.666727 0.027015 0.127518
H74   H     H_    0.396199 0.736385 0.977683 0.165347
C96   C     C_3   0.432673 0.821357 0.041364 -0.300189
H75   H     H_    0.486455 0.822570 0.069376 0.227713
H76   H     H_    0.433789 0.891395 0.021122 0.239575
C97   C     C_3   0.343424 0.812406 0.066562 -0.883190
H77   H     H_    0.288492 0.812335 0.039284 0.268026
H78   H     H_    0.333416 0.875452 0.091676 0.268031
H79   H     H_    0.341775 0.743885 0.087962 0.257142
O22   O     O_3   0.533845 0.233461 0.020089 -0.586017
C98   C     C_3   0.552142 0.138976 0.040137 0.159268
H80   H     H_    0.567075 0.090175 0.008706 0.206976
H81   H     H_    0.490968 0.108352 0.055634 0.175095
C99   C     C_3   0.630351 0.129440 0.077100 -0.431471
H82   H     H_    0.687276 0.174583 0.066361 0.263015
H83   H     H_    0.609090 0.154265 0.113700 0.242529
C100  C     C_3   0.661934 0.023248 0.081557 -0.761647
H84   H     H_    0.606175 0.976141 0.092494 0.247909
H85   H     H_    0.715423 0.017826 0.109553 0.260647
H86   H     H_    0.688731 0.996528 0.046326 0.300112
Br5   Br    Br    0.710296 0.759953 0.027208 -0.452502
Br6   Br    Br    0.711857 0.220460 0.969227 -0.497173

loop_
_geom_bond_atom_site_label_1
_geom_bond_atom_site_label_2
_ccdc_geom_bond_type
C7    H11   S    
C74   H24   S    
C47   O9    S    
C84   H48   S    
C24   O7    A    
C47   N1    A    
C88   H56   S    
C14   C18   A    
C66   C68   A    
C35   C36   A    
C31   Br1   S    
C92   H67   S    
C73   H22   S    
C20   C22   A    
C76   H28   S    
C39   C41   A    
Cu2   O6    S    
O19   C89   S    
C56   C57   A    
C67   C69   A    
C5    C47   A    
C33   C39   A    
C66   O14   S    
C43   N3    A    
C2    C29   S    
C24   O6    A    
C59   O12   S    
C2    O3    A    
C82   H43   S    
O18   C86   S    
C11   C63   A    
C74   H25   S    
C12   C64   A    
C49   C53   A    
C9    C22   A    
C76   H29   S    
Cu1   O3    S    
C71   H17   S    
C100  H86   S    
C98   C99   S    
C8    C26   A    
O20   C92   S    
C62   C70   A    
C3    C18   A    
C93   H69   S    
C59   N1    A    
C11   C23   S    
C37   C42   A    
C61   C63   A    
C89   H59   S    
C15   C26   A    
C62   C64   A    
C85   H51   S    
C98   H81   S    
C85   H50   S    
C82   H42   S    
C52   C54   A    
O22   C98   S    
C90   H62   S    
C83   H45   S    
C28   H16   S    
C78   C79   S    
O17   C83   S    
C83   C84   S    
C95   H73   S    
C51   C57   A    
C45   C49   A    
C60   O11   S    
C44   N4    A    
C91   H65   S    
Cu2   O2    S    
C44   C52   A    
C40   C42   A    
C23   O8    A    
C48   N2    A    
C84   C85   S    
C87   H55   S    
C97   H77   S    
C96   H76   S    
C22   Br4   S    
C87   H54   S    
C70   N2    S    
C79   H37   S    
C69   N1    S    
C65   O13   S    
C73   H21   S    
C91   H64   S    
C72   H20   S    
C10   C21   A    
C19   O21   S    
C13   C19   A    
C26   Br6   S    
C94   H70   S    
C81   C82   S    
C14   C20   A    
C2    O2    A    
C82   H44   S    
O16   C80   S    
C38   C41   A    
C4    C6    A    
C74   C75   S    
C5    C7    A    
C79   H35   S    
C92   C93   S    
C6    C8    A    
C55   O15   S    
C53   C54   A    
C62   O19   S    
C12   C66   A    
C50   C56   A    
C88   H57   S    
C93   H68   S    
C9    C59   A    
C80   H39   S    
C32   C34   A    
C77   H32   S    
C100  H84   S    
C94   H71   S    
C3    C9    A    
C41   H3    S    
Cu1   O5    S    
C45   N3    A    
C14   C15   A    
C99   C100  S    
C28   C38   A    
C90   C91   S    
C48   O10   S    
C86   C87   S    
C95   C96   S    
C31   C33   A    
C98   H80   S    
Cu1   N3    S    
C45   H7    S    
C16   C18   A    
C50   C54   A    
C21   Br3   S    
C27   H15   S    
C89   C90   S    
C6    C48   A    
C52   C58   A    
Cu1   O1    S    
C4    C17   A    
C81   H41   S    
C23   O5    A    
C83   H46   S    
C67   H9    S    
C93   C94   S    
C63   H14   S    
C78   H33   S    
C96   C97   S    
C34   C40   A    
C72   C73   S    
C77   C78   S    
C20   O22   S    
C4    C10   A    
C36   C38   A    
C58   O18   S    
C3    C5    A    
C64   H13   S    
C91   H63   S    
C75   H27   S    
C79   H36   S    
O15   C77   S    
Cu2   O8    S    
C61   C69   A    
C16   C25   A    
C15   C17   A    
C46   C50   A    
C10   C60   A    
C61   O20   S    
C35   C37   A    
C8    H12   S    
C97   H78   S    
C81   H40   S    
C76   H30   S    
C7    C25   A    
C75   C76   S    
C80   C81   S    
C60   N2    A    
C43   H5    S    
O13   C71   S    
C12   C24   S    
C42   H4    S    
C65   C67   A    
C96   H75   S    
C13   C17   A    
C68   H10   S    
C32   Br2   S    
C100  H85   S    
C77   H31   S    
C13   C16   A    
C94   H72   S    
C28   C30   A    
C29   C31   A    
C49   C55   A    
C80   H38   S    
C30   C32   A    
C43   C51   A    
C92   H66   S    
C85   H49   S    
C27   C29   A    
C27   C37   A    
C1    O4    A    
Cu2   N4    S    
C57   O17   S    
C44   H6    S    
C1    C30   S    
C33   C35   A    
C40   H2    S    
O14   C74   S    
C97   H79   S    
C34   C36   A    
C39   H1    S    
Cu1   O7    S    
O21   C95   S    
C71   H18   S    
C89   H60   S    
C86   H52   S    
C25   Br5   S    
C99   H83   S    
Cu2   O4    S    
Cu1   Cu2   S    
C46   N4    A    
C99   H82   S    
C87   C88   S    
C1    O1    A    
C90   H61   S    
C55   C58   A    
C56   O16   S    
C84   H47   S    
C78   H34   S    
C68   C70   A    
C75   H26   S    
C86   H53   S    
C95   H74   S    
C88   H58   S    
C46   H8    S    
C51   C53   A    
C72   H19   S    
C73   H23   S    
C11   C65   A    
C19   C21   A    
C71   C72   S    
