data_mof_unit_58733.cif
_audit_creation_date              2013-03-05T16:00:48-0500
_audit_creation_method            fapswitch 2.2
_symmetry_space_group_name_H-M    P1
_symmetry_Int_Tables_number       1
_space_group_crystal_system       triclinic
_cell_length_a                    14.698731
_cell_length_b                    14.628026
_cell_length_c                    15.888426
_cell_angle_alpha                 76.961678
_cell_angle_beta                  102.684096
_cell_angle_gamma                 114.693234
_cell_volume                      2993.35338794

loop_
_atom_site_label
_atom_site_type_symbol
_atom_site_description
_atom_site_fract_x
_atom_site_fract_y
_atom_site_fract_z
_atom_type_partial_charge
O1    O     O_R   0.977910 0.338120 0.529720 -0.555746
O2    O     O_R   0.839850 0.379180 0.491640 -0.549582
C1    C     C_R   0.880238 0.311825 0.513216 0.871730
O3    O     O_R   0.069060 0.479460 0.639610 -0.585389
O4    O     O_R   0.931000 0.520530 0.601530 -0.570075
C2    C     C_R   0.999542 0.499918 0.659608 0.811828
Cu1   Cu    Cu3+1 0.081750 0.475690 0.522550 0.989844
Cu2   Cu    Cu3+1 0.918250 0.524310 0.477450 1.013859
O5    O     O_R   0.160150 0.620820 0.508360 -0.605926
O6    O     O_R   0.022090 0.661880 0.470280 -0.554697
O7    O     O_R   0.069000 0.479470 0.398470 -0.556502
O8    O     O_R   0.930940 0.520540 0.360390 -0.575124
C3    C     C_R   0.119708 0.688320 0.484554 0.813575
C4    C     C_R   0.000364 0.499924 0.340420 0.826231
C5    C     C_3   0.028451 0.411411 0.973763 -0.481479
C6    C     C_3   0.886665 0.476596 0.934865 0.468096
C7    C     C_3   0.893234 0.474114 0.035862 -0.533968
H1    H     H_    0.969435 0.336108 0.960693 0.229013
H2    H     H_    0.841826 0.401721 0.068664 0.277425
H3    H     H_    0.865224 0.530205 0.046099 0.161713
C8    C     C_1   0.001554 0.500070 0.251153 -0.046417
C9    C     C_3   0.995252 0.496755 0.916702 0.051655
C10   C     C_3   0.046774 0.420042 0.073844 0.539846
C11   C     C_3   0.004073 0.500014 0.083846 -0.063191
C12   C     C_3   0.067853 0.608668 0.037874 0.152818
C13   C     C_3   0.074223 0.600407 0.943302 -0.483797
C14   C     C_1   0.002912 0.500337 0.175921 0.104634
C15   C     C_1   0.996524 0.497986 0.824372 0.074252
C16   C     C_1   0.998011 0.499093 0.748982 -0.109786
H4    H     H_    0.150191 0.606019 0.936869 0.253333
H5    H     H_    0.062549 0.665455 0.897235 0.179553
H6    H     H_    0.095520 0.413099 0.951287 0.211450
H7    H     H_    0.026169 0.658825 0.031823 0.114836
C17   C     C_R   0.812831 0.202906 0.523796 -0.202396
C18   C     C_R   0.187816 0.797147 0.472955 -0.042533
C19   C     C_R   0.781331 0.026443 0.590174 0.133901
C20   C     C_R   0.845039 0.130373 0.582331 0.136721
C21   C     C_R   0.713410 0.171212 0.478689 0.219011
C22   C     C_R   0.643354 0.072377 0.503737 -0.039855
C23   C     C_R   0.680197 0.995996 0.546636 -0.061239
C24   C     C_R   0.537479 0.048209 0.487046 0.041565
C25   C     C_R   0.469292 0.945275 0.495937 0.021090
C26   C     C_R   0.510022 0.869394 0.518765 -0.238050
C27   C     C_R   0.613246 0.893144 0.545919 0.356450
C28   C     C_R   0.499090 0.125128 0.470273 -0.191886
C29   C     C_R   0.395688 0.103614 0.453513 0.312014
C30   C     C_R   0.326693 0.001594 0.455582 0.005746
C31   C     C_R   0.363144 0.921949 0.480691 0.069969
C32   C     C_R   0.221885 0.977337 0.433720 -0.149707
C33   C     C_R   0.152474 0.876197 0.441744 0.129887
C34   C     C_R   0.292069 0.821241 0.492403 -0.252077
H8    H     H_    0.316218 0.759375 0.518678 0.162202
H9    H     H_    0.464102 0.790221 0.515357 0.162250
H10   H     H_    0.549119 0.202909 0.476067 0.200257
H11   H     H_    0.192500 0.036369 0.409173 0.203416
N1    N     N_R   0.795410 0.560790 0.443550 -0.191731
N2    N     N_R   0.204590 0.439170 0.556520 -0.186682
C35   C     C_R   0.716970 0.670883 0.354920 0.069097
C36   C     C_R   0.798144 0.639601 0.378790 0.072726
C37   C     C_R   0.714338 0.509161 0.487387 0.086137
C38   C     C_R   0.628666 0.535821 0.466862 -0.042276
C39   C     C_R   0.631822 0.619112 0.399557 0.158344
C40   C     C_R   0.541257 0.483844 0.511169 0.122220
C41   C     C_R   0.458784 0.517097 0.487965 0.108202
C42   C     C_R   0.466663 0.601396 0.421844 -0.172149
C43   C     C_R   0.550743 0.650601 0.378603 -0.064910
C44   C     C_R   0.533426 0.399688 0.577821 -0.157086
C45   C     C_R   0.449319 0.350831 0.621207 -0.108044
C46   C     C_R   0.368765 0.382457 0.599430 0.173372
C47   C     C_R   0.371388 0.465168 0.532111 -0.001248
C48   C     C_R   0.284829 0.331117 0.644243 -0.258701
C49   C     C_R   0.203336 0.361024 0.621816 0.100085
C50   C     C_R   0.285185 0.491093 0.511872 0.053307
H12   H     H_    0.551953 0.714940 0.328564 0.184860
H13   H     H_    0.279220 0.550997 0.460296 0.131893
H14   H     H_    0.138341 0.321250 0.656091 0.146673
H15   H     H_    0.447047 0.286858 0.672134 0.156339
H16   H     H_    0.864388 0.678508 0.345941 0.137322
H17   H     H_    0.719610 0.448740 0.538629 0.133841
H18   H     H_    0.408990 0.632191 0.401878 0.140259
H19   H     H_    0.591109 0.368966 0.598305 0.138411
H20   H     H_    0.282023 0.267855 0.696033 0.152517
N3    N     N_R   0.994419 0.318345 0.123045 0.111053
O9    O     O_R   0.045038 0.275318 0.184400 -0.264123
O10   O     O_R   0.898741 0.265774 0.101369 -0.313854
N4    N     N_R   0.156397 0.455716 0.108786 0.163296
O11   O     O_R   0.224920 0.472416 0.061058 -0.316300
O12   O     O_R   0.186075 0.467328 0.190578 -0.270155
N5    N     N_R   0.648936 0.812433 0.562383 0.097220
O13   O     O_R   0.603875 0.727944 0.611996 -0.370867
O14   O     O_R   0.708529 0.813833 0.512031 -0.366019
N6    N     N_3   0.046511 0.854864 0.418531 -0.564918
H21   H     H_    0.026802 0.891610 0.456638 0.242110
H22   H     H_    0.033845 0.886109 0.353195 0.231061
N7    N     N_R   0.362756 0.186343 0.439681 0.120873
O15   O     O_R   0.297255 0.182109 0.485338 -0.374642
O16   O     O_R   0.411639 0.272816 0.394246 -0.302324
N8    N     N_3   0.817646 0.956594 0.651810 -0.582031
H23   H     H_    0.835162 0.913403 0.618739 0.283438
H24   H     H_    0.763182 0.909722 0.692276 0.254379
N9    N     N_3   0.943290 0.162154 0.633683 -0.565908
H25   H     H_    0.984051 0.125116 0.619199 0.247937
H26   H     H_    0.934369 0.139834 0.699671 0.242781
N10   N     N_R   0.690509 0.226286 0.394814 0.130088
O17   O     O_R   0.664765 0.182208 0.325844 -0.285019
O18   O     O_R   0.679634 0.311605 0.387903 -0.337863
N11   N     N_3   0.721173 0.755180 0.286438 -0.551003
H27   H     H_    0.792870 0.790426 0.266643 0.228049
H28   H     H_    0.670421 0.725609 0.232574 0.237385
N12   N     N_3   0.854751 0.558857 0.884981 -0.552454
H29   H     H_    0.779561 0.539830 0.892078 0.248723
H30   H     H_    0.896941 0.627024 0.909982 0.193250
N13   N     N_R   0.811795 0.379853 0.905430 0.142723
O19   O     O_R   0.760644 0.303279 0.959076 -0.293927
O20   O     O_R   0.787588 0.374138 0.822339 -0.351021
N14   N     N_R   0.167721 0.658583 0.088199 0.182236
O21   O     O_R   0.172544 0.690470 0.159805 -0.346676
O22   O     O_R   0.251332 0.686407 0.056326 -0.281014

loop_
_geom_bond_atom_site_label_1
_geom_bond_atom_site_label_2
_geom_bond_distance
_ccdc_geom_bond_type
C35   C39   1.413674 A    
C5    H1    1.111181 S    
C37   H17   1.074641 S    
N9    H25   1.045699 S    
C17   C20   1.412771 A    
N11   H28   1.045501 S    
C24   C25   1.413152 A    
N7    O15   1.301407 A    
C11   C14   1.467875 S    
C49   H14   1.081143 S    
C6    N13   1.484536 S    
Cu2   N1    2.020717 S    
N10   O18   1.300911 A    
C6    N12   1.474524 S    
Cu1   Cu2   2.690121 S    
C22   C24   1.420756 A    
C28   C29   1.392995 A    
Cu1   O7    1.929239 S    
C10   N3    1.483008 S    
C4    C8    1.421760 S    
C15   C16   1.199162 T    
C3    C18   1.479012 S    
C21   C22   1.409052 A    
O7    C4    1.295025 A    
N4    O12   1.302571 A    
C43   H12   1.082954 S    
C7    H3    1.114038 S    
N14   O21   1.301294 A    
C38   C40   1.436622 A    
C35   N11   1.438314 S    
N2    C50   1.362961 A    
C46   C48   1.401227 A    
O5    C3    1.301740 A    
N12   H29   1.046525 S    
C21   N10   1.443409 S    
O1    Cu1   1.949073 S    
C26   H9    1.076525 S    
C31   C34   1.404299 A    
C29   N7    1.438691 S    
N3    O9    1.302285 A    
C6    C7    1.579313 S    
C10   N4    1.487351 S    
N11   H27   1.045836 S    
C41   C47   1.434997 A    
N5    O14   1.301167 A    
C48   H20   1.083789 S    
C5    C10   1.578314 S    
C8    C14   1.198955 T    
C13   H5    1.112477 S    
N9    H26   1.045554 S    
C42   H18   1.076430 S    
C9    C15   1.467156 S    
C50   H13   1.075042 S    
C38   C39   1.420153 A    
C18   C33   1.408167 A    
O3    Cu1   1.924649 S    
C36   H16   1.081921 S    
N10   O17   1.300996 A    
C5    C9    1.556480 S    
C40   C44   1.413195 A    
C7    C11   1.564667 S    
C39   C43   1.399473 A    
C44   C45   1.388544 A    
C19   C23   1.421596 A    
C11   C12   1.571782 S    
C30   C32   1.408452 A    
C12   N14   1.476396 S    
C22   C23   1.416346 A    
N4    O11   1.302086 A    
C45   C46   1.393290 A    
C1    C17   1.477081 S    
C12   C13   1.560251 S    
C32   H11   1.081673 S    
C34   H8    1.073362 S    
C37   C38   1.420147 A    
O1    C1    1.302534 A    
C26   C27   1.395938 A    
C30   C31   1.421799 A    
Cu2   O8    1.924651 S    
C47   C50   1.421339 A    
N6    H22   1.045619 S    
C25   C31   1.426867 A    
C33   N6    1.432781 S    
N3    O10   1.300375 A    
O8    C4    1.294372 A    
C28   H10   1.078085 S    
C44   H19   1.076073 S    
N8    H24   1.045400 S    
C18   C34   1.399242 A    
C32   C33   1.398882 A    
O3    C2    1.294465 A    
C25   C26   1.414314 A    
N13   O19   1.301324 A    
C45   H15   1.084277 S    
Cu1   O5    1.933870 S    
C29   C30   1.408772 A    
C19   C20   1.407120 A    
C6    C9    1.577458 S    
C17   C21   1.409993 A    
O2    Cu2   1.933870 S    
O6    C3    1.301099 A    
C5    H6    1.109178 S    
O4    Cu2   1.929239 S    
N7    O16   1.301474 A    
C13   H4    1.110772 S    
N1    C36   1.354105 A    
C41   C42   1.409711 A    
O2    C1    1.299095 A    
C35   C36   1.398565 A    
C48   C49   1.390412 A    
C20   N9    1.435334 S    
O4    C2    1.295159 A    
N6    H21   1.045658 S    
C7    H2    1.104245 S    
N14   O22   1.301872 A    
C42   C43   1.387065 A    
N2    C49   1.356121 A    
C46   C47   1.415828 A    
N12   H30   1.044298 S    
C10   C11   1.590236 S    
C40   C41   1.434416 A    
N1    C37   1.360407 A    
C23   C27   1.413471 A    
C2    C16   1.422374 S    
Cu2   O6    1.949073 S    
N8    H23   1.042448 S    
C9    C13   1.558235 S    
C24   C28   1.408742 A    
C19   N8    1.436170 S    
N5    O13   1.301265 A    
Cu1   N2    2.021069 S    
C27   N5    1.433686 S    
C12   H7    1.113941 S    
N13   O20   1.301978 A    
