data_mof_unit_48955.cif
_audit_creation_date              2012-12-10T19:46:22-0500
_audit_creation_method            fapswitch 2.2
_symmetry_space_group_name_H-M    P1
_symmetry_Int_Tables_number       1
_space_group_crystal_system       triclinic
_cell_length_a                    11.018768
_cell_length_b                    10.894833
_cell_length_c                    10.442803
_cell_angle_alpha                 92.904963
_cell_angle_beta                  89.998076
_cell_angle_gamma                 92.085043
_cell_volume                      1251.19187985

loop_
_atom_site_label
_atom_site_type_symbol
_atom_type_description
_atom_site_fract_x
_atom_site_fract_y
_atom_site_fract_z
_atom_type_partial_charge
C1    C     C_R   0.495532 0.261174 0.497015 0.812232
C2    C     C_R   0.494500 0.738480 0.501954 0.807859
C3    C     C_R   0.872767 0.499729 0.507453 -0.110032
C4    C     C_R   0.128276 0.500995 0.496194 -0.096766
C5    C     C_R   0.942815 0.521594 0.622999 0.042389
C6    C     C_R   0.058921 0.479598 0.381891 0.074034
C7    C     C_R   0.554301 0.146941 0.039747 0.498547
C8    C     C_R   0.701881 0.877220 0.851487 0.552591
C9    C     C_R   0.494703 0.118587 0.155254 -0.225074
C10   C     C_R   0.641799 0.910799 0.741129 -0.260972
C11   C     C_R   0.562723 0.101837 0.265705 0.071936
C12   C     C_R   0.515417 0.906948 0.734341 0.105583
C13   C     C_R   0.689831 0.111379 0.261673 -0.185833
C14   C     C_R   0.445425 0.869276 0.837782 -0.071569
C15   C     C_R   0.748656 0.133148 0.146658 -0.122857
C16   C     C_R   0.503839 0.832686 0.947567 -0.242659
C17   C     C_R   0.680706 0.147912 0.036233 -0.141830
C18   C     C_R   0.631001 0.835663 0.953874 -0.141051
C19   C     C_R   0.492801 0.927330 0.384047 -0.205094
C20   C     C_R   0.452827 0.070503 0.605901 -0.187350
C21   C     C_R   0.480016 0.871509 0.501514 -0.107604
C22   C     C_R   0.481813 0.127231 0.491990 -0.116005
C23   C     C_R   0.261472 0.499662 0.498911 0.793845
C24   C     C_R   0.738908 0.500928 0.501874 0.791659
C25   C     C_R   0.463704 0.944682 0.614452 0.009945
C26   C     C_R   0.503900 0.054162 0.380072 0.031453
C27   C     C_1   0.500236 0.500450 0.072030 0.041553
C28   C     C_1   0.499867 0.500517 0.928022 0.088294
C29   C     C_R   0.213831 0.548905 0.067089 -0.171629
C30   C     C_R   0.783415 0.455176 0.936669 -0.142366
C31   C     C_R   0.179117 0.558316 0.195672 0.069980
C32   C     C_R   0.820061 0.445787 0.808666 -0.014094
C33   C     C_R   0.110966 0.462574 0.250248 0.042172
C34   C     C_R   0.893692 0.538694 0.756987 0.015548
C35   C     C_R   0.077584 0.357622 0.172140 -0.250591
C36   C     C_R   0.938535 0.636290 0.841569 -0.198113
C37   C     C_R   0.111757 0.348751 0.042518 0.468971
C38   C     C_R   0.904034 0.643912 0.972203 0.493475
C39   C     C_R   0.179653 0.445007 0.990433 -0.288802
C40   C     C_R   0.823972 0.553791 0.017532 -0.270581
C41   C     C_R   0.932621 0.477566 0.390646 -0.204810
C42   C     C_R   0.069093 0.521461 0.613505 -0.248053
Cu1   Cu    Cu3+1 0.500000 0.500000 0.625300 0.983810
Cu2   Cu    Cu3+1 0.500000 0.500000 0.374700 0.968167
H1    H     H_    0.205975 0.440116 0.890604 0.164425
H2    H     H_    0.795099 0.557820 0.116583 0.156598
H3    H     H_    0.743163 0.095857 0.346118 0.143766
H4    H     H_    0.347202 0.866951 0.832799 0.152405
H5    H     H_    0.846752 0.135528 0.142612 0.228542
H6    H     H_    0.450789 0.801945 0.027900 0.155695
H7    H     H_    0.509926 0.872677 0.296572 0.166317
H8    H     H_    0.440689 0.125764 0.693164 0.216547
H9    H     H_    0.265767 0.623437 0.026128 0.165342
H10   H     H_    0.724651 0.384395 0.974301 0.163370
H11   H     H_    0.202747 0.642004 0.252022 0.172302
H12   H     H_    0.792251 0.364571 0.750337 0.152101
H13   H     H_    0.022309 0.284403 0.211392 0.160240
H14   H     H_    0.002430 0.704481 0.806449 0.168504
H15   H     H_    0.880154 0.460515 0.303339 0.164067
H16   H     H_    0.122428 0.536129 0.700488 0.159313
H17   H     H_    0.725073 0.160132 0.945627 0.196844
H18   H     H_    0.674031 0.806233 0.039543 0.171741
H19   H     H_    0.396909 0.106101 0.159712 0.150522
H20   H     H_    0.691613 0.939683 0.657884 0.115939
N1    N     N_1   0.500010 0.499990 0.186410 -0.155328
N2    N     N_1   0.499990 0.500010 0.813590 -0.144670
O1    O     O_R   0.499990 0.319650 0.605810 -0.578036
O2    O     O_R   0.500010 0.680350 0.394190 -0.590898
O3    O     O_R   0.499990 0.319640 0.394190 -0.567378
O4    O     O_R   0.500010 0.680360 0.605810 -0.568727
O5    O     O_R   0.319640 0.500010 0.605810 -0.586118
O6    O     O_R   0.680360 0.499990 0.394190 -0.583870
O7    O     O_R   0.319650 0.500010 0.394190 -0.592772
O8    O     O_R   0.680350 0.499990 0.605810 -0.579107
S1    S     S_3+6 0.063214 0.220301 0.944373 -0.077817
O9    O     O_2   0.087062 0.104351 0.010721 -0.250467
O10   O     O_2   0.929615 0.226659 0.923099 -0.380345
O11   O     O_3   0.132415 0.217029 0.800724 -0.584679
H21   H     H_    0.089838 0.277062 0.750387 0.352344
S2    S     S_3+6 0.967251 0.758750 0.082929 0.002789
O12   O     O_2   0.093048 0.796691 0.041390 -0.278330
O13   O     O_2   0.892611 0.871259 0.093548 -0.252076
O14   O     O_3   0.972620 0.704501 0.230384 -0.567648
H22   H     H_    0.890943 0.716944 0.267431 0.343791
O15   O     O_3   0.496317 0.166776 0.925057 -0.628184
C43   C     C_3   0.377650 0.207345 0.942488 -0.257421
H23   H     H_    0.314540 0.126800 0.952187 0.240685
H24   H     H_    0.369735 0.274880 0.025307 0.151698
H25   H     H_    0.352129 0.255362 0.856096 0.225006
O16   O     O_3   0.827685 0.878763 0.863805 -0.558842
C44   C     C_3   0.892125 0.944247 0.770727 -0.167456
H26   H     H_    0.889598 0.891835 0.676587 0.113014
H27   H     H_    0.858329 0.038556 0.763240 0.180854
H28   H     H_    0.988731 0.953980 0.800534 0.255102

loop_
_geom_bond_atom_site_label_1
_geom_bond_atom_site_label_2
_ccdc_geom_bond_type
C38   C40   A    
C5    C42   A    
Cu1   Cu2   S    
C4    C42   A    
Cu2   N1    S    
O15   C43   S    
C40   H2    S    
C30   H10   S    
C29   H9    S    
C19   C21   A    
C16   H6    S    
C36   H14   S    
C33   C35   A    
C43   H24   S    
C20   C25   A    
C15   C17   A    
C19   C26   A    
C17   H17   S    
C7    C17   A    
C6    C41   A    
C31   C33   A    
C39   H1    S    
Cu1   O8    S    
C37   S1    S    
C1    C22   S    
C9    H19   S    
C3    C24   S    
C23   O7    A    
S2    O14   S    
C23   O5    A    
C41   H15   S    
C4    C6    A    
C42   H16   S    
C44   H26   S    
C13   H3    S    
C4    C23   S    
O11   H21   S    
C18   H18   S    
C14   H4    S    
C11   C26   S    
C8    C18   A    
C32   C34   A    
C28   N2    T    
S1    O9    D    
C27   N1    T    
C44   H27   S    
C9    C11   A    
O14   H22   S    
C29   C31   A    
C5    C34   S    
C29   C39   A    
C2    C21   S    
C30   C40   A    
Cu2   O3    S    
C16   C18   A    
S1    O10   D    
C10   C12   A    
S2    O13   D    
C12   C14   A    
Cu1   O4    S    
C13   C15   A    
C14   C16   A    
Cu2   O2    S    
C8    O16   S    
C24   O6    A    
C7    C9    A    
C21   C25   A    
C3    C41   A    
Cu1   O5    S    
C35   C37   A    
C43   H23   S    
C8    C10   A    
C10   H20   S    
C20   C22   A    
S2    O12   D    
C3    C5    A    
C43   H25   S    
C2    O2    A    
C6    C33   S    
C35   H13   S    
C12   C25   S    
C20   H8    S    
C36   C38   A    
C37   C39   A    
C44   H28   S    
C30   C32   A    
C11   C13   A    
C24   O8    A    
O16   C44   S    
C7    O15   S    
C38   S2    S    
Cu1   N2    S    
C1    O1    A    
Cu2   O6    S    
C34   C36   A    
C15   H5    S    
Cu2   O7    S    
S1    O11   S    
C1    O3    A    
C19   H7    S    
Cu1   O1    S    
C22   C26   A    
C27   C28   S    
C31   H11   S    
C2    O4    A    
C32   H12   S    
