data_mof_unit_33964.cif
_audit_creation_date              2012-12-10T18:14:22-0500
_audit_creation_method            fapswitch 2.2
_symmetry_space_group_name_H-M    P1
_symmetry_Int_Tables_number       1
_space_group_crystal_system       triclinic
_cell_length_a                    12.584732
_cell_length_b                    13.131745
_cell_length_c                    19.169725
_cell_angle_alpha                 91.12164
_cell_angle_beta                  102.86895
_cell_angle_gamma                 82.530937
_cell_volume                      3062.05721735

loop_
_atom_site_label
_atom_site_type_symbol
_atom_type_description
_atom_site_fract_x
_atom_site_fract_y
_atom_site_fract_z
_atom_type_partial_charge
C1    C     C_R   0.439399 0.690576 0.484897 0.913842
C2    C     C_R   0.504144 0.503783 0.710155 -0.147361
C3    C     C_R   0.500371 0.482123 0.069950 0.262394
C4    C     C_R   0.513660 0.487929 0.932132 0.277234
C5    C     C_R   0.396394 0.485251 0.166404 0.119628
C6    C     C_R   0.398475 0.490679 0.239465 -0.223153
C7    C     C_R   0.498086 0.492867 0.289565 -0.054521
C8    C     C_R   0.596890 0.487340 0.266758 -0.204389
C9    C     C_R   0.596103 0.480821 0.194535 -0.192952
C10   C     C_R   0.496734 0.480960 0.144486 0.074673
C11   C     C_R   0.728811 0.044059 0.510782 -0.225983
C12   C     C_R   0.500557 0.502213 0.634072 0.935081
C13   C     C_R   0.596204 0.196964 0.504382 -0.095471
C14   C     C_R   0.292147 0.838084 0.459556 -0.161118
C15   C     C_R   0.259063 0.942908 0.450742 -0.149258
C16   C     C_R   0.336171 0.009403 0.449520 -0.186409
C17   C     C_R   0.447768 0.970834 0.452300 0.098319
C18   C     C_R   0.477106 0.863627 0.450257 0.076455
C19   C     C_R   0.533725 0.033514 0.465065 0.074817
C20   C     C_R   0.644411 0.988072 0.477626 0.143032
C21   C     C_R   0.668199 0.886082 0.459241 -0.242585
C22   C     C_R   0.583587 0.825997 0.440902 -0.195110
C23   C     C_R   0.561160 0.307834 0.508377 0.848715
C24   C     C_R   0.513434 0.139077 0.471027 -0.284976
C25   C     C_R   0.704796 0.146809 0.530060 0.102715
C26   C     C_R   0.401923 0.797957 0.462418 -0.128749
C27   C     C_R   0.084687 0.352792 0.395649 -0.313665
C28   C     C_R   0.800631 0.629256 0.585335 0.008762
C29   C     C_R   0.904654 0.660173 0.601426 -0.249851
C30   C     C_R   0.984801 0.613472 0.567391 -0.185789
C31   C     C_R   0.961166 0.534859 0.517131 0.011385
C32   C     C_R   0.853138 0.507637 0.501599 0.231219
C33   C     C_R   0.040134 0.481883 0.482192 -0.019093
C34   C     C_R   0.499227 0.498606 0.365597 0.843205
C35   C     C_R   0.008114 0.406628 0.430147 0.206113
C36   C     C_R   0.900559 0.384189 0.414074 -0.316539
C37   C     C_R   0.825203 0.431949 0.450809 -0.215442
C38   C     C_R   0.150719 0.498943 0.497479 -0.054006
C39   C     C_R   0.192557 0.373270 0.413264 -0.002070
C40   C     C_R   0.418360 0.556678 0.738317 -0.031487
C41   C     C_R   0.424092 0.547226 0.811214 -0.219253
C42   C     C_R   0.514892 0.491117 0.856365 0.015867
C43   C     C_R   0.604364 0.443215 0.829047 0.131546
C44   C     C_R   0.595935 0.448932 0.755131 -0.216778
H1    H     H_    0.752052 0.852002 0.461257 0.152219
H2    H     H_    0.812060 0.005208 0.526397 0.134368
H3    H     H_    0.431974 0.177168 0.449689 0.163473
H4    H     H_    0.232487 0.788921 0.466612 0.163716
H5    H     H_    0.306239 0.090121 0.449009 0.128772
H6    H     H_    0.174434 0.973442 0.449361 0.138540
H7    H     H_    0.604185 0.748642 0.423464 0.184032
H8    H     H_    0.253056 0.332795 0.387004 0.126126
H9    H     H_    0.875577 0.326080 0.375056 0.153134
H10   H     H_    0.061465 0.295195 0.355862 0.142849
H11   H     H_    0.357872 0.585660 0.833642 0.196295
H12   H     H_    0.182902 0.553922 0.536235 0.154683
H13   H     H_    0.737702 0.665583 0.611273 0.151543
H14   H     H_    0.063593 0.641113 0.580762 0.149514
H15   H     H_    0.923013 0.720427 0.639891 0.155784
H16   H     H_    0.746606 0.405359 0.440019 0.216090
H17   H     H_    0.659981 0.409885 0.731267 0.140956
H18   H     H_    0.321921 0.494120 0.256980 0.157600
H19   H     H_    0.674821 0.487864 0.304588 0.167096
H20   H     H_    0.672974 0.477721 0.177442 0.146740
N1    N     N_R   0.547627 0.399761 0.970841 -0.186181
N2    N     N_R   0.541925 0.397067 0.039102 -0.171719
N3    N     N_R   0.466291 0.570179 0.031533 -0.172809
N4    N     N_R   0.472469 0.572895 0.963484 -0.169885
N5    N     N_R   0.222200 0.444680 0.463280 -0.102251
N6    N     N_R   0.776960 0.554780 0.536340 -0.136362
O1    O     O_R   0.366740 0.627160 0.482470 -0.594150
O2    O     O_R   0.544830 0.662520 0.505920 -0.623952
O3    O     O_R   0.410920 0.482320 0.590130 -0.591939
O4    O     O_R   0.589010 0.517690 0.613590 -0.622758
O5    O     O_R   0.455170 0.337480 0.494080 -0.615554
O6    O     O_R   0.633260 0.372840 0.517530 -0.637285
O7    O     O_R   0.410990 0.482310 0.386410 -0.624675
O8    O     O_R   0.589080 0.517680 0.409870 -0.647913
Zn1   Zn    Zn3+2 0.381090 0.476390 0.484340 0.957711
Zn2   Zn    Zn3+2 0.618910 0.523610 0.515660 0.920505
C45   C     C_2   0.325251 0.626693 0.695137 0.890959
O9    O     O_2   0.334975 0.668279 0.640783 -0.648447
O10   O     O_R   0.227573 0.649252 0.718953 -0.818149
H21   H     H_    0.172751 0.702279 0.687711 0.332429
C46   C     C_3   0.707084 0.388986 0.878994 -0.406460
C47   C     C_3   0.808822 0.364105 0.846630 -0.368739
C48   C     C_3   0.910025 0.323445 0.903740 -0.865712
H22   H     H_    0.929017 0.382175 0.945577 0.265005
H23   H     H_    0.895901 0.252441 0.928971 0.264823
H24   H     H_    0.981847 0.305256 0.878855 0.253980
H25   H     H_    0.794188 0.304377 0.804927 0.219387
H26   H     H_    0.825943 0.434548 0.822132 0.234413
H27   H     H_    0.729889 0.439360 0.925828 0.213301
H28   H     H_    0.687035 0.316179 0.898392 0.217359
C49   C     C_3   0.287045 0.482115 0.114231 -0.437285
C50   C     C_3   0.251119 0.374838 0.113335 -0.331956
C51   C     C_3   0.141884 0.370057 0.060161 -0.880092
H29   H     H_    0.076437 0.425980 0.074823 0.260370
H30   H     H_    0.149513 0.387532 0.005140 0.268806
H31   H     H_    0.117823 0.291719 0.060836 0.253722
H32   H     H_    0.314750 0.317307 0.098006 0.233704
H33   H     H_    0.241954 0.354485 0.167539 0.219350
H34   H     H_    0.224098 0.539840 0.130141 0.202738
H35   H     H_    0.290818 0.503178 0.059161 0.220177
C52   C     C_3   0.793210 0.193898 0.582966 -0.421193
C53   C     C_3   0.894220 0.202231 0.552136 -0.338695
C54   C     C_3   0.973209 0.267247 0.599519 -0.830963
H36   H     H_    0.931211 0.345508 0.605780 0.264198
H37   H     H_    0.004715 0.230709 0.653176 0.255456
H38   H     H_    0.043818 0.273952 0.574730 0.254491
H39   H     H_    0.939008 0.124595 0.547547 0.208734
H40   H     H_    0.867573 0.236152 0.497761 0.237692
H41   H     H_    0.761978 0.269415 0.602223 0.222106
H42   H     H_    0.819153 0.143798 0.631468 0.191185

loop_
_geom_bond_atom_site_label_1
_geom_bond_atom_site_label_2
_ccdc_geom_bond_type
C48   H22   S    
C50   H33   S    
C9    H20   S    
C41   C42   A    
C49   C50   S    
C18   C26   A    
C23   O6    A    
C2    C12   S    
O1    Zn1   S    
C51   H29   S    
C27   H10   S    
C25   C52   S    
C7    C8    A    
C53   H40   S    
C28   H13   S    
C1    O1    A    
C52   H41   S    
C28   C29   A    
C12   O4    A    
C47   H25   S    
C34   O7    A    
C30   C31   A    
O8    Zn2   S    
C53   C54   S    
C11   C25   A    
C15   C16   A    
C13   C23   S    
C15   H6    S    
C4    N1    A    
C41   H11   S    
C36   H9    S    
C45   O10   S    
C46   H27   S    
C29   H15   S    
C2    C44   A    
C8    C9    A    
C54   H36   S    
C31   C33   A    
C9    C10   A    
C39   H8    S    
C38   N5    A    
O4    Zn2   S    
C50   H32   S    
C54   H37   S    
C13   C25   A    
C12   O3    A    
C51   H30   S    
C49   H34   S    
C45   O9    D    
C21   H1    S    
C53   H39   S    
O7    Zn1   S    
C39   N5    A    
C28   N6    A    
C11   C20   A    
C1    O2    A    
N6    Zn2   S    
N3    N4    A    
C43   C46   S    
C52   H42   S    
C16   H5    S    
C27   C39   A    
C4    N4    A    
C47   C48   S    
C16   C17   A    
C32   N6    A    
C27   C35   A    
C46   C47   S    
C13   C24   A    
C35   C36   A    
C43   C44   A    
C29   C30   A    
C46   H28   S    
O10   H21   S    
C50   C51   S    
C17   C18   A    
O3    Zn1   S    
C32   C37   A    
C14   C26   A    
C40   C41   A    
C48   H23   S    
C1    C26   S    
C7    C34   S    
N5    Zn1   S    
C3    N2    A    
C42   C43   A    
C17   C19   A    
C51   H31   S    
C49   H35   S    
C36   C37   A    
C18   C22   A    
C24   H3    S    
C40   C45   S    
C31   C32   A    
C3    N3    A    
O6    Zn2   S    
C23   O5    A    
C14   H4    S    
C6    C7    A    
C44   H17   S    
C52   C53   S    
C33   C38   A    
C54   H38   S    
C6    H18   S    
C19   C20   A    
C19   C24   A    
C5    C10   A    
O2    Zn2   S    
C3    C10   S    
C47   H26   S    
C34   O8    A    
C5    C6    A    
C4    C42   S    
C30   H14   S    
C33   C35   A    
C37   H16   S    
C8    H19   S    
C2    C40   A    
C5    C49   S    
C38   H12   S    
C20   C21   A    
N1    N2    A    
C48   H24   S    
C14   C15   A    
C11   H2    S    
C21   C22   A    
O5    Zn1   S    
C22   H7    S    
