data_mof_unit_27624.cif
_audit_creation_date              2012-10-26T19:03:23-0400
_audit_creation_method            fapswitch 2.2
_symmetry_space_group_name_H-M    P1
_symmetry_Int_Tables_number       1
_space_group_crystal_system       triclinic
_cell_length_a                    11.012531
_cell_length_b                    13.054402
_cell_length_c                    11.772191
_cell_angle_alpha                 99.443639
_cell_angle_beta                  93.056319
_cell_angle_gamma                 92.644239
_cell_volume                      1664.49344829

loop_
_atom_site_label
_atom_site_type_symbol
_atom_type_description
_atom_site_fract_x
_atom_site_fract_y
_atom_site_fract_z
_atom_type_partial_charge
C1    C     C_R   0.500499 0.298803 0.477542 0.539912
C2    C     C_R   0.479795 0.120356 0.349413 -0.044168
C3    C     C_R   0.528494 0.136233 0.554907 -0.080019
C4    C     C_R   0.261873 0.499432 0.500481 0.546163
C5    C     C_R   0.518960 0.028700 0.547502 0.009429
C6    C     C_R   0.477506 0.965831 0.441286 0.004446
C7    C     C_R   0.451452 0.858913 0.439463 0.209887
C8    C     C_R   0.541895 0.875297 0.634805 -0.095991
C9    C     C_R   0.549217 0.982669 0.644750 0.239402
C10   C     C_R   0.379648 0.400906 0.028365 -0.023667
C11   C     C_R   0.391687 0.412892 0.148673 0.090487
C12   C     C_R   0.068150 0.478281 0.601457 -0.020203
C13   C     C_R   0.547929 0.545124 0.156196 0.151733
C14   C     C_R   0.537301 0.538898 0.034267 -0.036606
C15   C     C_R   0.457100 0.462328 0.968054 -0.020033
C16   C     C_R   0.497354 0.700133 0.521081 0.598903
C17   C     C_R   0.459763 0.449118 0.845074 0.087311
C18   C     C_R   0.598035 0.595483 0.856446 0.376931
C19   C     C_R   0.607121 0.605179 0.976909 -0.095510
C20   C     C_R   0.736532 0.493940 0.499700 0.559930
C21   C     C_R   0.133854 0.451531 0.696540 -0.007837
C22   C     C_R   0.089998 0.488200 0.803751 -0.035567
C23   C     C_R   0.126474 0.495606 0.501090 -0.005780
C24   C     C_R   0.964280 0.479939 0.812708 -0.014800
C25   C     C_R   0.890733 0.452568 0.709792 0.016334
C26   C     C_R   0.939359 0.471540 0.603431 -0.006502
C27   C     C_1   0.103027 0.532822 0.297866 0.275602
C28   C     C_1   0.475842 0.163420 0.243246 0.250764
C29   C     C_1   0.419725 0.348532 0.783480 0.278363
C30   C     C_1   0.279917 0.331073 0.973846 0.202488
C31   C     C_1   0.635351 0.619010 0.224773 0.281577
C32   C     C_1   0.148849 0.340835 0.675727 0.216493
C33   C     C_1   0.169962 0.544556 0.896165 0.230856
C34   C     C_R   0.053341 0.508601 0.402230 -0.036586
C35   C     C_1   0.913009 0.490695 0.924590 0.262490
C36   C     C_1   0.791276 0.377705 0.713423 0.255986
C37   C     C_1   0.461179 0.948046 0.226183 0.304276
C38   C     C_R   0.927260 0.501776 0.403533 -0.133342
C39   C     C_R   0.868899 0.485174 0.502065 -0.001396
C40   C     C_R   0.495232 0.813002 0.532335 -0.021454
C41   C     C_R   0.501577 0.183791 0.459747 -0.027729
C42   C     C_R   0.467825 0.011542 0.340379 -0.007521
Cl1   Cl    Cl    0.602934 0.055230 0.779507 -0.507438
Cl2   Cl    Cl    0.696234 0.677800 0.794959 -0.549003
Cl3   Cl    Cl    0.343138 0.787116 0.335380 -0.522650
Cu1   Cu    Cu3+1 0.509250 0.507730 0.615930 1.065171
Cu2   Cu    Cu3+1 0.490750 0.492270 0.384070 1.045898
H1    H     H_    0.557053 0.183695 0.635770 0.224899
H2    H     H_    0.670176 0.664850 0.024904 0.163614
H3    H     H_    0.332434 0.367644 0.194610 0.143537
H4    H     H_    0.873892 0.513618 0.327050 0.165159
H5    H     H_    0.572068 0.840726 0.708107 0.222628
N1    N     N_R   0.523180 0.519350 0.790130 -0.244683
N2    N     N_1   0.872322 0.499139 0.014073 -0.274780
N3    N     N_1   0.713471 0.317048 0.719860 -0.255027
N4    N     N_1   0.456486 0.898080 0.135042 -0.178474
N5    N     N_R   0.476820 0.480650 0.209890 -0.254223
N6    N     N_1   0.142163 0.552346 0.214161 -0.197024
N7    N     N_1   0.473686 0.195653 0.157347 -0.244286
N8    N     N_1   0.389609 0.264823 0.739538 -0.229688
N9    N     N_1   0.199467 0.275059 0.931768 -0.219007
N10   N     N_1   0.705729 0.678592 0.278864 -0.266263
N11   N     N_1   0.154643 0.251422 0.656282 -0.210939
N12   N     N_1   0.232617 0.591826 0.970301 -0.221391
O1    O     O_R   0.506570 0.354460 0.582000 -0.502524
O2    O     O_R   0.490940 0.341410 0.386200 -0.514290
O3    O     O_R   0.327470 0.506530 0.597920 -0.510538
O4    O     O_R   0.311840 0.493480 0.402120 -0.501698
O5    O     O_R   0.509060 0.658590 0.613800 -0.468963
O6    O     O_R   0.493430 0.645540 0.418000 -0.450008
O7    O     O_R   0.688160 0.506520 0.597880 -0.466148
O8    O     O_R   0.672530 0.493470 0.402080 -0.516912

loop_
_geom_bond_atom_site_label_1
_geom_bond_atom_site_label_2
_ccdc_geom_bond_type
C4    O3    A    
C1    O1    A    
C7    C40   A    
Cu2   O6    S    
C5    C9    A    
C6    C7    A    
C18   Cl2   S    
Cu2   N5    S    
C17   C29   S    
C10   C30   S    
Cu2   O2    S    
C12   C23   A    
C29   N8    T    
C3    H1    S    
C23   C34   A    
C2    C28   S    
C1    O2    A    
C25   C26   A    
Cu1   O3    S    
C20   O7    A    
C11   H3    S    
Cu1   Cu2   S    
C21   C22   A    
C35   N2    T    
C31   N10   T    
Cu1   O7    S    
C38   C39   A    
C16   C40   S    
C33   N12   T    
C7    Cl3   S    
Cu1   N1    S    
C1    C41   S    
C28   N7    T    
C2    C42   A    
C34   C38   A    
C10   C15   A    
C27   C34   S    
C36   N3    T    
C5    C6    A    
C26   C39   A    
C21   C32   S    
C22   C24   A    
Cu2   O8    S    
C9    Cl1   S    
C24   C35   S    
C13   N5    A    
C10   C11   A    
C2    C41   A    
C12   C21   A    
C17   N1    A    
Cu2   O4    S    
C16   O6    A    
C24   C25   A    
Cu1   O1    S    
C15   C17   A    
C18   C19   A    
C6    C42   A    
C30   N9    T    
C37   C42   S    
C4    C23   S    
C20   C39   S    
C8    H5    S    
C14   C15   A    
C3    C41   A    
Cu1   O5    S    
C19   H2    S    
C38   H4    S    
C8    C40   A    
C13   C14   A    
C25   C36   S    
C11   N5    A    
C37   N4    T    
C4    O4    A    
C14   C19   A    
C13   C31   S    
C20   O8    A    
C16   O5    A    
C18   N1    A    
C32   N11   T    
C12   C26   A    
C8    C9    A    
C3    C5    A    
C27   N6    T    
C22   C33   S    
