data_mof_unit_29983.cif
_audit_creation_date              2012-12-11T15:54:44-0500
_audit_creation_method            fapswitch 2.2
_symmetry_space_group_name_H-M    P1
_symmetry_Int_Tables_number       1
_space_group_crystal_system       triclinic
_cell_length_a                    6.928845
_cell_length_b                    14.512735
_cell_length_c                    16.113656
_cell_angle_alpha                 89.931421
_cell_angle_beta                  89.834522
_cell_angle_gamma                 89.978663
_cell_volume                      1620.32468123

loop_
_atom_site_label
_atom_site_type_symbol
_atom_type_description
_atom_site_fract_x
_atom_site_fract_y
_atom_site_fract_z
_atom_type_partial_charge
O1    O     O_R   0.638180 0.333920 0.163320 -0.552800
O2    O     O_R   0.361820 0.666080 0.836680 -0.546670
O3    O     O_R   0.308470 0.344960 0.336080 -0.557066
O4    O     O_R   0.691530 0.655040 0.663920 -0.558053
O5    O     O_R   0.138140 0.166110 0.336680 -0.543426
O6    O     O_R   0.861860 0.833890 0.663320 -0.544859
C1    C     C_R   0.477367 0.367160 0.365100 0.652083
C2    C     C_R   0.522634 0.632843 0.634897 0.647200
O7    O     O_R   0.308460 0.344950 0.163930 -0.522701
O8    O     O_R   0.691540 0.655050 0.836070 -0.527406
O9    O     O_R   0.138140 0.166100 0.163310 -0.500837
O10   O     O_R   0.861860 0.833900 0.836690 -0.505928
C3    C     C_R   0.477687 0.367620 0.135317 0.740749
C4    C     C_R   0.522338 0.632590 0.864856 0.780378
O11   O     O_R   0.638180 0.333930 0.336700 -0.551323
O12   O     O_R   0.361820 0.666070 0.663300 -0.553410
O13   O     O_3   0.471670 0.191340 0.250000 -0.339248
O14   O     O_3   0.528330 0.808660 0.750000 -0.342565
V1    V     V_3+5 0.196830 0.260900 0.250000 1.517275
V2    V     V_3+5 0.803170 0.739100 0.750000 1.522784
O15   O     O_R   0.808420 0.155070 0.163920 -0.507202
O16   O     O_R   0.191580 0.844930 0.836080 -0.498634
C5    C     C_R   0.977415 0.134837 0.133512 0.907753
C6    C     C_R   0.022456 0.865135 0.866490 0.916604
O17   O     O_R   0.808420 0.155080 0.336070 -0.542457
O18   O     O_R   0.191580 0.844920 0.663930 -0.544663
C7    C     C_R   0.977183 0.133047 0.364632 0.664469
C8    C     C_R   0.022818 0.867028 0.635439 0.658933
V3    V     V_3+5 0.696830 0.239130 0.250000 1.532243
V4    V     V_3+5 0.303170 0.760870 0.750000 1.559264
O19   O     O_3   0.971850 0.308690 0.250010 -0.395335
O20   O     O_3   0.028150 0.691310 0.749990 -0.397396
H1    H     H_    0.773198 0.827357 0.268332 0.193881
H2    H     H_    0.228307 0.172520 0.731708 0.200277
C9    C     C_R   0.105299 0.186017 0.528606 -0.141970
C10   C     C_R   0.895155 0.814024 0.471484 -0.139131
C11   C     C_R   0.168679 0.213791 0.606611 -0.144857
C12   C     C_R   0.832187 0.786189 0.393449 -0.150697
C13   C     C_R   0.180399 0.150425 0.671085 -0.061629
C14   C     C_R   0.820612 0.849532 0.328966 -0.070718
C15   C     C_R   0.129100 0.058775 0.658062 -0.116526
C16   C     C_R   0.871510 0.941229 0.341995 -0.109808
C17   C     C_R   0.066402 0.028142 0.579276 0.044415
C18   C     C_R   0.933849 0.971921 0.420810 0.043018
C19   C     C_R   0.054021 0.093149 0.513116 0.076543
C20   C     C_R   0.946193 0.906923 0.486977 0.076225
C21   C     C_R   0.012512 0.934978 0.566273 -0.167392
C22   C     C_R   0.987556 0.065109 0.433822 -0.168986
H3    H     H_    0.095611 0.238477 0.481063 0.104564
H4    H     H_    0.904821 0.761570 0.519032 0.103800
H5    H     H_    0.207563 0.285064 0.617199 0.130016
H6    H     H_    0.793573 0.714886 0.382836 0.125766
H7    H     H_    0.137830 0.012619 0.710616 0.156747
H8    H     H_    0.862866 0.987355 0.289416 0.157778
C23   C     C_R   0.130467 0.010699 0.934325 0.522420
C24   C     C_R   0.868456 0.989411 0.065483 0.524172
C25   C     C_R   0.117952 0.079321 0.995891 0.340356
C26   C     C_R   0.879976 0.921117 0.003603 0.344780
C27   C     C_R   0.988338 0.067667 0.063567 -0.454687
C28   C     C_R   0.010818 0.932437 0.936285 -0.442618
C29   C     C_R   0.320067 0.471580 0.470353 -0.163209
C30   C     C_R   0.679934 0.528433 0.529636 -0.161055
H9    H     H_    0.178991 0.450513 0.448776 0.111435
H10   H     H_    0.821010 0.549500 0.551213 0.111393
C31   C     C_R   0.331405 0.535253 0.535430 -0.148839
C32   C     C_R   0.668596 0.464760 0.464559 -0.150100
H11   H     H_    0.198390 0.561488 0.561765 0.113791
H12   H     H_    0.801611 0.438525 0.438223 0.113948
C33   C     C_R   0.511504 0.564521 0.566069 -0.032046
C34   C     C_R   0.488497 0.435488 0.433923 -0.035071
C35   C     C_R   0.321303 0.478261 0.035496 -0.074852
C36   C     C_R   0.678765 0.522088 0.964797 -0.080345
H13   H     H_    0.181117 0.462565 0.061792 0.130954
H14   H     H_    0.818955 0.537795 0.938511 0.132685
C37   C     C_R   0.332252 0.541700 0.970138 -0.140455
C38   C     C_R   0.667811 0.458635 0.030144 -0.153590
H15   H     H_    0.200024 0.573112 0.948258 0.137188
H16   H     H_    0.800030 0.427207 0.052014 0.137559
C39   C     C_R   0.511136 0.564464 0.933848 -0.055347
C40   C     C_R   0.488917 0.435843 0.066408 -0.057994
F1    F     F_    0.257666 0.020853 0.870664 -0.629196
F2    F     F_    0.741740 0.979083 0.129257 -0.623016
S1    S     S_3+6 0.259745 0.180730 0.984327 0.048025
O21   O     O_2   0.321603 0.193853 0.895595 -0.306397
O22   O     O_2   0.145752 0.263799 0.010851 -0.371132
O23   O     O_3   0.457007 0.170344 0.044182 -0.473465
H17   H     H_    0.554490 0.211595 0.018710 0.345624
S2    S     S_3+6 0.735925 0.820294 0.014309 0.042172
O24   O     O_2   0.565128 0.828152 0.957458 -0.318260
O25   O     O_2   0.852972 0.736915 0.991161 -0.380036
O26   O     O_3   0.655475 0.806804 0.112100 -0.467067
H18   H     H_    0.576838 0.749828 0.110874 0.353207

loop_
_geom_bond_atom_site_label_1
_geom_bond_atom_site_label_2
_ccdc_geom_bond_type
C7    C22   S    
C29   C34   A    
C32   H12   S    
C8    C21   S    
O13   V3    S    
O4    C2    A    
V1    O19   S    
C1    C34   S    
C13   C15   A    
C5    C27   S    
O9    V1    S    
C2    C33   S    
C37   C39   A    
C12   C14   A    
C38   H16   S    
C36   C39   A    
O3    C1    A    
C11   H5    S    
C25   C27   A    
C12   H6    S    
O12   V4    S    
C29   H9    S    
O7    C3    A    
C30   H10   S    
O5    C7    A    
O7    V1    S    
O6    C8    A    
O8    V2    S    
C31   H11   S    
C9    H3    S    
C25   S1    S    
O3    V1    S    
O14   V4    S    
C23   F1    S    
C36   C38   A    
C14   C16   A    
C3    C40   S    
C2    O12   A    
C23   C28   A    
C15   C17   A    
C16   C18   A    
C35   C40   A    
C18   C20   A    
O11   V3    S    
O17   V3    S    
H1    C14   S    
C30   C32   A    
H2    C13   S    
V4    O20   S    
C36   H14   S    
O8    C4    A    
O26   H18   S    
C35   H13   S    
O23   H17   S    
C1    O11   A    
O15   V3    S    
C30   C33   A    
C17   C19   A    
S1    O21   D    
S2    O26   S    
C6    C28   S    
O10   V2    S    
O1    V3    S    
C4    C39   S    
C10   C20   A    
C37   H15   S    
C15   H7    S    
S1    O22   D    
S2    O25   D    
O18   V4    S    
C23   C25   A    
O16   C6    A    
O1    C3    A    
C10   C12   A    
C9    C19   A    
C10   H4    S    
V2    O20   S    
C19   C22   A    
C20   C21   A    
O16   V4    S    
C9    C11   A    
C38   C40   A    
C26   S2    S    
C24   F2    S    
O5    V1    S    
O17   C7    A    
O6    V2    S    
O10   C6    A    
O18   C8    A    
C24   C27   A    
O2    V4    S    
O15   C5    A    
C11   C13   A    
C16   H8    S    
C35   C37   A    
C32   C34   A    
C17   C21   A    
C31   C33   A    
O9    C5    A    
O13   V1    S    
C24   C26   A    
O14   V2    S    
O2    C4    A    
O4    V2    S    
C29   C31   A    
S1    O23   S    
S2    O24   D    
V3    O19   S    
C26   C28   A    
C18   C22   A    
