data_mof_unit_54868.cif
_audit_creation_date              2013-03-05T15:40:59-0500
_audit_creation_method            fapswitch 2.2
_symmetry_space_group_name_H-M    P1
_symmetry_Int_Tables_number       1
_space_group_crystal_system       triclinic
_cell_length_a                    28.261166
_cell_length_b                    7.183735
_cell_length_c                    17.180242
_cell_angle_alpha                 89.879247
_cell_angle_beta                  102.22876
_cell_angle_gamma                 90.136501
_cell_volume                      3408.78842783

loop_
_atom_site_label
_atom_site_type_symbol
_atom_site_description
_atom_site_fract_x
_atom_site_fract_y
_atom_site_fract_z
_atom_type_partial_charge
O1    O     O_R   0.000700 0.436510 0.857920 -0.553993
O2    O     O_R   0.999300 0.563490 0.142080 -0.552044
O3    O     O_R   0.999300 0.936510 0.642080 -0.559161
O4    O     O_R   0.000700 0.063490 0.357920 -0.552240
O5    O     O_R   0.930080 0.766380 0.721890 -0.572793
O6    O     O_R   0.069920 0.233620 0.278110 -0.503372
O7    O     O_R   0.069920 0.266380 0.778110 -0.504765
O8    O     O_R   0.930080 0.733620 0.221890 -0.502599
C1    C     C_R   0.910478 0.597562 0.708378 0.850274
C2    C     C_R   0.089446 0.402462 0.291690 0.853898
C3    C     C_R   0.089487 0.097829 0.791317 0.852272
C4    C     C_R   0.910520 0.902185 0.208480 0.853149
O9    O     O_R   0.996180 0.766230 0.862310 -0.562282
O10   O     O_R   0.003820 0.233770 0.137690 -0.564198
O11   O     O_R   0.003820 0.266230 0.637690 -0.557728
O12   O     O_R   0.996180 0.733770 0.362310 -0.563829
O13   O     O_R   0.065870 0.936460 0.783500 -0.571483
O14   O     O_R   0.934130 0.063540 0.216500 -0.573053
O15   O     O_R   0.934130 0.436460 0.716500 -0.502473
O16   O     O_R   0.065870 0.563540 0.283500 -0.572864
C5    C     C_R   0.998356 0.596348 0.894435 0.841551
C6    C     C_R   0.001693 0.403662 0.105583 0.841486
C7    C     C_R   0.001816 0.096467 0.605580 0.843315
C8    C     C_R   0.998239 0.903487 0.394448 0.841504
O17   O     O_3   0.022790 0.603020 0.723980 -0.280075
O18   O     O_3   0.977210 0.396980 0.276020 -0.279328
O19   O     O_3   0.977210 0.103020 0.776020 -0.275638
O20   O     O_3   0.022790 0.896980 0.223980 -0.279532
V1    V     V_3+5 0.995770 0.877900 0.754830 1.142009
V2    V     V_3+5 0.004230 0.122100 0.245170 1.165181
V3    V     V_3+5 0.004230 0.377900 0.745170 1.190610
V4    V     V_3+5 0.995770 0.622100 0.254830 1.166499
C9    C     C_2   0.002214 0.082569 0.519690 -0.262640
C10   C     C_2   0.997817 0.917266 0.480343 -0.259400
C11   C     C_2   0.998066 0.582618 0.980311 -0.261385
C12   C     C_2   0.002050 0.417406 0.019729 -0.260723
H1    H     H_    0.005805 0.211318 0.488174 0.109649
H2    H     H_    0.994223 0.788507 0.511850 0.109963
H3    H     H_    0.994805 0.711435 0.011728 0.110171
H4    H     H_    0.005310 0.288587 0.988311 0.110251
C13   C     C_R   0.684064 0.018186 0.029344 0.614255
C14   C     C_R   0.316154 0.976830 0.966125 0.614168
C15   C     C_R   0.316731 0.462629 0.476427 0.599992
C16   C     C_R   0.681877 0.608206 0.529884 0.611061
O21   O     O_2   0.713991 0.062402 0.980427 -0.537007
O22   O     O_2   0.286236 0.925363 0.014040 -0.541906
O23   O     O_2   0.287612 0.449140 0.529135 -0.531312
O24   O     O_2   0.710556 0.643042 0.477910 -0.528711
N1    N     N_R   0.703067 0.963580 0.105995 -0.422904
N2    N     N_R   0.297138 0.038343 0.890496 -0.422664
N3    N     N_R   0.296913 0.466100 0.396389 -0.421373
N4    N     N_R   0.702103 0.586657 0.609155 -0.421829
C17   C     C_R   0.673549 0.915938 0.156609 0.644024
C18   C     C_R   0.326640 0.093694 0.840983 0.642436
C19   C     C_R   0.325806 0.479481 0.341828 0.658398
C20   C     C_R   0.673884 0.550716 0.663148 0.655188
C21   C     C_R   0.782642 0.100190 0.172604 0.365525
C22   C     C_R   0.217434 0.901027 0.824574 0.363439
C23   C     C_R   0.217179 0.603643 0.331759 0.376444
C24   C     C_R   0.778473 0.751667 0.671589 0.369148
C25   C     C_R   0.833074 0.078430 0.197145 -0.251368
C26   C     C_R   0.166904 0.922128 0.801302 -0.253331
C27   C     C_R   0.166896 0.581301 0.305623 -0.253557
C28   C     C_R   0.829211 0.747194 0.695796 -0.258199
C29   C     C_R   0.828805 0.764957 0.142357 0.411470
C30   C     C_R   0.171371 0.235722 0.855970 0.412020
C31   C     C_R   0.170972 0.265234 0.358022 0.407435
C32   C     C_R   0.831863 0.432365 0.644180 0.400079
C33   C     C_R   0.777935 0.785262 0.119590 -0.090272
C34   C     C_R   0.222283 0.216091 0.877623 -0.089985
C35   C     C_R   0.221803 0.285526 0.381085 -0.085333
C36   C     C_R   0.780628 0.434795 0.623298 -0.096747
C37   C     C_R   0.754924 0.951042 0.132862 0.165172
C38   C     C_R   0.245267 0.050616 0.863839 0.165737
C39   C     C_R   0.244954 0.452837 0.369578 0.154646
C40   C     C_R   0.754090 0.592435 0.635083 0.170910
C41   C     C_R   0.602412 0.982053 0.052521 -0.069110
C42   C     C_R   0.397799 0.020994 0.944012 -0.069113
C43   C     C_R   0.397517 0.493302 0.449218 -0.068814
C44   C     C_R   0.601608 0.557579 0.556670 -0.068205
C45   C     C_R   0.633525 0.029589 0.001440 -0.037573
C46   C     C_R   0.366688 0.966025 0.994027 -0.037111
C47   C     C_R   0.367255 0.474469 0.504179 -0.036531
C48   C     C_R   0.631403 0.594268 0.502266 -0.037392
C49   C     C_R   0.613652 0.087154 0.923717 -0.046865
C50   C     C_R   0.386547 0.900896 0.070589 -0.048618
C51   C     C_R   0.387916 0.469478 0.585591 -0.045330
C52   C     C_R   0.610314 0.616269 0.421586 -0.045211
C53   C     C_R   0.622793 0.924247 0.130853 -0.043900
C54   C     C_R   0.377411 0.085889 0.866752 -0.044609
C55   C     C_R   0.376429 0.496280 0.367217 -0.041327
C56   C     C_R   0.623185 0.536194 0.637986 -0.041098
C57   C     C_R   0.856638 0.913294 0.182835 -0.188047
C58   C     C_R   0.143405 0.086947 0.816169 -0.188454
C59   C     C_R   0.143264 0.414278 0.317993 -0.191194
C60   C     C_R   0.856436 0.590211 0.682875 -0.184896
H5    H     H_    0.755470 0.671958 0.091357 0.118418
H6    H     H_    0.244803 0.329660 0.905474 0.116038
H7    H     H_    0.244044 0.171119 0.408523 0.138800
H8    H     H_    0.760459 0.314084 0.597170 0.120278
H9    H     H_    0.636716 0.123856 0.883031 0.147086
H10   H     H_    0.363475 0.856351 0.110113 0.144209
H11   H     H_    0.365479 0.456404 0.629246 0.149954
H12   H     H_    0.632326 0.646852 0.378600 0.146097
C61   C     C_R   0.479946 0.066310 0.919621 0.021686
C62   C     C_R   0.520272 0.940388 0.077422 0.021677
C63   C     C_R   0.520791 0.508423 0.585771 0.022881
C64   C     C_R   0.478525 0.534791 0.419907 0.023081
C65   C     C_R   0.468975 0.947119 0.049760 0.019549
C66   C     C_R   0.531235 0.053335 0.946345 0.019644
C67   C     C_R   0.529473 0.558253 0.447116 0.021575
C68   C     C_R   0.469479 0.499072 0.559103 0.021145
C69   C     C_R   0.449131 0.011423 0.971243 0.051370
C70   C     C_R   0.551082 0.991986 0.025312 0.051715
C71   C     C_R   0.550406 0.541494 0.529755 0.052443
C72   C     C_R   0.448723 0.509080 0.476189 0.052474
C73   C     C_R   0.458073 0.133138 0.842718 -0.095457
C74   C     C_R   0.542157 0.884119 0.155925 -0.095114
C75   C     C_R   0.543839 0.484729 0.666858 -0.095342
C76   C     C_R   0.456090 0.534748 0.337899 -0.097311
C77   C     C_R   0.408007 0.142214 0.817036 -0.050087
C78   C     C_R   0.592210 0.876330 0.181810 -0.047952
C79   C     C_R   0.593868 0.498585 0.692200 -0.050617
C80   C     C_R   0.406210 0.515560 0.312337 -0.054769
O25   O     O_2   0.306944 0.156065 0.767116 -0.505065
O26   O     O_2   0.693219 0.860506 0.231546 -0.504621
O27   O     O_2   0.694805 0.528066 0.740782 -0.515065
O28   O     O_2   0.305631 0.477034 0.263273 -0.520376
C81   C     C_R   0.563737 0.098959 0.896650 -0.100236
C82   C     C_R   0.436459 0.891068 0.097904 -0.098717
C83   C     C_R   0.437845 0.481138 0.612598 -0.102200
C84   C     C_R   0.560515 0.599141 0.394482 -0.096866
H13   H     H_    0.145530 0.808025 0.771114 0.176395
H14   H     H_    0.854309 0.192472 0.227679 0.176006
H15   H     H_    0.847698 0.869196 0.724307 0.175295
H16   H     H_    0.145875 0.697077 0.276245 0.176167
H17   H     H_    0.393353 0.194211 0.757576 0.120222
H18   H     H_    0.606869 0.832319 0.242463 0.117246
H19   H     H_    0.609516 0.479007 0.754923 0.123020
H20   H     H_    0.391039 0.516748 0.248884 0.122830
H21   H     H_    0.478494 0.181534 0.800430 0.061933
H22   H     H_    0.521768 0.846159 0.199803 0.061537
H23   H     H_    0.524395 0.451922 0.712662 0.061689
H24   H     H_    0.476069 0.546142 0.291267 0.064643
H25   H     H_    0.552001 0.143163 0.835757 0.069186
H26   H     H_    0.448156 0.837018 0.157297 0.067815
H27   H     H_    0.450304 0.478982 0.676295 0.068392
H28   H     H_    0.547533 0.621746 0.331642 0.062879
O29   O     O_3   0.852196 0.600420 0.129946 -0.609586
C85   C     C_3   0.831966 0.516740 0.055876 0.260760
H29   H     H_    0.821061 0.621910 0.007567 0.044668
H30   H     H_    0.800242 0.429907 0.061383 0.104410
C86   C     C_3   0.869439 0.389933 0.032000 -0.307478
H31   H     H_    0.882161 0.285022 0.079326 0.130006
H32   H     H_    0.853313 0.316712 0.975737 0.100364
H33   H     H_    0.900702 0.474095 0.022555 0.105096
O30   O     O_3   0.148036 0.400124 0.868741 -0.609607
C87   C     C_3   0.168608 0.483910 0.942634 0.260945
H34   H     H_    0.200184 0.571040 0.936597 0.103869
H35   H     H_    0.179839 0.378797 0.990866 0.044260
C88   C     C_3   0.131265 0.610360 0.967136 -0.306198
H36   H     H_    0.100105 0.526037 0.976939 0.104965
H37   H     H_    0.147613 0.683477 0.023322 0.100066
H38   H     H_    0.118307 0.715383 0.919960 0.130445
O31   O     O_3   0.147637 0.099959 0.370177 -0.608420
C89   C     C_3   0.166607 0.020947 0.445852 0.256195
H39   H     H_    0.176564 0.128906 0.493132 0.054248
H40   H     H_    0.198738 0.934363 0.443248 0.104652
C90   C     C_3   0.128615 0.895031 0.469180 -0.314059
H41   H     H_    0.116512 0.788208 0.422531 0.131752
H42   H     H_    0.143956 0.824188 0.526449 0.097997
H43   H     H_    0.097146 0.979771 0.476591 0.106421
O32   O     O_3   0.858911 0.277532 0.631062 -0.614477
C91   C     C_3   0.837454 0.177271 0.561647 0.258217
H44   H     H_    0.821165 0.271556 0.511487 0.062953
H45   H     H_    0.809520 0.080291 0.575022 0.088735
C92   C     C_3   0.875898 0.061722 0.534552 -0.311053
H46   H     H_    0.894002 0.968372 0.583355 0.137166
H47   H     H_    0.858981 0.975655 0.482395 0.088638
H48   H     H_    0.903105 0.155396 0.516966 0.108599
N5    N     N_R   0.239377 0.729073 0.806788 0.099786
O33   O     O_R   0.283298 0.684763 0.842061 -0.369008
O34   O     O_R   0.214729 0.611417 0.756372 -0.332480
N6    N     N_R   0.760599 0.272602 0.189398 0.098889
O35   O     O_R   0.784320 0.387512 0.242118 -0.333143
O36   O     O_R   0.717853 0.321147 0.150129 -0.373406
N7    N     N_R   0.752667 0.917943 0.684492 0.096694
O37   O     O_R   0.772818 0.039649 0.737313 -0.340460
O38   O     O_R   0.710500 0.956136 0.640104 -0.376287
N8    N     N_R   0.239176 0.779809 0.320021 0.101177
O39   O     O_R   0.218199 0.891768 0.263580 -0.334822
O40   O     O_R   0.277980 0.836645 0.369344 -0.392904

loop_
_geom_bond_atom_site_label_1
_geom_bond_atom_site_label_2
_geom_bond_distance
_ccdc_geom_bond_type
O17   V3    1.759936 S    
C47   C51   1.397297 A    
C61   C66   1.427949 A    
N1    C17   1.368891 A    
O1    C5    1.318096 A    
O31   C89   1.415249 S    
C79   H19   1.083669 S    
O19   V1    1.763639 S    
O13   V1    1.981894 S    
C90   H41   1.110584 S    
C64   C76   1.417255 A    
O3    C7    1.316867 A    
C11   C12   1.358246 D    
C14   C46   1.409173 A    
C44   C48   1.408350 A    
O15   V3    1.983456 S    
C36   H8    1.081325 S    
C88   H36   1.109336 S    
C34   C38   1.400400 A    
O4    V2    2.004421 S    
N5    O33   1.300630 A    
C42   C54   1.409201 A    
O7    C3    1.331267 A    
C41   C53   1.409143 A    
C32   C60   1.419090 A    
C62   C70   1.422796 A    
C22   N5    1.445472 S    
C26   H13   1.082805 S    
O9    V1    2.009500 S    
N3    C39   1.445865 S    
C18   C54   1.410358 A    
N2    C38   1.443099 S    
C74   C78   1.391280 A    
O4    C8    1.317152 A    
C25   C57   1.409098 A    
C31   C35   1.414223 A    
C82   H26   1.075775 S    
C53   C78   1.396351 A    
C77   H17   1.083728 S    
C27   C59   1.409295 A    
O1    V3    2.006235 S    
C15   C47   1.408749 A    
N6    O35   1.301717 A    
C66   C81   1.417634 A    
O2    V4    2.006235 S    
C14   O22   1.349566 S    
C20   O27   1.349256 S    
C51   C83   1.391282 A    
O3    V1    2.004421 S    
C73   C77   1.391687 A    
C91   H44   1.115468 S    
C19   C55   1.409505 A    
C87   C88   1.520048 S    
C49   C81   1.391360 A    
C76   C80   1.391428 A    
C1    O15   1.330092 A    
O30   C87   1.414488 S    
C2    O16   1.328898 A    
C92   H47   1.110504 S    
C85   C86   1.519801 S    
C76   H24   1.076352 S    
O2    C6    1.318102 A    
C83   H27   1.076334 S    
O14   V2    1.981894 S    
C86   H32   1.110455 S    
C66   C70   1.423277 A    
C81   H25   1.075830 S    
C32   C36   1.416201 A    
C30   C58   1.415840 A    
C31   O31   1.393458 S    
O11   C7    1.335689 A    
C28   H15   1.082696 S    
O12   C8    1.335511 A    
C43   C72   1.427290 A    
C62   C74   1.417897 A    
C89   H40   1.110611 S    
C90   H42   1.110517 S    
C61   C73   1.418069 A    
C89   H39   1.115911 S    
O10   V2    2.009500 S    
C63   C75   1.417420 A    
C88   H37   1.110491 S    
C21   C37   1.414330 A    
C25   H14   1.082871 S    
O5    V1    1.989552 S    
N5    O34   1.301742 A    
C75   H23   1.076362 S    
C18   O25   1.349312 S    
O7    V3    1.992155 S    
O8    V4    1.992152 S    
C12   H4    1.086168 S    
C78   H18   1.083412 S    
C56   C79   1.397071 A    
O18   V4    1.759937 S    
C50   C82   1.390968 A    
C7    C9    1.481621 S    
O32   C91   1.415589 S    
C35   H7    1.080769 S    
O11   V3    2.012581 S    
C24   C40   1.411689 A    
C8    C10   1.481799 S    
C84   H28   1.076229 S    
C44   C56   1.409170 A    
C11   H3    1.086168 S    
N8    O39   1.301554 A    
O5    C1    1.332302 A    
C85   H30   1.111266 S    
C42   C46   1.408648 A    
C1    C60   1.497873 S    
C44   C71   1.427244 A    
C41   C45   1.408594 A    
O8    C4    1.331562 A    
C92   H48   1.109245 S    
C13   C45   1.409565 A    
C9    C10   1.360008 D    
O9    C5    1.334493 A    
C36   C40   1.398315 A    
C63   C68   1.426696 A    
N2    C18   1.369044 A    
C86   H33   1.109159 S    
C33   C37   1.400309 A    
C91   C92   1.518656 S    
C63   C71   1.422116 A    
C22   C26   1.407474 A    
C14   N2    1.369391 A    
C51   H11   1.083632 S    
C3    C58   1.495013 S    
O6    V2    1.989552 S    
C31   C59   1.416070 A    
C24   N7    1.442774 S    
C75   C79   1.391839 A    
C55   C80   1.396987 A    
C26   C58   1.408926 A    
C17   C53   1.410072 A    
C87   H34   1.111370 S    
C54   C77   1.396667 A    
N1    C37   1.443208 S    
C4    C57   1.495185 S    
C42   C69   1.428619 A    
C52   C84   1.390858 A    
O10   C6    1.334493 A    
C41   C70   1.428650 A    
C50   H10   1.083661 S    
C23   C39   1.413149 A    
C68   C72   1.422739 A    
C88   H38   1.110497 S    
C49   H9    1.083684 S    
C73   H21   1.075822 S    
C22   C38   1.415213 A    
O16   V4    1.983456 S    
C61   C69   1.422857 A    
C3    O13   1.329040 A    
N8    O40   1.301186 A    
C10   H2    1.086103 S    
C43   C55   1.408748 A    
C80   H20   1.083651 S    
C48   C52   1.396789 A    
C74   H22   1.075684 S    
O6    C2    1.331754 A    
C32   O32   1.396548 S    
C21   C25   1.407043 A    
C5    C11   1.480207 S    
C65   C69   1.423270 A    
O12   V4    2.012582 S    
C13   N1    1.369547 A    
C6    C12   1.480252 S    
C23   C27   1.405591 A    
C64   C67   1.426223 A    
C16   C48   1.408107 A    
N4    C40   1.442664 S    
C24   C28   1.406293 A    
C27   H16   1.083035 S    
C64   C72   1.421982 A    
O20   V2    1.763639 S    
N7    O37   1.301663 A    
C46   C50   1.396415 A    
O29   C85   1.414561 S    
C35   C39   1.400646 A    
C87   H35   1.115643 S    
C16   N4    1.369383 A    
C30   C34   1.415098 A    
N4    C20   1.369128 A    
C2    C59   1.494373 S    
C15   N3    1.370690 A    
C29   C33   1.415488 A    
C29   C57   1.416073 A    
C90   H43   1.108433 S    
C91   H45   1.111293 S    
N6    O36   1.300740 A    
C28   C60   1.410872 A    
N3    C19   1.370451 A    
C30   O30   1.394251 S    
C68   C83   1.416886 A    
C29   O29   1.394297 S    
C9    H1    1.086109 S    
N7    O38   1.301015 A    
C17   O26   1.349370 S    
C43   C47   1.407952 A    
C16   O24   1.349634 S    
C67   C84   1.416787 A    
C20   C56   1.409888 A    
C19   O28   1.349383 S    
C89   C90   1.519133 S    
C92   H46   1.109957 S    
C4    O14   1.328838 A    
C65   C82   1.417600 A    
C13   O21   1.349522 S    
C85   H29   1.115668 S    
C23   N8    1.441158 S    
C67   C71   1.422674 A    
C86   H31   1.110498 S    
C15   O23   1.349636 S    
C52   H12   1.083493 S    
C21   N6    1.444532 S    
C45   C49   1.396630 A    
C34   H6    1.081567 S    
C62   C65   1.427658 A    
C33   H5    1.081486 S    
