data_mof_unit_66796.cif
_audit_creation_date              2012-12-11T14:23:12-0500
_audit_creation_method            fapswitch 2.2
_symmetry_space_group_name_H-M    P1
_symmetry_Int_Tables_number       1
_space_group_crystal_system       triclinic
_cell_length_a                    8.363345
_cell_length_b                    14.352272
_cell_length_c                    15.123549
_cell_angle_alpha                 94.784837
_cell_angle_beta                  99.38333
_cell_angle_gamma                 90.99914
_cell_volume                      1783.90394034

loop_
_atom_site_label
_atom_site_type_symbol
_atom_type_description
_atom_site_fract_x
_atom_site_fract_y
_atom_site_fract_z
_atom_type_partial_charge
Ba1   Ba    Ba6+2 0.142880 0.544780 0.454020 1.754513
Ba2   Ba    Ba6+2 0.667290 0.455210 0.545900 1.844208
C1    C     C_3   0.425541 0.871772 0.159880 0.309509
C2    C     C_R   0.820478 0.800474 0.496898 0.038741
C3    C     C_R   0.667218 0.768190 0.451519 -0.203835
C4    C     C_3   0.813738 0.779531 0.167712 0.279341
C5    C     C_R   0.554914 0.829823 0.412068 -0.063082
C6    C     C_R   0.600183 0.922771 0.409552 -0.083732
C7    C     C_R   0.756817 0.957057 0.448523 0.019005
C8    C     C_R   0.865063 0.898049 0.498043 -0.072075
C9    C     C_R   0.949687 0.092228 0.485949 -0.049907
C10   C     C_R   0.057699 0.033511 0.537413 -0.041867
C11   C     C_R   0.995796 0.189808 0.485021 -0.011394
C12   C     C_3   0.364017 0.786066 0.198953 0.246126
C13   C     C_R   0.153300 0.219685 0.523877 -0.192821
C14   C     C_R   0.261212 0.161036 0.570451 0.079532
C15   C     C_R   0.212262 0.069032 0.579281 -0.101612
C16   C     C_3   0.897763 0.867881 0.145193 0.327991
C17   C     C_R   0.806298 0.048759 0.435400 0.406012
C18   C     C_R   0.253449 0.452396 0.768461 0.149449
C19   C     C_R   0.157865 0.422281 0.829548 0.029103
C20   C     C_R   0.213508 0.439560 0.922130 -0.117832
C21   C     C_R   0.359621 0.492230 0.955073 0.042123
C22   C     C_R   0.439409 0.532467 0.890741 -0.153124
C23   C     C_3   0.580080 0.745908 0.691033 0.599751
C24   C     C_R   0.388268 0.512326 0.798535 -0.012965
C25   C     C_R   0.580601 0.552888 0.084862 -0.054029
C26   C     C_R   0.645278 0.566491 0.176046 -0.044799
C27   C     C_R   0.415229 0.482265 0.212513 0.045651
C28   C     C_3   0.921208 0.255740 0.275576 0.196007
C29   C     C_R   0.345131 0.472797 0.121191 0.013003
C30   C     C_R   0.427022 0.507436 0.054681 0.111461
C31   C     C_R   0.562115 0.531854 0.239526 -0.246217
C32   C     C_3   0.849086 0.237090 0.175881 0.638236
C33   C     C_3   0.095793 0.704543 0.728394 0.533188
C34   C     C_3   0.676578 0.825786 0.749439 -0.194916
C35   C     C_3   0.182350 0.771948 0.807603 0.664510
C36   C     C_3   0.410333 0.247089 0.287270 0.549444
C37   C     C_3   0.398060 0.184026 0.199751 0.282283
C38   C     C_3   0.958434 0.196771 0.745121 0.293613
C39   C     C_3   0.927191 0.096861 0.766323 -0.167038
C40   C     C_3   0.474000 0.246830 0.792608 0.344700
C41   C     C_3   0.479633 0.212134 0.885516 0.676162
C42   C     C_R   0.014452 0.938464 0.543352 -0.032257
Cl1   Cl    Cl    0.253329 0.709753 0.110178 -0.616812
Cl2   Cl    Cl    0.445074 0.795276 0.606546 -0.712694
Cl3   Cl    Cl    0.764236 0.960672 0.120022 -0.560750
Cl4   Cl    Cl    0.676729 0.175422 0.929067 -0.428057
Cl5   Cl    Cl    0.338522 0.116986 0.881877 -0.469311
Cl6   Cl    Cl    0.725067 0.086664 0.331349 -0.729043
Cl7   Cl    Cl    0.200952 0.418536 0.653560 -0.695405
Cl8   Cl    Cl    0.997011 0.196460 0.110947 -0.456178
Cl9   Cl    Cl    0.767762 0.341126 0.132320 -0.621942
Cl10  Cl    Cl    0.000912 0.611516 0.771555 -0.679319
Cl11  Cl    Cl    0.246714 0.878252 0.769375 -0.580332
Cl12  Cl    Cl    0.060587 0.802705 0.891549 -0.505082
Cl13  Cl    Cl    0.395330 0.173718 0.374695 -0.699478
Cl14  Cl    Cl    0.267584 0.944878 0.115849 -0.445203
Cl15  Cl    Cl    0.389456 0.249843 0.104922 -0.605827
H1    H     H_    0.186716 0.675866 0.688849 0.015316
H2    H     H_    0.888151 0.205932 0.677622 0.030896
H3    H     H_    0.089742 0.206665 0.743519 -0.007376
H4    H     H_    0.794936 0.081706 0.759111 0.153051
H5    H     H_    0.978390 0.046899 0.719192 0.072035
H6    H     H_    0.984637 0.086565 0.836177 0.238928
H7    H     H_    0.348699 0.269175 0.770110 -0.155561
H8    H     H_    0.559067 0.308236 0.798363 0.031462
H9    H     H_    0.447388 0.270505 0.931420 0.032242
H10   H     H_    0.771608 0.793709 0.233575 -0.140621
H11   H     H_    0.630649 0.695618 0.452343 0.058074
H12   H     H_    0.289787 0.737873 0.842435 0.030070
H13   H     H_    0.510807 0.968638 0.378054 0.162794
H14   H     H_    0.296291 0.024602 0.617203 0.152114
H15   H     H_    0.194116 0.289762 0.515936 0.122169
H16   H     H_    0.099555 0.896500 0.582949 0.177250
H17   H     H_    0.657220 0.575037 0.039433 0.081138
H18   H     H_    0.229888 0.435573 0.104100 0.123117
H19   H     H_    0.710153 0.758413 0.113481 -0.032065
H20   H     H_    0.539423 0.582138 0.909755 0.094813
H21   H     H_    0.617108 0.538280 0.309764 0.053014
H22   H     H_    0.956644 0.850741 0.085434 0.198170
H23   H     H_    0.502999 0.138366 0.200920 0.139186
H24   H     H_    0.004388 0.315719 0.284078 0.120918
H25   H     H_    0.985815 0.193045 0.299289 0.062940
H26   H     H_    0.751124 0.182346 0.167105 0.144141
H27   H     H_    0.524721 0.287905 0.300729 0.060656
H28   H     H_    0.288214 0.137805 0.190948 0.183013
H29   H     H_    0.594659 0.875604 0.778063 0.196943
H30   H     H_    0.138534 0.412860 0.966374 0.128152
H31   H     H_    0.991465 0.893627 0.203127 0.137470
H32   H     H_    0.470683 0.746705 0.228203 0.227420
H33   H     H_    0.489442 0.848739 0.103850 0.101750
H34   H     H_    0.664708 0.701263 0.658575 0.028068
H35   H     H_    0.755107 0.796823 0.805837 0.170924
H36   H     H_    0.751730 0.864472 0.709636 0.090360
H37   H     H_    0.509825 0.913716 0.213040 0.039303
O1    O     O_2   0.113690 0.728200 0.532750 -0.409275
O2    O     O_2   0.821229 0.433619 0.826674 -0.421018
O3    O     O_3   0.909649 0.259575 0.811405 -0.546210
O4    O     O_3   0.871900 0.612110 0.540440 -0.456644
O5    O     O_3   0.421180 0.451020 0.394720 -0.476892
O6    O     O_2   0.662730 0.548230 0.717350 -0.408774
O7    O     O_3   0.490096 0.698480 0.745152 -0.664407
O8    O     O_2   0.598138 0.165900 0.573743 -0.456804
O9    O     O_3   0.518479 0.175730 0.732506 -0.582301
O10   O     O_3   0.325660 0.668890 0.372600 -0.469407
O11   O     O_2   0.226606 0.833297 0.428566 -0.404992
O12   O     O_3   0.276697 0.303632 0.282646 -0.631309
O13   O     O_3   0.974904 0.751516 0.676115 -0.646718
O14   O     O_3   0.260862 0.814387 0.260464 -0.550360
O15   O     O_2   0.147570 0.451710 0.282630 -0.427552
O16   O     O_3   0.905540 0.621350 0.329600 -0.484596
O17   O     O_2   0.963620 0.533518 0.178373 -0.375375
O18   O     O_3   0.928217 0.709172 0.171153 -0.518580
O19   O     O_2   0.696600 0.271740 0.467230 -0.384172
O20   O     O_3   0.938380 0.387880 0.459490 -0.442785
O21   O     O_3   0.484630 0.331100 0.627330 -0.437438
O22   O     O_3   0.796014 0.278899 0.323289 -0.619490
O23   O     O_3   0.389110 0.548970 0.605210 -0.388906
O24   O     O_3   0.904740 0.378630 0.670330 -0.419499
P1    P     P_3+3 0.947560 0.714050 0.560480 1.053211
P2    P     P_3+3 0.325150 0.423860 0.297970 1.049825
P3    P     P_3+3 0.855353 0.609682 0.212562 1.056882
P4    P     P_3+3 0.862730 0.285940 0.439440 1.082173
P5    P     P_3+3 0.949226 0.373919 0.786760 1.119332
P6    P     P_3+3 0.344117 0.788980 0.369338 1.011954
P7    P     P_3+3 0.481996 0.577153 0.717892 1.045702
P8    P     P_3+3 0.464758 0.208553 0.622980 1.057420

loop_
_geom_bond_atom_site_label_1
_geom_bond_atom_site_label_2
_ccdc_geom_bond_type
C6    C7    A    
C4    H10   S    
C36   O12   S    
C23   H34   S    
C34   H36   S    
C37   H28   S    
C16   Cl3   S    
C38   O3    S    
C26   P3    S    
C5    C6    A    
O3    P5    S    
C34   H29   S    
C9    C17   A    
C36   H27   S    
C33   C35   S    
C22   C24   A    
O4    P1    S    
C18   Cl7   S    
Ba1   O16   S    
C36   C37   S    
C4    H19   S    
Ba2   O6    S    
C13   C14   A    
C27   C31   A    
C16   H22   S    
C38   H3    S    
Ba1   Ba2   S    
Ba1   O23   S    
C28   H24   S    
Ba1   P2    S    
C4    O18   S    
O1    P1    D    
C35   Cl12  S    
Ba2   O20   S    
C7    C17   A    
O2    P5    D    
C14   C15   A    
O17   P3    D    
C10   C15   A    
C21   C22   A    
C1    H37   S    
Ba1   O20   S    
O7    P7    S    
C7    C8    A    
C33   O13   S    
Ba1   O10   S    
Ba2   O4    S    
C19   C20   A    
O15   P2    D    
C15   H14   S    
Ba1   O4    S    
C40   O9    S    
Ba2   O21   S    
C29   H18   S    
C12   Cl1   S    
C4    C16   S    
C6    H13   S    
C28   C32   S    
C8    C42   A    
C16   H31   S    
C37   H23   S    
O16   P3    S    
O6    P7    D    
Ba1   O1    S    
C3    C5    A    
C11   P4    S    
Ba2   O24   S    
O24   P5    S    
C23   O7    S    
C39   H6    S    
C28   O22   S    
Ba2   O5    S    
C38   H2    S    
C1    H33   S    
C32   H26   S    
C42   H16   S    
C3    H11   S    
C36   Cl13  S    
Ba2   O19   S    
C22   H20   S    
C29   C30   A    
O8    P8    D    
C9    C10   A    
C37   Cl15  S    
C27   P2    S    
O22   P4    S    
C14   P8    S    
C1    C12   S    
O14   P6    S    
O18   P3    S    
C38   C39   S    
C26   C31   A    
C11   C13   A    
C40   H8    S    
C40   C41   S    
C39   H4    S    
C19   P5    S    
C25   H17   S    
Ba1   O5    S    
C41   Cl4   S    
C12   O14   S    
O19   P4    D    
O20   P4    S    
O9    P8    S    
C25   C30   A    
C41   Cl5   S    
O11   P6    D    
O12   P2    S    
C2    C3    A    
Ba2   O23   S    
C31   H21   S    
Ba2   P4    S    
O10   P6    S    
C32   Cl8   S    
O5    P2    S    
C21   C30   S    
C35   H12   S    
C27   C29   A    
Ba1   O15   S    
C9    C11   A    
C17   Cl6   S    
O13   P1    S    
C18   C24   A    
C20   H30   S    
C2    P1    S    
C24   P7    S    
C5    P6    S    
C28   H25   S    
O21   P8    S    
Ba1   P1    S    
C12   H32   S    
C23   C34   S    
C35   Cl11  S    
C1    Cl14  S    
C34   H35   S    
C13   H15   S    
C18   C19   A    
C32   Cl9   S    
C10   C42   A    
C25   C26   A    
C40   H7    S    
C20   C21   A    
C33   H1    S    
C39   H5    S    
C2    C8    A    
C23   Cl2   S    
C33   Cl10  S    
C41   H9    S    
O23   P7    S    
