data_mof_unit_21772.cif
_audit_creation_date              2012-10-26T19:57:52-0400
_audit_creation_method            fapswitch 2.2
_symmetry_space_group_name_H-M    P1
_symmetry_Int_Tables_number       1
_space_group_crystal_system       triclinic
_cell_length_a                    7.468459
_cell_length_b                    8.724544
_cell_length_c                    13.011883
_cell_angle_alpha                 87.590528
_cell_angle_beta                  79.038253
_cell_angle_gamma                 102.873801
_cell_volume                      808.285517205

loop_
_atom_site_label
_atom_site_type_symbol
_atom_type_description
_atom_site_fract_x
_atom_site_fract_y
_atom_site_fract_z
_atom_type_partial_charge
C1    C     C_R   0.453018 0.200031 0.503294 0.551034
C2    C     C_R   0.728765 0.577300 0.119036 0.391977
C3    C     C_R   0.604275 0.545521 0.858236 0.389600
C4    C     C_R   0.395725 0.454479 0.141764 0.389600
C5    C     C_R   0.588540 0.533753 0.966943 -0.128909
C6    C     C_R   0.411460 0.466247 0.033057 -0.128909
C7    C     C_2   0.426268 0.032833 0.505237 0.374668
C8    C     C_2   0.573731 0.967167 0.494763 0.374668
C9    C     C_R   0.546982 0.799969 0.496706 0.551034
C10   C     C_R   0.466199 0.495416 0.701364 0.562125
C11   C     C_R   0.533801 0.504583 0.298636 0.562125
C12   C     C_R   0.553464 0.511441 0.184925 -0.049100
C13   C     C_R   0.446536 0.488559 0.815075 -0.049100
C14   C     C_R   0.253622 0.412032 0.989056 0.513652
C15   C     C_R   0.746378 0.587968 0.010944 0.513652
C16   C     C_R   0.271234 0.422700 0.880964 0.391977
Cu1   Cu    Cu3+1 0.686350 0.517570 0.488220 1.389233
Cu2   Cu    Cu3+1 0.313650 0.482430 0.511780 1.389233
F1    F     F_    0.227770 0.385555 0.205633 -0.476224
F2    F     F_    0.753707 0.054201 0.481824 -0.538542
F3    F     F_    0.772230 0.614445 0.794367 -0.476224
F4    F     F_    0.883483 0.634814 0.158825 -0.485687
F5    F     F_    0.116517 0.365186 0.841175 -0.485687
F6    F     F_    0.081623 0.347694 0.049870 -0.456552
F7    F     F_    0.918377 0.652306 0.950130 -0.456552
F8    F     F_    0.906766 0.352770 0.600766 -0.446366
F9    F     F_    0.093234 0.647229 0.399234 -0.446366
F10   F     F_    0.246293 0.945799 0.518176 -0.538542
N1    N     N_2   0.033570 0.455950 0.529530 0.220590
N2    N     N_2   0.966430 0.544050 0.470470 0.220590
O1    O     O_R   0.621060 0.286250 0.492350 -0.475291
O2    O     O_R   0.378940 0.713750 0.507650 -0.475291
O3    O     O_R   0.306310 0.256580 0.512240 -0.447263
O4    O     O_R   0.693690 0.743420 0.487760 -0.447263
O5    O     O_R   0.631800 0.512400 0.642670 -0.439513
O6    O     O_R   0.368200 0.487600 0.357330 -0.439513
O7    O     O_R   0.317060 0.482730 0.662570 -0.449432
O8    O     O_R   0.682940 0.517270 0.337430 -0.449432

loop_
_geom_bond_atom_site_label_1
_geom_bond_atom_site_label_2
_ccdc_geom_bond_type
C2    F4    S    
C11   O8    A    
C11   C12   S    
C3    F3    S    
C10   O5    A    
Cu1   N2    S    
C6    C14   A    
C3    C13   A    
C2    C12   A    
Cu1   Cu2   S    
C1    O3    A    
C7    C8    D    
Cu2   N1    S    
C8    F2    S    
F9    N2    S    
C2    C15   A    
N1    N2    D    
F8    N1    S    
C10   O7    A    
C5    C6    A    
C11   O6    A    
Cu2   O7    S    
C16   F5    S    
Cu1   O8    S    
C9    O4    A    
Cu1   O1    S    
Cu2   O3    S    
C14   C16   A    
C5    C15   A    
C4    C12   A    
Cu1   O4    S    
C1    O1    A    
Cu2   O2    S    
C15   F7    S    
C4    C6    A    
C13   C16   A    
C14   F6    S    
Cu1   O5    S    
C9    O2    A    
C1    C7    S    
C4    F1    S    
Cu2   O6    S    
C7    F10   S    
C8    C9    S    
C3    C5    A    
C10   C13   S    
