data_mof_unit_42343.cif
_audit_creation_date              2013-03-05T15:40:43-0500
_audit_creation_method            fapswitch 2.2
_symmetry_space_group_name_H-M    P1
_symmetry_Int_Tables_number       1
_space_group_crystal_system       triclinic
_cell_length_a                    15.002379
_cell_length_b                    14.85331
_cell_length_c                    14.903844
_cell_angle_alpha                 109.434014
_cell_angle_beta                  109.515497
_cell_angle_gamma                 109.198863
_cell_volume                      2564.90260939

loop_
_atom_site_label
_atom_site_type_symbol
_atom_site_description
_atom_site_fract_x
_atom_site_fract_y
_atom_site_fract_z
_atom_type_partial_charge
C1    C     C_R   0.927731 0.743348 0.020981 -0.146949
H1    H     H_    0.871143 0.750938 0.048428 0.095232
N1    N     N_R   0.993980 0.704500 0.053430 -0.042102
C2    C     C_R   0.779027 0.243630 0.685780 -0.137731
H2    H     H_    0.799077 0.228955 0.621037 0.099768
N2    N     N_R   0.850110 0.295520 0.792970 -0.042774
C3    C     C_R   0.085948 0.591250 0.787739 -0.157910
H3    H     H_    0.144284 0.674847 0.816701 0.092019
N3    N     N_R   0.053690 0.556380 0.849240 -0.040519
C4    C     C_R   0.700530 0.408549 0.003679 -0.143309
H4    H     H_    0.646732 0.323550 0.974738 0.087435
N4    N     N_R   0.790390 0.443640 0.997160 -0.037874
C5    C     C_R   0.996800 0.408722 0.697192 -0.121855
H5    H     H_    0.971298 0.324624 0.642870 0.083515
N5    N     N_R   0.998260 0.443670 0.792970 -0.042603
C6    C     C_R   0.790070 0.590916 0.094847 -0.129138
H6    H     H_    0.819080 0.675779 0.150259 0.110445
N6    N     N_R   0.845830 0.556350 0.053430 -0.039053
C7    C     C_R   0.686869 0.245344 0.777492 -0.120300
H7    H     H_    0.622996 0.232108 0.798140 0.087919
N7    N     N_R   0.792820 0.295510 0.849240 -0.044357
C8    C     C_R   0.021539 0.745000 0.931714 -0.109588
H8    H     H_    0.052479 0.754594 0.877927 0.092763
N8    N     N_R   0.051260 0.704510 0.997160 -0.046045
C9    C     C_R   0.941689 0.766920 0.942715 0.130031
C10   C     C_R   0.676513 0.213735 0.674229 0.130565
C11   C     C_R   0.050856 0.500255 0.691855 0.140890
C12   C     C_R   0.698919 0.499601 0.066007 0.048840
C13   C     C_R   0.066564 0.591343 0.312653 -0.101654
H9    H     H_    0.121642 0.676099 0.376497 0.098010
N9    N     N_R   0.001740 0.556330 0.207030 -0.039721
C14   C     C_R   0.223522 0.407953 0.974340 -0.142249
H10   H     H_    0.202422 0.322847 0.936355 0.092938
N10   N     N_R   0.154170 0.443650 0.946570 -0.038761
C15   C     C_R   0.296785 0.803033 0.207131 -0.153934
H11   H     H_    0.347611 0.832691 0.174906 0.090110
N11   N     N_R   0.207180 0.704490 0.150760 -0.039580
C16   C     C_R   0.916266 0.201061 0.004540 -0.161251
H12   H     H_    0.857299 0.170976 0.028633 0.094068
N12   N     N_R   0.948740 0.295490 0.002840 -0.041312
C17   C     C_R   0.006232 0.200167 0.912238 -0.126361
H13   H     H_    0.031278 0.170910 0.853584 0.084265
N13   N     N_R   0.006020 0.295500 0.946570 -0.041578
C18   C     C_R   0.205328 0.802844 0.297609 -0.135999
H14   H     H_    0.171542 0.831738 0.347152 0.094872
N14   N     N_R   0.149890 0.704480 0.207030 -0.044982
C19   C     C_R   0.975117 0.407918 0.221222 -0.103263
H15   H     H_    0.944777 0.322962 0.200005 0.089100
N15   N     N_R   0.946310 0.443620 0.150760 -0.045048
C20   C     C_R   0.313791 0.591668 0.066777 -0.136387
H16   H     H_    0.376482 0.676880 0.114896 0.097712
N16   N     N_R   0.209610 0.556360 0.002840 -0.038713
Ni1   Ni    Ni4+2 0.997880 0.629240 0.129060 0.231631
Ni2   Ni    Ni4+2 0.002120 0.370760 0.870940 0.208857
Ni3   Ni    Ni4+2 0.129260 0.629260 0.000000 0.207587
Ni4   Ni    Ni4+2 0.870740 0.370740 0.000000 0.215343
C21   C     C_R   0.053190 0.499494 0.323221 0.122426
C22   C     C_R   0.325581 0.499592 0.050865 0.031169
C23   C     C_R   0.296825 0.866538 0.298603 0.140687
C24   C     C_R   0.951342 0.140261 0.948735 0.142974
C25   C     C_3   0.527367 0.391851 0.061466 -0.359309
H17   H     H_    0.571156 0.378101 0.127489 0.201945
H18   H     H_    0.498638 0.319849 0.982391 0.140867
C26   C     C_3   0.426589 0.394636 0.063488 -0.386174
H19   H     H_    0.353783 0.318585 0.990441 0.142543
H20   H     H_    0.425619 0.393192 0.137333 0.184749
H21   H     H_    0.522200 0.597578 0.243842 0.203626
C27   C     C_3   0.633358 0.601904 0.176153 0.268721
C28   C     C_3   0.539412 0.505973 0.969292 -0.467884
C29   C     C_3   0.602845 0.499733 0.070845 0.211429
H22   H     H_    0.590419 0.582397 0.972651 0.161554
H23   H     H_    0.517519 0.435357 0.892450 0.181955
C30   C     C_3   0.427299 0.499746 0.063897 0.332011
C31   C     C_3   0.528613 0.600456 0.172495 -0.507668
C32   C     C_3   0.436063 0.504533 0.964481 -0.384035
H24   H     H_    0.364429 0.432085 0.886148 0.166067
H25   H     H_    0.436706 0.579422 0.963549 0.159548
H26   H     H_    0.678768 0.677430 0.175014 0.037918
H27   H     H_    0.533460 0.678660 0.178578 0.132782
C33   C     C_2   0.378088 0.037431 0.467380 -0.112369
C34   C     C_2   0.372125 0.983592 0.371655 -0.191369
H28   H     H_    0.314044 0.001374 0.483824 0.117494
H29   H     H_    0.432439 0.021579 0.351937 0.129865
C35   C     C_2   0.480128 0.132951 0.562584 -0.111437
C36   C     C_2   0.576356 0.149681 0.569788 -0.177416
H30   H     H_    0.476313 0.176594 0.634589 0.115447
H31   H     H_    0.582827 0.105890 0.500036 0.128337
C37   C     C_2   0.075979 0.418404 0.536619 -0.124641
C38   C     C_2   0.077831 0.503859 0.607953 -0.182857
H32   H     H_    0.059181 0.344779 0.543296 0.118626
H33   H     H_    0.091644 0.577175 0.601385 0.137681
C39   C     C_2   0.072375 0.411886 0.434988 -0.100949
C40   C     C_2   0.107308 0.502148 0.426064 -0.183467
H34   H     H_    0.022384 0.330703 0.362901 0.116512
H35   H     H_    0.163692 0.582732 0.498524 0.128615
C41   C     C_2   0.921544 0.957690 0.838902 -0.111302
C42   C     C_2   0.922766 0.028450 0.924080 -0.204717
H36   H     H_    0.937987 0.981211 0.782155 0.127570
H37   H     H_    0.909469 0.007926 0.983508 0.131739
C43   C     C_2   0.922023 0.857566 0.833983 -0.083992
C44   C     C_2   0.886720 0.814133 0.889231 -0.193085
H38   H     H_    0.971243 0.834269 0.802574 0.121846
H39   H     H_    0.830636 0.831156 0.913109 0.128686
N17   N     N_R   0.703002 0.609180 0.277817 0.240318
O1    O     O_R   0.664603 0.540819 0.309235 -0.413840
O2    O     O_R   0.802867 0.689732 0.341762 -0.420212

loop_
_geom_bond_atom_site_label_1
_geom_bond_atom_site_label_2
_geom_bond_distance
_ccdc_geom_bond_type
C25   C29   1.556045 S    
C6    C12   1.376189 A    
C28   H23   1.114615 S    
C30   C32   1.553009 S    
C30   C31   1.554802 S    
C7    H7    1.079338 S    
C14   C22   1.388301 A    
C33   C35   1.466418 S    
N17   O2    1.301042 A    
C3    H3    1.081794 S    
C19   N15   1.337494 A    
N8    Ni3   1.865212 S    
C15   N11   1.337295 A    
C35   H30   1.085188 S    
C16   H12   1.081768 S    
C18   C23   1.379307 A    
C27   C31   1.546795 S    
C3    C11   1.374837 A    
C15   C23   1.375374 A    
C1    H1    1.079386 S    
C17   H13   1.080858 S    
C28   H22   1.114414 S    
C7    C10   1.387295 A    
C43   C44   1.339714 D    
N6    Ni1   1.868661 S    
C42   H37   1.083930 S    
N12   N13   1.386821 A    
C15   H11   1.081982 S    
C6    H6    1.080109 S    
N12   Ni4   1.865213 S    
C8    C9    1.385701 A    
C41   H36   1.085144 S    
C20   N16   1.326344 A    
C26   C30   1.555714 S    
C28   C32   1.520688 S    
N3    Ni3   1.837949 S    
C38   H33   1.083719 S    
N16   Ni3   1.866071 S    
C44   H39   1.085647 S    
C21   C40   1.455123 S    
C5    H5    1.080709 S    
C1    C9    1.383400 A    
C17   N13   1.337472 A    
N1    N8    1.386820 A    
C28   C29   1.547264 S    
N9    N15   1.371743 A    
C43   H38   1.084131 S    
N17   O1    1.301543 A    
C34   H29   1.084305 S    
C18   N14   1.336763 A    
C36   H31   1.082682 S    
C27   H26   1.113830 S    
C20   C22   1.388983 A    
N5    Ni2   1.833091 S    
C37   C39   1.466570 S    
C35   C36   1.341707 D    
C33   H28   1.084568 S    
C24   C42   1.448223 S    
C2    H2    1.079875 S    
N2    N7    1.386945 A    
C1    N1    1.340307 A    
C26   H20   1.112728 S    
C25   C26   1.535974 S    
C32   H24   1.114019 S    
C13   H9    1.080009 S    
C19   C21   1.385483 A    
N13   Ni2   1.833301 S    
C19   H15   1.077054 S    
C41   C42   1.341811 D    
C39   H34   1.084228 S    
C20   H16   1.078540 S    
H21   C31   1.112507 S    
N9    Ni1   1.833091 S    
C32   H25   1.113966 S    
N4    Ni4   1.866070 S    
C4    N4    1.325733 A    
C16   C24   1.374543 A    
C2    N2    1.336134 A    
C13   C21   1.382155 A    
N2    Ni2   1.867906 S    
C31   H27   1.110302 S    
C5    N5    1.336460 A    
C8    N8    1.337186 A    
C18   H14   1.080997 S    
C4    C12   1.375880 A    
C3    N3    1.337923 A    
C7    N7    1.334324 A    
C25   H18   1.112292 S    
C12   C29   1.467598 S    
C23   C34   1.453014 S    
C17   C24   1.380278 A    
C37   H32   1.085011 S    
C33   C34   1.338425 D    
C6    N6    1.327024 A    
N7    Ni4   1.838199 S    
C2    C10   1.383902 A    
N10   Ni2   1.868661 S    
N15   Ni4   1.837948 S    
N10   N16   1.371743 A    
C26   H19   1.109039 S    
C27   N17   1.469080 S    
N3    N5    1.371743 A    
C13   N9    1.339426 A    
C14   H10   1.076807 S    
C16   N12   1.337057 A    
N1    Ni1   1.833301 S    
C9    C44   1.456146 S    
C10   C36   1.448270 S    
C41   C43   1.466949 S    
N14   Ni1   1.867906 S    
C39   C40   1.338995 D    
C11   C38   1.448686 S    
C25   H17   1.109787 S    
C4    H4    1.079939 S    
N11   Ni3   1.838198 S    
C37   C38   1.342109 D    
C40   H35   1.085379 S    
N4    N6    1.371742 A    
C27   C29   1.566533 S    
C8    H8    1.076800 S    
C5    C11   1.379250 A    
N11   N14   1.386945 A    
C22   C30   1.471670 S    
C14   N10   1.325191 A    
