data_mof_unit_17350.cif
_audit_creation_date              2013-03-05T15:48:19-0500
_audit_creation_method            fapswitch 2.2
_symmetry_space_group_name_H-M    P1
_symmetry_Int_Tables_number       1
_space_group_crystal_system       triclinic
_cell_length_a                    10.083837
_cell_length_b                    10.781066
_cell_length_c                    17.099918
_cell_angle_alpha                 91.090232
_cell_angle_beta                  77.33584
_cell_angle_gamma                 95.56252
_cell_volume                      1805.23723007

loop_
_atom_site_label
_atom_site_type_symbol
_atom_site_description
_atom_site_fract_x
_atom_site_fract_y
_atom_site_fract_z
_atom_type_partial_charge
O1    O     O_R   0.430310 0.692580 0.506610 -0.639485
O2    O     O_R   0.569690 0.307420 0.493390 -0.645265
O3    O     O_R   0.652740 0.659410 0.485540 -0.573608
O4    O     O_R   0.347260 0.340590 0.514460 -0.575285
C1    C     C_R   0.557422 0.732867 0.491797 0.823868
C2    C     C_R   0.443118 0.267073 0.502728 0.808238
O5    O     O_R   0.375640 0.518570 0.627580 -0.615424
O6    O     O_R   0.624360 0.481430 0.372420 -0.624064
O7    O     O_R   0.598070 0.485390 0.606510 -0.599917
O8    O     O_R   0.401930 0.514610 0.393490 -0.603410
C3    C     C_R   0.481708 0.496655 0.653924 0.879160
C4    C     C_R   0.516563 0.498280 0.345841 0.854821
Zn1   Zn    Zn3+2 0.351480 0.522150 0.514070 0.960283
Zn2   Zn    Zn3+2 0.648520 0.477850 0.485930 0.951676
C5    C     C_R   0.468649 0.479853 0.739400 -0.100264
C6    C     C_R   0.515522 0.479636 0.261491 -0.102311
C7    C     C_R   0.559901 0.411499 0.769387 -0.019465
C8    C     C_R   0.402151 0.509506 0.231604 -0.010260
C9    C     C_R   0.548057 0.405868 0.851399 -0.215841
C10   C     C_R   0.386029 0.460471 0.158746 -0.224857
C11   C     C_R   0.444965 0.462756 0.903586 0.134307
C12   C     C_R   0.488429 0.397655 0.110152 0.141919
C13   C     C_R   0.348516 0.524548 0.874644 0.033421
C14   C     C_R   0.605661 0.373445 0.137119 0.038082
C15   C     C_R   0.362268 0.532974 0.792120 -0.269748
C16   C     C_R   0.616292 0.412425 0.214001 -0.279371
C17   C     C_2   0.449667 0.471057 0.987328 -0.248416
C18   C     C_2   0.477904 0.375708 0.027604 -0.253562
H1    H     H_    0.703388 0.390064 0.236759 0.163700
H2    H     H_    0.290163 0.582100 0.768929 0.164849
H3    H     H_    0.501502 0.287199 0.999115 0.169769
H4    H     H_    0.430411 0.560092 0.016534 0.174938
H5    H     H_    0.296971 0.479424 0.136670 0.148839
H6    H     H_    0.622313 0.359404 0.874410 0.145934
H7    H     H_    0.617770 0.107622 0.445744 0.199931
H8    H     H_    0.387918 0.890834 0.472594 0.206422
C19   C     C_2   0.591378 0.864734 0.477669 0.405743
C20   C     C_2   0.411019 0.134733 0.495949 0.419285
C21   C     C_2   0.491399 0.932784 0.469658 -0.251136
C22   C     C_2   0.513522 0.065874 0.466341 -0.272798
H9    H     H_    0.114924 0.419936 0.450856 0.171212
H10   H     H_    0.884276 0.577837 0.550606 0.174132
N1    N     N_2   0.846390 0.448330 0.467170 -0.196756
N2    N     N_2   0.153610 0.551670 0.532830 -0.192940
C23   C     C_2   0.926049 0.509674 0.506880 -0.102306
C24   C     C_2   0.073471 0.488992 0.494011 -0.110303
H11   H     H_    0.111222 0.616634 0.573337 0.169694
H12   H     H_    0.889096 0.384252 0.426082 0.161202
C25   C     C_R   0.667340 0.343302 0.717933 0.148953
C26   C     C_R   0.805716 0.376735 0.717557 -0.176425
C27   C     C_R   0.906983 0.312069 0.669341 -0.142613
C28   C     C_R   0.870871 0.213499 0.621493 -0.088351
C29   C     C_R   0.733362 0.178772 0.622297 -0.116627
C30   C     C_R   0.631713 0.242919 0.670588 -0.107236
H13   H     H_    0.835003 0.453317 0.754105 0.127550
H14   H     H_    0.013495 0.338754 0.668777 0.153745
H15   H     H_    0.949420 0.163930 0.583914 0.179467
H16   H     H_    0.705472 0.102076 0.585578 0.187209
H17   H     H_    0.525493 0.214981 0.670838 0.110576
C31   C     C_R   0.302359 0.596385 0.271962 0.166830
C32   C     C_R   0.348310 0.715877 0.295304 -0.122445
C33   C     C_R   0.254578 0.798835 0.330974 -0.138461
C34   C     C_R   0.114487 0.763795 0.343131 -0.082479
C35   C     C_R   0.067780 0.645891 0.319350 -0.141327
C36   C     C_R   0.161019 0.562313 0.284070 -0.182752
H18   H     H_    0.456573 0.744858 0.285539 0.102917
H19   H     H_    0.290539 0.890699 0.348668 0.149440
H20   H     H_    0.042104 0.828189 0.370671 0.171047
H21   H     H_    0.959220 0.619078 0.328471 0.152173
H22   H     H_    0.123032 0.470955 0.266512 0.120446
C37   C     C_R   0.233656 0.580834 0.929252 0.097083
C38   C     C_R   0.151233 0.512303 0.994379 -0.162738
C39   C     C_R   0.045376 0.566176 0.046504 -0.130127
C40   C     C_R   0.019020 0.688024 0.033425 -0.111680
C41   C     C_R   0.098948 0.756455 0.968402 -0.131772
C42   C     C_R   0.205849 0.703370 0.916524 -0.160929
H23   H     H_    0.168685 0.417031 0.004792 0.146884
H24   H     H_    0.983244 0.513103 0.096801 0.141037
H25   H     H_    0.936612 0.729381 0.073635 0.125240
H26   H     H_    0.078450 0.850944 0.958387 0.126238
H27   H     H_    0.267869 0.758395 0.867078 0.130254
C43   C     C_R   0.719030 0.311326 0.086064 0.099394
C44   C     C_R   0.763308 0.204044 0.113795 -0.165256
C45   C     C_R   0.870583 0.145710 0.066081 -0.136554
C46   C     C_R   0.934692 0.194071 0.990519 -0.118650
C47   C     C_R   0.892122 0.301213 0.962672 -0.133802
C48   C     C_R   0.785622 0.360332 0.010402 -0.166365
H28   H     H_    0.714141 0.165129 0.172060 0.131019
H29   H     H_    0.903900 0.062853 0.087652 0.128491
H30   H     H_    0.017726 0.148839 0.953703 0.125270
H31   H     H_    0.942639 0.339317 0.904444 0.138360
H32   H     H_    0.756250 0.445001 0.988671 0.146451
F1    F     F_    0.280172 0.083156 0.521518 -0.675777
F2    F     F_    0.721282 0.916438 0.474038 -0.688336

loop_
_geom_bond_atom_site_label_1
_geom_bond_atom_site_label_2
_geom_bond_distance
_ccdc_geom_bond_type
C1    C19   1.441942 S    
C39   C40   1.396878 A    
C41   C42   1.399103 A    
C29   C30   1.398352 A    
O5    C3    1.291143 A    
C38   H23   1.083247 S    
C33   H19   1.082125 S    
O1    C1    1.284387 A    
C9    C11   1.396138 A    
C14   C16   1.395884 A    
C47   H31   1.082702 S    
C37   C42   1.407383 A    
C5    C15   1.402455 A    
C25   C30   1.405187 A    
C27   H14   1.082628 S    
O4    Zn1   1.953850 S    
C14   C43   1.485313 S    
C3    C5    1.451755 S    
C32   H18   1.083170 S    
C4    C6    1.454711 S    
H9    C24   1.085235 S    
C2    C20   1.440307 S    
N1    H12   1.030962 S    
N2    H11   1.030911 S    
C44   H28   1.083273 S    
C11   C17   1.443909 S    
C12   C18   1.451851 S    
C48   H32   1.082872 S    
O2    C2    1.284284 A    
N2    C24   1.289406 D    
C30   H17   1.083285 S    
C18   H3    1.086278 S    
C6    C16   1.405564 A    
C46   H30   1.082379 S    
C40   C41   1.397573 A    
C27   C28   1.397814 A    
C13   C37   1.490695 S    
C45   C46   1.397623 A    
O4    C2    1.288504 A    
C7    C25   1.483347 S    
C21   C22   1.430832 S    
C47   C48   1.397950 A    
C46   C47   1.397132 A    
C39   H24   1.082877 S    
C9    H6    1.084360 S    
C31   C32   1.406917 A    
H10   C23   1.085144 S    
O7    Zn2   2.014592 S    
C33   C34   1.397242 A    
O7    C3    1.286726 A    
C44   C45   1.398840 A    
O6    C4    1.295839 A    
C26   C27   1.398423 A    
C35   H21   1.082480 S    
N1    C23   1.289496 D    
O3    Zn2   1.953850 S    
O8    C4    1.285338 A    
C10   H5    1.085315 S    
C8    C31   1.489901 S    
C10   C12   1.397601 A    
C31   C36   1.407534 A    
C43   C44   1.405627 A    
C40   H25   1.082472 S    
C11   C13   1.408500 A    
C12   C14   1.407716 A    
O1    Zn1   1.924983 S    
C45   H29   1.082563 S    
C28   C29   1.397941 A    
C41   H26   1.082942 S    
C15   H2    1.084219 S    
C5    C7    1.416130 A    
C34   H20   1.082385 S    
O6    Zn2   2.010071 S    
C17   H4    1.088067 S    
H8    C21   1.087357 S    
C38   C39   1.398050 A    
O3    C1    1.289079 A    
O8    Zn1   2.014592 S    
C42   H27   1.083174 S    
C29   H16   1.081502 S    
C26   H13   1.083279 S    
C35   C36   1.398108 A    
H7    C22   1.087960 S    
C37   C38   1.408311 A    
C19   C21   1.334610 D    
C20   C22   1.334478 D    
C20   F1    1.362114 S    
C7    C9    1.383141 A    
C19   F2    1.361833 S    
C8    C10   1.380268 A    
C13   C15   1.391198 A    
C32   C33   1.398448 A    
O2    Zn2   1.924983 S    
C28   H15   1.082463 S    
C34   C35   1.396863 A    
C23   C24   1.492317 S    
O5    Zn1   2.010070 S    
C16   H1    1.084151 S    
C6    C8    1.416216 A    
C25   C26   1.405575 A    
C17   C18   1.334833 D    
C36   H22   1.083046 S    
Zn1   N2    2.005976 S    
C43   C48   1.407241 A    
Zn2   N1    2.005976 S    
