data_mof_unit_38110.cif
_audit_creation_date              2012-12-10T16:50:13-0500
_audit_creation_method            fapswitch 2.2
_symmetry_space_group_name_H-M    P1
_symmetry_Int_Tables_number       1
_space_group_crystal_system       triclinic
_cell_length_a                    23.441888
_cell_length_b                    8.6545
_cell_length_c                    7.520933
_cell_angle_alpha                 103.099644
_cell_angle_beta                  94.666168
_cell_angle_gamma                 93.410631
_cell_volume                      1476.41828566

loop_
_atom_site_label
_atom_site_type_symbol
_atom_type_description
_atom_site_fract_x
_atom_site_fract_y
_atom_site_fract_z
_atom_type_partial_charge
C1    C     C_R   0.498188 0.199872 0.453153 0.890923
C2    C     C_R   0.501963 0.800127 0.546823 0.885738
C3    C     C_R   0.241784 0.626324 0.453107 0.205318
C4    C     C_R   0.759114 0.463302 0.365272 0.210314
C5    C     C_R   0.301261 0.621182 0.451629 -0.263813
C6    C     C_R   0.699403 0.441885 0.363024 -0.264449
C7    C     C_R   0.328802 0.496519 0.502189 -0.094549
C8    C     C_R   0.671125 0.534791 0.500035 -0.093224
C9    C     C_R   0.296277 0.371978 0.548501 -0.103203
C10   C     C_R   0.701457 0.669380 0.618808 -0.111596
C11   C     C_R   0.237722 0.385813 0.571169 -0.075530
C12   C     C_R   0.760944 0.696644 0.610831 -0.078549
C13   C     C_R   0.209767 0.511552 0.518995 0.289346
C14   C     C_R   0.791607 0.571815 0.515068 0.236312
C15   C     C_2   0.497044 0.031444 0.427305 -0.331581
C16   C     C_2   0.503397 0.968545 0.572599 -0.315277
C17   C     C_R   0.391239 0.496977 0.500619 0.814987
C18   C     C_R   0.608772 0.506471 0.499354 0.814860
C19   C     C_R   0.889997 0.673218 0.673471 0.559890
C20   C     C_R   0.111894 0.392769 0.431924 0.552145
C21   C     C_R   0.875020 0.409139 0.503524 0.623581
C22   C     C_R   0.128097 0.651545 0.631640 0.598658
C23   C     C_R   0.934142 0.399336 0.490962 -0.048854
C24   C     C_R   0.068840 0.662463 0.637270 -0.040360
C25   C     C_R   0.971512 0.535863 0.563023 -0.066500
C26   C     C_R   0.031054 0.529297 0.550721 -0.055887
C27   C     C_R   0.949544 0.675547 0.658390 -0.002913
C28   C     C_R   0.052845 0.388591 0.455689 -0.023314
C29   C     C_R   0.956318 0.256017 0.409647 -0.187324
C30   C     C_R   0.046806 0.802460 0.729638 -0.209557
C31   C     C_R   0.015260 0.248719 0.391143 0.158697
C32   C     C_R   0.987608 0.810963 0.738587 0.152256
Cu1   Cu    Cu3+1 0.506340 0.517380 0.684380 0.973552
Cu2   Cu    Cu3+1 0.493660 0.482620 0.315620 0.964255
H1    H     H_    0.927725 0.149252 0.358639 0.192888
H2    H     H_    0.075306 0.907181 0.792872 0.205569
H3    H     H_    0.325922 0.713466 0.407844 0.166707
H4    H     H_    0.675237 0.352323 0.254333 0.164959
H5    H     H_    0.490818 0.958976 0.287701 0.177161
H6    H     H_    0.509780 0.040962 0.712170 0.181182
N1    N     N_R   0.853017 0.554424 0.561204 -0.450656
N2    N     N_R   0.148580 0.519422 0.526807 -0.458700
N3    N     N_2   0.484110 0.456420 0.038520 -0.220776
N4    N     N_2   0.515890 0.543580 0.961480 -0.220352
O1    O     O_R   0.504120 0.286130 0.619770 -0.592326
O2    O     O_R   0.495880 0.713870 0.380230 -0.595700
O3    O     O_R   0.493410 0.256770 0.308360 -0.597654
O4    O     O_R   0.506590 0.743230 0.691640 -0.588168
O5    O     O_R   0.423230 0.514630 0.655730 -0.586736
O6    O     O_R   0.576770 0.485370 0.344270 -0.595847
O7    O     O_R   0.412530 0.485280 0.344320 -0.586027
O8    O     O_R   0.587470 0.514720 0.655680 -0.585620
O9    O     O_2   0.871241 0.776486 0.814115 -0.507257
O10   O     O_2   0.132636 0.272548 0.313711 -0.498910
O11   O     O_2   0.840484 0.273230 0.467494 -0.521146
O12   O     O_2   0.164960 0.771554 0.731192 -0.517047
N5    N     N_3   0.037106 0.097967 0.317190 -0.522675
H7    H     H_    0.003624 0.008341 0.275719 0.206143
H8    H     H_    0.061873 0.067244 0.424129 0.244234
N6    N     N_3   0.966380 0.959902 0.820419 -0.507771
H9    H     H_    0.979574 0.043784 0.748482 0.219169
H10   H     H_    0.985526 0.997136 0.954913 0.244284
N7    N     N_3   0.213672 0.747374 0.386188 -0.536587
H11   H     H_    0.222136 0.737260 0.249828 0.234722
H12   H     H_    0.231976 0.858210 0.462188 0.260951
N8    N     N_3   0.785981 0.385151 0.208277 -0.541884
H13   H     H_    0.770118 0.428020 0.096222 0.224808
H14   H     H_    0.773196 0.263455 0.179236 0.262676
C33   C     C_1   0.320191 0.221056 0.545603 0.277457
N9    N     N_1   0.338225 0.098423 0.538629 -0.280749
C34   C     C_1   0.670890 0.788684 0.733504 0.272047
N10   N     N_1   0.646569 0.884023 0.824713 -0.275755
C35   C     C_1   0.206445 0.271200 0.648507 0.303719
N11   N     N_1   0.181508 0.179722 0.710244 -0.231429
C36   C     C_1   0.783412 0.861328 0.641953 0.352913
N12   N     N_1   0.800908 0.993112 0.665942 -0.189699
C37   C     C_1   0.447516 0.334342 0.930233 0.554046
N13   N     N_1   0.416778 0.230376 0.843872 -0.328497
C38   C     C_1   0.556051 0.655937 0.072101 0.563224
N14   N     N_1   0.589888 0.750205 0.162482 -0.335244

loop_
_geom_bond_atom_site_label_1
_geom_bond_atom_site_label_2
_ccdc_geom_bond_type
N8    H14   S    
N7    H12   S    
C5    H3    S    
Cu1   O1    S    
C35   N11   T    
C36   N12   T    
C17   O7    A    
C18   O8    A    
C37   N13   T    
C2    O2    A    
Cu1   O8    S    
Cu2   O7    S    
C6    C8    A    
C23   C29   A    
C24   C26   A    
N5    H8    S    
Cu1   O5    S    
C15   C16   D    
N6    H10   S    
C7    C17   S    
C6    H4    S    
C1    C15   S    
C2    C16   S    
C3    C13   A    
C10   C34   S    
C19   O9    S    
N8    H13   S    
C13   N2    S    
N4    C38   S    
Cu2   O6    S    
C20   O10   S    
C21   N1    A    
C17   O5    A    
C5    C7    A    
C1    O3    A    
C22   O12   S    
C20   C28   A    
C2    O4    A    
C25   C26   A    
C8    C18   S    
C38   N14   T    
N6    H9    S    
N3    N4    D    
Cu1   Cu2   S    
C9    C11   A    
C15   H5    S    
C10   C12   A    
C16   H6    S    
C14   N1    S    
Cu2   O2    S    
C4    C6    A    
C12   C14   A    
C21   C23   A    
C11   C35   S    
C22   C24   A    
N3    C37   S    
C32   N6    S    
C19   C27   A    
C18   O6    A    
C21   O11   S    
C7    C9    A    
C27   C32   A    
Cu1   N4    S    
C28   C31   A    
Cu2   N3    S    
C9    C33   S    
C3    C5    A    
C20   N2    A    
C3    N7    S    
C25   C27   A    
C29   H1    S    
C26   C28   A    
C30   H2    S    
C31   N5    S    
C34   N10   T    
C29   C31   A    
C30   C32   A    
C11   C13   A    
C1    O1    A    
N5    H7    S    
C22   N2    A    
C23   C25   A    
C4    C14   A    
C33   N9    T    
C24   C30   A    
N7    H11   S    
C4    N8    S    
C8    C10   A    
C12   C36   S    
Cu1   O4    S    
Cu2   O3    S    
C19   N1    A    
