data_mof_unit_34523.cif
_audit_creation_date              2013-03-05T15:40:11-0500
_audit_creation_method            fapswitch 2.2
_symmetry_space_group_name_H-M    P1
_symmetry_Int_Tables_number       1
_space_group_crystal_system       triclinic
_cell_length_a                    7.53591
_cell_length_b                    8.673663
_cell_length_c                    12.961759
_cell_angle_alpha                 86.910757
_cell_angle_beta                  78.537725
_cell_angle_gamma                 102.637109
_cell_volume                      806.009259577

loop_
_atom_site_label
_atom_site_type_symbol
_atom_site_description
_atom_site_fract_x
_atom_site_fract_y
_atom_site_fract_z
_atom_type_partial_charge
O1    O     O_R   0.621060 0.286250 0.492350 -0.568345
O2    O     O_R   0.378940 0.713750 0.507650 -0.568345
O3    O     O_R   0.306310 0.256580 0.512240 -0.543770
O4    O     O_R   0.693690 0.743420 0.487760 -0.543774
C1    C     C_R   0.452906 0.199883 0.505447 0.855417
C2    C     C_R   0.547093 0.800117 0.494553 0.855417
O5    O     O_R   0.631800 0.512400 0.642670 -0.564150
O6    O     O_R   0.368200 0.487600 0.357330 -0.564152
O7    O     O_R   0.317060 0.482730 0.662570 -0.589820
O8    O     O_R   0.682940 0.517270 0.337430 -0.589814
C3    C     C_R   0.465681 0.496377 0.701340 0.791323
C4    C     C_R   0.534319 0.503623 0.298660 0.791321
Cu1   Cu    Cu3+1 0.686350 0.517570 0.488220 1.100286
Cu2   Cu    Cu3+1 0.313650 0.482430 0.511780 1.100284
N1    N     N_2   0.033570 0.455950 0.529530 0.020553
N2    N     N_2   0.966430 0.544050 0.470470 0.020556
C5    C     C_R   0.554269 0.506952 0.184575 -0.040814
C6    C     C_R   0.445731 0.493046 0.815425 -0.040812
C7    C     C_R   0.250862 0.446696 0.991751 -0.200784
C8    C     C_R   0.749138 0.553301 0.008249 -0.200787
C9    C     C_R   0.268306 0.453494 0.882825 -0.186574
C10   C     C_R   0.731694 0.546504 0.117176 -0.186571
C11   C     C_R   0.605583 0.527670 0.857460 -0.197372
C12   C     C_R   0.394417 0.472326 0.142540 -0.197370
C13   C     C_R   0.589372 0.520488 0.966176 0.158461
C14   C     C_R   0.410628 0.479508 0.033824 0.158461
H1    H     H_    0.257037 0.439693 0.194154 0.182588
H2    H     H_    0.742963 0.560302 0.805846 0.182583
H3    H     H_    0.856797 0.573532 0.148441 0.184626
H4    H     H_    0.143203 0.426467 0.851559 0.184620
H5    H     H_    0.113099 0.415361 0.042909 0.147010
H6    H     H_    0.886901 0.584635 0.957091 0.147010
C15   C     C_2   0.427547 0.031513 0.515417 -0.291227
C16   C     C_2   0.572453 0.968487 0.484583 -0.291229
H7    H     H_    0.289817 0.959319 0.551110 0.215602
H8    H     H_    0.710183 0.040681 0.448890 0.215602
N3    N     N_R   0.911128 0.323391 0.588401 0.257990
O9    O     O_R   0.916911 0.185012 0.556149 -0.350473
O10   O     O_R   0.852656 0.329548 0.689076 -0.380520
N4    N     N_R   0.088874 0.676600 0.411590 0.257993
O11   O     O_R   0.083112 0.814984 0.443839 -0.350474
O12   O     O_R   0.147320 0.670434 0.310914 -0.380525

loop_
_geom_bond_atom_site_label_1
_geom_bond_atom_site_label_2
_geom_bond_distance
_ccdc_geom_bond_type
C4    C5    1.454389 S    
O7    Cu2   1.959907 S    
C3    C6    1.454388 S    
N3    O9    1.298842 A    
C10   H3    1.083229 S    
C6    C9    1.404054 A    
C9    H4    1.083230 S    
C5    C10   1.404054 A    
C12   H1    1.084249 S    
O6    C4    1.303414 A    
C7    H5    1.083915 S    
N4    O12   1.299658 A    
C15   C16   1.327524 D    
N3    O10   1.299664 A    
Cu1   Cu2   2.710921 S    
O5    C3    1.303414 A    
O7    C3    1.301164 A    
O2    C2    1.296614 A    
O3    Cu2   1.947247 S    
O8    C4    1.301165 A    
N2    N4    1.384573 S    
O1    C1    1.296614 A    
N1    N2    1.298461 D    
N4    O11   1.298840 A    
C15   H7    1.084887 S    
C8    C10   1.388536 A    
C16   H8    1.084886 S    
C11   C13   1.386821 A    
O2    Cu2   1.953604 S    
C5    C12   1.399430 A    
O1    Cu1   1.953604 S    
C8    C13   1.398474 A    
C6    C11   1.399432 A    
O5    Cu1   1.958050 S    
O4    C2    1.293739 A    
C8    H6    1.083915 S    
Cu1   N2    2.037094 S    
O4    Cu1   1.947246 S    
C7    C14   1.398474 A    
Cu2   N1    2.037095 S    
N1    N3    1.384576 S    
O6    Cu2   1.958048 S    
C7    C9    1.388536 A    
C13   C14   1.413184 A    
C11   H2    1.084250 S    
C2    C16   1.426069 S    
C12   C14   1.386821 A    
O3    C1    1.293739 A    
O8    Cu1   1.959905 S    
C1    C15   1.426069 S    
