data_mof_unit_21112.cif
_audit_creation_date              2012-12-10T17:24:13-0500
_audit_creation_method            fapswitch 2.2
_symmetry_space_group_name_H-M    P1
_symmetry_Int_Tables_number       1
_space_group_crystal_system       triclinic
_cell_length_a                    19.321835
_cell_length_b                    10.860153
_cell_length_c                    9.646091
_cell_angle_alpha                 91.439747
_cell_angle_beta                  89.506628
_cell_angle_gamma                 95.800493
_cell_volume                      2013.08019734

loop_
_atom_site_label
_atom_site_type_symbol
_atom_type_description
_atom_site_fract_x
_atom_site_fract_y
_atom_site_fract_z
_atom_type_partial_charge
C1    C     C_R   0.494449 0.262149 0.498520 0.822149
C2    C     C_R   0.291835 0.509271 0.502812 -0.249649
C3    C     C_R   0.929854 0.503697 0.496829 0.405155
C4    C     C_R   0.069542 0.501735 0.516124 0.436602
C5    C     C_R   0.820078 0.568784 0.592584 -0.175998
C6    C     C_R   0.747915 0.563749 0.596229 -0.226762
C7    C     C_R   0.707827 0.493079 0.497066 -0.216675
C8    C     C_R   0.741175 0.424853 0.393316 0.410270
C9    C     C_R   0.813965 0.434767 0.385687 0.427316
C10   C     C_R   0.853854 0.503997 0.489117 -0.133459
C11   C     C_R   0.398698 0.110009 0.689397 0.100481
C12   C     C_R   0.367901 0.504201 0.500603 0.891336
C13   C     C_R   0.378158 0.053276 0.815196 0.455307
C14   C     C_R   0.401443 0.940291 0.844755 -0.116247
C15   C     C_R   0.440269 0.879344 0.747924 -0.295009
C16   C     C_R   0.462383 0.934934 0.621167 0.059046
C17   C     C_R   0.449105 0.059348 0.602777 0.026408
C18   C     C_R   0.484696 0.126892 0.495145 -0.042214
C19   C     C_R   0.518599 0.065176 0.390399 -0.193326
C20   C     C_R   0.521128 0.938903 0.394871 -0.188448
C21   C     C_R   0.495090 0.872303 0.509793 -0.078366
C22   C     C_R   0.593061 0.686546 0.137793 0.472160
C23   C     C_R   0.498600 0.737798 0.502865 0.782301
C24   C     C_R   0.628511 0.779156 0.057125 -0.266226
C25   C     C_R   0.626310 0.772579 0.915948 -0.263057
C26   C     C_R   0.587357 0.675627 0.851503 -0.130358
C27   C     C_R   0.543398 0.587870 0.924818 0.112729
C28   C     C_R   0.544582 0.589985 0.074705 0.105793
C29   C     C_R   0.458411 0.415415 0.069594 0.460638
C30   C     C_R   0.459096 0.416532 0.923182 0.000241
C31   C     C_R   0.632080 0.497113 0.499274 0.819276
C32   C     C_R   0.260108 0.581516 0.605370 0.341995
C33   C     C_R   0.187544 0.573261 0.617548 0.447173
C34   C     C_R   0.145750 0.501642 0.519293 -0.181892
C35   C     C_R   0.177463 0.433324 0.416134 -0.276199
C36   C     C_R   0.250024 0.435579 0.407443 0.429449
Cu1   Cu    Cu3+1 0.500000 0.499990 0.640660 0.959862
Cu2   Cu    Cu3+1 0.500000 0.500010 0.359340 1.018222
H1    H     H_    0.385932 0.895610 0.940916 0.190965
H2    H     H_    0.452166 0.790143 0.779483 0.213030
H3    H     H_    0.546239 0.894076 0.309614 0.172223
H4    H     H_    0.662176 0.854168 0.104452 0.158362
H5    H     H_    0.657391 0.840716 0.855499 0.178058
H6    H     H_    0.594247 0.673910 0.742742 0.210415
H7    H     H_    0.425491 0.348286 0.865703 0.166792
H8    H     H_    0.145487 0.378663 0.340759 0.184804
H9    H     H_    0.849651 0.622127 0.672457 0.187091
H10   H     H_    0.723330 0.616421 0.676179 0.172988
H11   H     H_    0.544529 0.115160 0.305615 0.169967
N1    N     N_R   0.028751 0.397431 0.478367 -0.203177
N2    N     N_R   0.960147 0.398216 0.469708 -0.198433
N3    N     N_R   0.970553 0.607940 0.535210 -0.211203
N4    N     N_R   0.039209 0.607171 0.543744 -0.195464
N5    N     N_R   0.500660 0.501210 0.147910 -0.246619
N6    N     N_R   0.500680 0.501290 0.852040 -0.231946
O1    O     O_R   0.499990 0.319640 0.618810 -0.570630
O2    O     O_R   0.500000 0.319660 0.381240 -0.603019
O3    O     O_R   0.400140 0.499970 0.618820 -0.555380
O4    O     O_R   0.400150 0.500000 0.381250 -0.557697
O5    O     O_R   0.500000 0.680340 0.618760 -0.634949
O6    O     O_R   0.500010 0.680360 0.381190 -0.527798
O7    O     O_R   0.599850 0.500000 0.618750 -0.597672
O8    O     O_R   0.599860 0.500030 0.381180 -0.498888
O9    O     O_3   0.298167 0.661066 0.696582 -0.646821
H12   H     H_    0.342902 0.690030 0.651834 0.313787
Br1   Br    Br    0.338977 0.221868 0.613600 -0.488770
O10   O     O_3   0.333184 0.101855 0.908889 -0.662327
H13   H     H_    0.328538 0.189007 0.886644 0.361638
O11   O     O_3   0.413859 0.323981 0.127895 -0.697472
H14   H     H_    0.412290 0.338410 0.228199 0.406659
O12   O     O_3   0.610745 0.689788 0.274745 -0.696209
H15   H     H_    0.647104 0.758301 0.297870 0.294267
O13   O     O_3   0.159800 0.637110 0.726792 -0.635299
H16   H     H_    0.113744 0.594596 0.751245 0.331095
O14   O     O_3   0.280947 0.364460 0.308572 -0.668726
H17   H     H_    0.244432 0.317799 0.250995 0.350540
O15   O     O_3   0.704789 0.347639 0.297296 -0.667525
H18   H     H_    0.659412 0.316342 0.338126 0.310881
O16   O     O_3   0.843830 0.374868 0.275947 -0.657948
H19   H     H_    0.890269 0.418337 0.256369 0.330384

loop_
_geom_bond_atom_site_label_1
_geom_bond_atom_site_label_2
_ccdc_geom_bond_type
C16   C21   A    
C4    N4    A    
C24   H4    S    
O13   H16   S    
C30   H7    S    
C35   C36   A    
C2    C12   S    
C25   H5    S    
C20   H3    S    
C26   H6    S    
C7    C8    A    
O15   H18   S    
C5    H9    S    
C1    C18   S    
Cu1   Cu2   S    
C6    H10   S    
C1    O1    A    
C18   C19   A    
C5    C6    A    
C27   N6    A    
C29   N5    A    
C15   C16   A    
C2    C32   A    
C34   C35   A    
C9    O16   S    
C14   H1    S    
C12   O4    A    
C19   C20   A    
C8    C9    A    
C9    C10   A    
Cu1   O3    S    
C11   Br1   S    
Cu2   O6    S    
C12   O3    A    
C22   C28   A    
C13   C14   A    
Cu1   O1    S    
C31   O7    A    
C33   C34   A    
C29   O11   S    
C23   O5    A    
C4    C34   S    
C7    C31   S    
O10   H13   S    
C31   O8    A    
C24   C25   A    
C32   O9    S    
C28   N5    A    
C16   C17   A    
N1    N2    A    
C25   C26   A    
Cu2   O4    S    
C4    N1    A    
O14   H17   S    
C29   C30   A    
C36   O14   S    
C1    O2    A    
Cu2   O2    S    
C19   H11   S    
Cu2   N5    S    
C17   C18   A    
C26   C27   A    
C33   O13   S    
C21   C23   S    
C8    O15   S    
C22   C24   A    
C22   O12   S    
N3    N4    A    
Cu2   O8    S    
C13   O10   S    
C2    C36   A    
C11   C17   A    
C3    N2    A    
C3    N3    A    
C6    C7    A    
C30   N6    A    
C32   C33   A    
C5    C10   A    
C3    C10   S    
O9    H12   S    
C11   C13   A    
O11   H14   S    
C15   H2    S    
Cu1   O5    S    
O16   H19   S    
Cu1   N6    S    
C23   O6    A    
O12   H15   S    
C20   C21   A    
C27   C28   A    
Cu1   O7    S    
C14   C15   A    
C35   H8    S    
