data_mof_unit_38905.cif
_audit_creation_date              2013-03-05T16:12:45-0500
_audit_creation_method            fapswitch 2.2
_symmetry_space_group_name_H-M    P1
_symmetry_Int_Tables_number       1
_space_group_crystal_system       triclinic
_cell_length_a                    10.664655
_cell_length_b                    9.82402
_cell_length_c                    27.714954
_cell_angle_alpha                 90.493783
_cell_angle_beta                  90.649178
_cell_angle_gamma                 89.920126
_cell_volume                      2903.39310044

loop_
_atom_site_label
_atom_site_type_symbol
_atom_site_description
_atom_site_fract_x
_atom_site_fract_y
_atom_site_fract_z
_atom_type_partial_charge
O1    O     O_R   0.316770 0.614620 0.500000 -0.628917
O2    O     O_R   0.683230 0.385380 0.500000 -0.628908
O3    O     O_R   0.683230 0.614620 0.500000 -0.628472
O4    O     O_R   0.316770 0.385380 0.500000 -0.628498
C1    C     C_R   0.259918 0.500067 0.500044 0.858433
C2    C     C_R   0.740082 0.499933 0.499955 0.858410
O5    O     O_R   0.500030 0.614650 0.428760 -0.570311
O6    O     O_R   0.499970 0.385350 0.571240 -0.570252
O7    O     O_R   0.499970 0.614650 0.571240 -0.627708
O8    O     O_R   0.500030 0.385350 0.428760 -0.627687
C3    C     C_R   0.500221 0.499405 0.405986 0.898200
C4    C     C_R   0.499770 0.500592 0.594014 0.898254
Zn1   Zn    Zn3+2 0.500000 0.653120 0.500000 0.965943
Zn2   Zn    Zn3+2 0.500000 0.346880 0.500000 0.965951
C5    C     C_R   0.381149 0.487199 0.176995 0.575470
C6    C     C_R   0.618870 0.512488 0.822995 0.575215
O9    O     O_2   0.274015 0.499643 0.202096 -0.504493
O10   O     O_2   0.726002 0.500307 0.797882 -0.504755
N1    N     N_R   0.492797 0.478639 0.201386 -0.350701
N2    N     N_R   0.507211 0.521120 0.798616 -0.350643
C7    C     C_R   0.603826 0.463015 0.178117 0.512295
C8    C     C_R   0.396184 0.536591 0.821896 0.512306
C9    C     C_R   0.538249 0.602438 0.276234 -0.203574
C10   C     C_R   0.461918 0.397367 0.723754 -0.203824
C11   C     C_R   0.543283 0.608439 0.326524 0.499491
C12   C     C_R   0.456879 0.391417 0.673465 0.499571
C13   C     C_R   0.455317 0.379640 0.329152 -0.283457
C14   C     C_R   0.544469 0.620390 0.670864 -0.283532
C15   C     C_R   0.452602 0.374076 0.279130 -0.092989
C16   C     C_R   0.547193 0.625894 0.720888 -0.092943
C17   C     C_R   0.493787 0.485371 0.252741 0.237046
C18   C     C_R   0.506196 0.514487 0.747261 0.237194
C19   C     C_R   0.493408 0.477622 0.101460 -0.131998
C20   C     C_R   0.506619 0.521667 0.898542 -0.131878
C21   C     C_R   0.378475 0.484710 0.126179 -0.221875
C22   C     C_R   0.621547 0.514659 0.873815 -0.222082
C23   C     C_R   0.265048 0.484935 0.099652 0.460615
C24   C     C_R   0.734959 0.514199 0.900346 0.460333
C25   C     C_R   0.606260 0.461736 0.127816 0.025797
C26   C     C_R   0.393758 0.537652 0.872197 0.025660
C27   C     C_R   0.499455 0.496753 0.353268 -0.161746
C28   C     C_R   0.500519 0.503216 0.646733 -0.161764
H1    H     H_    0.421783 0.292641 0.348980 0.183067
H2    H     H_    0.577861 0.707475 0.651048 0.183106
H3    H     H_    0.418690 0.283350 0.260777 0.155115
H4    H     H_    0.580970 0.716660 0.739253 0.155057
C29   C     C_R   0.386786 0.517956 0.973512 0.124028
C30   C     C_R   0.613248 0.481107 0.026490 0.124141
C31   C     C_R   0.617949 0.502503 0.975963 -0.161174
C32   C     C_R   0.382093 0.496538 0.024035 -0.160985
C33   C     C_R   0.503904 0.512891 0.949508 0.013726
C34   C     C_R   0.496131 0.486231 0.050492 0.013818
C35   C     C_R   0.278854 0.552999 0.946306 -0.179529
C36   C     C_R   0.721158 0.446078 0.053712 -0.179853
C37   C     C_R   0.281470 0.558081 0.896482 -0.188036
C38   C     C_R   0.718541 0.441172 0.103540 -0.188181
O11   O     O_2   0.288544 0.550455 0.796260 -0.561213
O12   O     O_2   0.711457 0.449200 0.203763 -0.561260
C39   C     C_R   0.267531 0.477352 0.049142 0.365824
C40   C     C_R   0.732511 0.521625 0.950855 0.366272
H5    H     H_    0.430343 0.311432 0.744602 0.154980
H6    H     H_    0.569977 0.688280 0.255375 0.155100
H7    H     H_    0.195036 0.579985 0.877109 0.203658
H8    H     H_    0.804966 0.419311 0.122925 0.203591
H9    H     H_    0.191448 0.581752 0.962620 0.216817
H10   H     H_    0.808550 0.417215 0.037413 0.216836
C41   C     C_R   0.064808 0.384996 0.516377 -0.203710
C42   C     C_R   0.935191 0.615003 0.483620 -0.203762
C43   C     C_R   0.936472 0.384821 0.516247 -0.184779
C44   C     C_R   0.063528 0.615178 0.483750 -0.184796
H11   H     H_    0.114655 0.296282 0.529541 0.152817
H12   H     H_    0.885344 0.703717 0.470456 0.152827
H13   H     H_    0.887646 0.295987 0.529316 0.151192
H14   H     H_    0.112354 0.704012 0.470681 0.151190
C45   C     C_R   0.872441 0.499854 0.499899 -0.005236
C46   C     C_R   0.127559 0.500145 0.500099 -0.005221
C47   C     C_R   0.576398 0.072645 0.530911 -0.038298
C48   C     C_R   0.423602 0.927355 0.469089 -0.038341
C49   C     C_R   0.423600 0.071379 0.469090 -0.075174
C50   C     C_R   0.576400 0.928620 0.530910 -0.075188
H15   H     H_    0.637429 0.127855 0.555595 0.133907
H16   H     H_    0.362569 0.872145 0.444406 0.133865
H17   H     H_    0.362590 0.125586 0.444402 0.128710
H18   H     H_    0.637409 0.874414 0.555598 0.128722
N3    N     N_R   0.500000 0.857200 0.500000 -0.083627
N4    N     N_R   0.500000 0.142800 0.500000 -0.083634
O13   O     O_3   0.151221 0.473317 0.122835 -0.542476
C51   C     C_3   0.087635 0.599163 0.120229 -0.175452
H19   H     H_    0.057485 0.622153 0.082628 0.164412
H20   H     H_    0.145945 0.683879 0.135213 0.142102
H21   H     H_    0.001784 0.592982 0.142341 0.193701
O14   O     O_3   0.848828 0.525686 0.877197 -0.542387
C52   C     C_3   0.911835 0.399450 0.879536 -0.175264
H22   H     H_    0.853697 0.315684 0.863805 0.143483
H23   H     H_    0.940443 0.374738 0.917158 0.162872
H24   H     H_    0.998552 0.406163 0.857961 0.193491
O15   O     O_3   0.413368 0.274453 0.650874 -0.596921
C53   C     C_3   0.282188 0.285401 0.645210 -0.264921
H25   H     H_    0.255828 0.374731 0.622766 0.147326
H26   H     H_    0.234999 0.291077 0.680798 0.169896
H27   H     H_    0.247294 0.192927 0.626168 0.189206
O16   O     O_3   0.586997 0.725337 0.349099 -0.596888
C54   C     C_3   0.718131 0.714010 0.354841 -0.264892
H28   H     H_    0.765444 0.707897 0.319287 0.169930
H29   H     H_    0.744156 0.624772 0.377381 0.147303
H30   H     H_    0.753201 0.806514 0.373816 0.189222
O17   O     O_3   0.156723 0.443773 0.025527 -0.603580
C55   C     C_3   0.155834 0.302300 0.016545 -0.261162
H31   H     H_    0.161276 0.243971 0.050772 0.173812
H32   H     H_    0.233214 0.271527 0.992129 0.154253
H33   H     H_    0.066071 0.275342 0.998264 0.180092
O18   O     O_3   0.843402 0.554915 0.974464 -0.603273
C56   C     C_3   0.844575 0.696378 0.983462 -0.261501
H34   H     H_    0.767264 0.727311 0.007885 0.154188
H35   H     H_    0.839240 0.754756 0.949242 0.173983
H36   H     H_    0.934397 0.723111 0.001739 0.179902

loop_
_geom_bond_atom_site_label_1
_geom_bond_atom_site_label_2
_geom_bond_distance
_ccdc_geom_bond_type
C16   C18   1.394851 A    
O13   C51   1.411252 S    
C52   H22   1.113922 S    
C13   C15   1.386959 A    
C50   H18   1.081823 S    
O3    C2    1.278721 A    
N1    C17   1.424174 S    
C8    O11   1.350522 S    
O15   C53   1.410058 S    
C2    C45   1.411582 S    
C42   C45   1.395993 A    
C30   C36   1.412693 A    
C20   C33   1.416519 A    
C19   C25   1.409938 A    
C31   C40   1.426331 A    
O1    C1    1.279067 A    
C32   C39   1.426399 A    
N1    C7    1.362572 A    
C10   C12   1.394906 A    
C30   C34   1.422365 A    
C11   O16   1.382084 S    
C24   O14   1.385049 S    
C55   H31   1.113381 S    
C14   C28   1.404688 A    
O7    Zn1   2.013456 S    
C4    C28   1.461053 S    
C5    N1    1.365375 A    
C9    H6    1.083289 S    
C13   C27   1.404674 A    
C31   C33   1.417044 A    
C37   H7    1.083733 S    
C44   H14   1.083949 S    
C32   C34   1.416945 A    
O17   C55   1.409863 S    
C38   H8    1.083738 S    
C43   H13   1.083947 S    
C35   H9    1.076917 S    
C41   H11   1.084005 S    
O3    Zn1   1.989834 S    
C6    N2    1.365359 A    
C29   C35   1.412677 A    
C56   H36   1.109334 S    
C52   H23   1.111836 S    
O2    C2    1.279064 A    
C5    C21   1.408350 A    
O18   C56   1.409862 S    
C16   H4    1.082977 S    
C29   C32   1.419208 A    
C35   C37   1.382826 A    
C36   C38   1.382849 A    
Zn2   N4    2.004886 S    
O8    Zn2   2.013461 S    
C11   C27   1.412449 A    
C48   C49   1.414902 A    
C29   C33   1.422399 A    
C14   H2    1.083394 S    
C39   O17   1.383292 S    
C15   H3    1.082983 S    
C42   H12   1.084003 S    
C19   C34   1.416467 A    
C9    C17   1.397525 A    
O5    C3    1.291466 A    
C10   C18   1.397469 A    
C50   N3    1.365813 A    
C40   O18   1.383302 S    
C48   H16   1.081814 S    
C25   C38   1.393759 A    
C7    C25   1.394576 A    
C51   H21   1.109515 S    
C47   H15   1.081815 S    
O6    C4    1.291444 A    
C26   C37   1.393762 A    
C8    C26   1.394580 A    
C54   H29   1.113860 S    
C23   C39   1.401759 A    
C10   H5    1.083325 S    
C24   C40   1.401655 A    
C48   N3    1.365857 A    
C6    O10   1.349203 S    
C30   C31   1.419289 A    
C51   H20   1.114210 S    
C47   N4    1.365855 A    
C52   H24   1.109292 S    
C53   H26   1.113297 S    
C44   C46   1.395843 A    
C20   C26   1.409968 A    
O1    Zn1   1.990870 S    
C12   C28   1.412460 A    
C56   H34   1.112968 S    
N2    C18   1.424170 S    
C47   C50   1.414902 A    
C5    O9    1.349245 S    
O6    Zn2   2.007058 S    
C21   C23   1.408430 A    
C23   O13   1.385204 S    
N2    C8    1.362527 A    
O4    C1    1.278720 A    
C36   H10   1.076888 S    
C53   H27   1.109299 S    
C55   H33   1.109350 S    
C1    C46   1.411582 S    
C22   C24   1.408354 A    
C7    O12   1.350523 S    
C15   C17   1.394870 A    
C6    C22   1.408415 A    
C49   H17   1.081823 S    
C14   C16   1.386992 A    
O14   C52   1.411295 S    
C19   C21   1.412271 A    
C55   H32   1.112980 S    
C43   C45   1.395844 A    
C54   H30   1.109310 S    
C20   C22   1.412298 A    
C9    C11   1.394938 A    
O4    Zn2   1.989834 S    
O16   C54   1.410079 S    
O2    Zn2   1.990870 S    
O7    C4    1.290799 A    
O8    C3    1.290767 A    
C12   O15   1.382087 S    
C13   H1    1.083393 S    
O5    Zn1   2.007063 S    
C51   H19   1.112046 S    
C42   C44   1.368629 A    
C53   H25   1.113938 S    
C3    C27   1.461026 S    
Zn1   N3    2.004886 S    
C54   H28   1.113242 S    
C41   C46   1.395992 A    
C41   C43   1.368628 A    
C49   N4    1.365817 A    
C56   H35   1.113401 S    
