data_mof_unit_22682.cif
_audit_creation_date              2012-12-10T16:59:16-0500
_audit_creation_method            fapswitch 2.2
_symmetry_space_group_name_H-M    P1
_symmetry_Int_Tables_number       1
_space_group_crystal_system       triclinic
_cell_length_a                    7.765403
_cell_length_b                    8.545143
_cell_length_c                    27.728782
_cell_angle_alpha                 91.62698
_cell_angle_beta                  85.487127
_cell_angle_gamma                 93.504028
_cell_volume                      1830.33632512

loop_
_atom_site_label
_atom_site_type_symbol
_atom_type_description
_atom_site_fract_x
_atom_site_fract_y
_atom_site_fract_z
_atom_type_partial_charge
C1    C     C_R   0.545657 0.794711 0.498771 0.954372
C2    C     C_R   0.454343 0.205289 0.501229 0.954374
C3    C     C_R   0.526897 0.497657 0.897779 -0.048935
C4    C     C_R   0.473110 0.502355 0.102221 -0.048935
C5    C     C_R   0.571279 0.637309 0.872732 -0.031148
C6    C     C_R   0.428728 0.362703 0.127268 -0.031147
C7    C     C_R   0.607039 0.776388 0.898429 -0.138056
C8    C     C_R   0.392969 0.223624 0.101571 -0.138056
C9    C     C_R   0.493693 0.357243 0.871372 -0.038699
C10   C     C_R   0.506314 0.642769 0.128628 -0.038700
C11   C     C_R   0.508528 0.503372 0.646781 -0.093025
C12   C     C_R   0.491473 0.496632 0.353219 -0.093021
C13   C     C_R   0.532076 0.643325 0.026339 0.047262
C14   C     C_R   0.467933 0.356688 0.973661 0.047261
C15   C     C_R   0.452455 0.358223 0.024956 0.047190
C16   C     C_R   0.547553 0.641788 0.975044 0.047190
C17   C     C_R   0.485669 0.501345 0.050934 0.076908
C18   C     C_R   0.514339 0.498667 0.949066 0.076909
C19   C     C_R   0.560805 0.782668 0.054203 -0.221906
C20   C     C_R   0.439202 0.217344 0.945797 -0.221906
C21   C     C_R   0.548449 0.781914 0.104278 -0.133151
C22   C     C_R   0.451559 0.218098 0.895722 -0.133151
C23   C     C_R   0.502062 0.501643 0.594010 0.889994
C24   C     C_R   0.497938 0.498358 0.405990 0.889996
C25   C     C_R   0.596170 0.778877 0.948520 -0.223561
C26   C     C_R   0.403838 0.221135 0.051480 -0.223561
C27   C     C_2   0.569917 0.958076 0.498006 -0.366970
C28   C     C_2   0.430083 0.041924 0.501994 -0.366971
C29   C     C_R   0.576894 0.634735 0.822209 0.538225
C30   C     C_R   0.423112 0.365277 0.177791 0.538221
C31   C     C_R   0.500914 0.359924 0.820875 0.575081
C32   C     C_R   0.499093 0.640088 0.179125 0.575085
C33   C     C_R   0.671111 0.452823 0.715881 0.515212
C34   C     C_R   0.328896 0.547193 0.284119 0.515211
C35   C     C_R   0.658535 0.454490 0.665883 -0.359110
C36   C     C_R   0.341470 0.545522 0.334117 -0.359115
C37   C     C_R   0.369278 0.553104 0.678383 0.092214
C38   C     C_R   0.630722 0.446896 0.321617 0.092210
C39   C     C_R   0.382707 0.549870 0.728241 -0.226896
C40   C     C_R   0.617295 0.450135 0.271760 -0.226897
C41   C     C_R   0.531841 0.500284 0.746643 0.260172
C42   C     C_R   0.468165 0.499727 0.253357 0.260172
H1    H     H_    0.277530 0.586821 0.753151 0.169638
H2    H     H_    0.722471 0.413179 0.246849 0.169638
H3    H     H_    0.643361 0.884805 0.879894 0.193815
H4    H     H_    0.356646 0.115207 0.120106 0.193815
H5    H     H_    0.234130 0.583538 0.358030 0.187485
H6    H     H_    0.765877 0.416477 0.641970 0.187488
H7    H     H_    0.573483 0.891443 0.123870 0.194237
H8    H     H_    0.426524 0.108569 0.876130 0.194237
H9    H     H_    0.593630 0.895575 0.038773 0.140138
H10   H     H_    0.406378 0.104438 0.961227 0.140138
H11   H     H_    0.627457 0.891264 0.965043 0.141346
H12   H     H_    0.372551 0.108748 0.034957 0.141345
H13   H     H_    0.702116 0.008781 0.494150 0.190676
H14   H     H_    0.297884 0.991219 0.505850 0.190676
N1    N     N_R   0.539891 0.497720 0.797680 -0.334071
N2    N     N_R   0.460115 0.502292 0.202320 -0.334071
N3    N     N_2   0.950320 0.457960 0.486880 0.177646
N4    N     N_2   0.049680 0.542040 0.513120 0.177646
O1    O     O_R   0.389250 0.738570 0.503220 -0.638992
O2    O     O_R   0.610750 0.261430 0.496780 -0.638992
O3    O     O_R   0.678390 0.711630 0.494810 -0.577866
O4    O     O_R   0.321610 0.288370 0.505190 -0.577866
O5    O     O_R   0.355440 0.513440 0.575450 -0.620231
O6    O     O_R   0.644560 0.486560 0.424550 -0.620227
O7    O     O_R   0.644590 0.486500 0.567040 -0.582946
O8    O     O_R   0.355410 0.513500 0.432960 -0.582947
O9    O     O_2   0.617315 0.767917 0.797679 -0.528189
O10   O     O_2   0.382690 0.232095 0.202321 -0.528190
O11   O     O_2   0.533138 0.773238 0.204928 -0.519937
O12   O     O_2   0.466869 0.226774 0.795072 -0.519937
Zn1   Zn    Zn3+2 0.306940 0.517990 0.505620 1.044392
Zn2   Zn    Zn3+2 0.693060 0.482010 0.494380 1.044393
N5    N     N_3   0.216735 0.609069 0.660055 -0.419681
H15   H     H_    0.121388 0.626561 0.688154 0.204754
H16   H     H_    0.250915 0.719103 0.645424 0.193327
N6    N     N_3   0.783260 0.390924 0.339946 -0.419681
H17   H     H_    0.878613 0.373445 0.311848 0.204756
H18   H     H_    0.749079 0.280883 0.354571 0.193328
O13   O     O_3   0.030760 0.357758 0.456137 -0.657653
H19   H     H_    0.936690 0.302524 0.439054 0.334565
O14   O     O_3   0.969240 0.642242 0.543863 -0.657654
H20   H     H_    0.063310 0.697476 0.560946 0.334563
O15   O     O_3   0.183279 0.594369 0.264365 -0.745003
H21   H     H_    0.097404 0.624062 0.290906 0.337377
O16   O     O_3   0.816732 0.405655 0.735635 -0.745006
H22   H     H_    0.902610 0.375968 0.709094 0.337378

loop_
_geom_bond_atom_site_label_1
_geom_bond_atom_site_label_2
_ccdc_geom_bond_type
O16   H22   S    
C8    C26   A    
C14   C18   A    
C34   C42   A    
C32   N2    A    
C42   N2    S    
C21   H7    S    
O13   H19   S    
C28   H14   S    
C39   C41   A    
O15   H21   S    
C3    C18   A    
C7    H3    S    
C19   C21   A    
C25   H11   S    
N4    O14   S    
N6    H18   S    
C9    C22   A    
O6    Zn2   S    
C26   H12   S    
N4    Zn1   S    
O5    Zn1   S    
C36   H5    S    
C23   O7    A    
C11   C37   A    
O4    Zn1   S    
C12   C36   A    
C5    C29   A    
C24   O6    A    
C22   H8    S    
C40   C42   A    
C37   N5    S    
N3    N4    D    
C35   H6    S    
C1    O3    A    
C30   O10   S    
C2    O4    A    
C32   O11   S    
C29   O9    S    
C10   C21   A    
C13   C19   A    
C14   C20   A    
C4    C6    A    
C5    C7    A    
C9    C31   A    
N6    H17   S    
C15   C26   A    
C39   H1    S    
C38   N6    S    
O1    Zn1   S    
O8    Zn1   S    
C34   O15   S    
N5    H15   S    
C3    C9    A    
C19   H9    S    
O14   H20   S    
O7    Zn2   S    
N5    H16   S    
N3    Zn2   S    
C4    C17   A    
C16   C18   A    
C31   O12   S    
C6    C30   A    
C20   C22   A    
C4    C10   A    
C16   C25   A    
C15   C17   A    
N3    O13   S    
C29   N1    A    
C3    C5    A    
C1    O1    A    
C6    C8    A    
O3    Zn2   S    
C12   C24   S    
C7    C25   A    
C13   C17   A    
C33   C41   A    
C23   O5    A    
C11   C35   A    
C33   O16   S    
C41   N1    S    
C20   H10   S    
C38   C40   A    
C31   N1    A    
C30   N2    A    
C11   C23   S    
C33   C35   A    
C34   C36   A    
C27   H13   S    
C12   C38   A    
C8    H4    S    
C24   O8    A    
C10   C32   A    
C40   H2    S    
C37   C39   A    
C13   C16   A    
C27   C28   D    
C1    C27   S    
C14   C15   A    
O2    Zn2   S    
C2    C28   S    
C2    O2    A    
