data_mof_unit_29616.cif
_audit_creation_date              2012-10-26T19:16:00-0400
_audit_creation_method            fapswitch 2.2
_symmetry_space_group_name_H-M    P1
_symmetry_Int_Tables_number       1
_space_group_crystal_system       triclinic
_cell_length_a                    7.770905
_cell_length_b                    9.091671
_cell_length_c                    17.158022
_cell_angle_alpha                 89.569724
_cell_angle_beta                  93.22416
_cell_angle_gamma                 90.002318
_cell_volume                      1210.27003341

loop_
_atom_site_label
_atom_site_type_symbol
_atom_type_description
_atom_site_fract_x
_atom_site_fract_y
_atom_site_fract_z
_atom_type_partial_charge
C1    C     C_R   0.499980 0.219968 0.500010 0.554040
C2    C     C_R   0.609572 0.528861 0.139878 -0.064966
C3    C     C_R   0.551144 0.507957 0.900998 0.179777
C4    C     C_R   0.448748 0.510983 0.098980 0.179783
C5    C     C_R   0.699536 0.492237 0.859614 -0.136853
C6    C     C_R   0.300278 0.496251 0.140504 -0.136799
C7    C     C_R   0.688644 0.490547 0.778401 -0.207318
C8    C     C_R   0.311157 0.495142 0.221721 -0.207213
C9    C     C_1   0.499992 0.065347 0.500010 -0.055366
C10   C     C_1   0.500008 0.934619 0.500006 -0.063512
C11   C     C_3   0.811636 0.698490 0.278139 0.030013
C12   C     C_R   0.500021 0.780021 0.499999 0.534086
C13   C     C_3   0.904308 0.778622 0.213723 -0.290339
C14   C     C_3   0.959584 0.932858 0.239139 -0.465850
C15   C     C_3   0.188204 0.694855 0.720395 0.030366
C16   C     C_3   0.094639 0.774616 0.784039 -0.290440
C17   C     C_3   0.039062 0.928824 0.757408 -0.465787
C18   C     C_R   0.519830 0.501026 0.651300 0.549914
C19   C     C_R   0.480154 0.504500 0.348693 0.549953
C20   C     C_R   0.528551 0.506956 0.737043 0.000352
C21   C     C_R   0.471321 0.511218 0.262917 0.000196
C22   C     C_R   0.378470 0.529338 0.778663 0.236098
C23   C     C_R   0.621411 0.533216 0.221088 0.236169
C24   C     C_R   0.390309 0.525546 0.859905 -0.064990
Cu1   Cu    Cu3+1 0.669080 0.500010 0.500000 1.019698
Cu2   Cu    Cu3+1 0.330920 0.499990 0.500000 1.019461
H1    H     H_    0.726920 0.540845 0.109252 0.141605
H2    H     H_    0.817083 0.787784 0.160379 0.156098
H3    H     H_    0.845409 0.999068 0.253222 0.160857
H4    H     H_    0.024743 0.988473 0.191068 0.158384
H5    H     H_    0.051034 0.926925 0.291221 0.156025
H6    H     H_    0.104320 0.696709 0.665754 0.176093
H7    H     H_    0.308310 0.755387 0.707048 0.115979
H8    H     H_    0.978806 0.710774 0.798722 0.174786
H9    H     H_    0.181358 0.783797 0.837469 0.156062
H10   H     H_    0.153163 0.995277 0.743040 0.160895
H11   H     H_    0.973306 0.984191 0.804951 0.158371
H12   H     H_    0.272934 0.537890 0.890382 0.141670
H13   H     H_    0.948046 0.922864 0.705223 0.156146
H14   H     H_    0.824097 0.479507 0.890570 0.133641
H15   H     H_    0.175707 0.483488 0.109673 0.133608
H16   H     H_    0.805750 0.475228 0.748034 0.170261
H17   H     H_    0.194023 0.480201 0.252225 0.170448
H18   H     H_    0.896091 0.700173 0.332593 0.175690
H19   H     H_    0.691580 0.758833 0.291353 0.116027
H20   H     H_    0.020193 0.715040 0.199274 0.174581
N1    N     N_1   0.076820 0.499970 0.500010 -0.083086
N2    N     N_1   0.923180 0.500030 0.499990 -0.082983
N3    N     N_2   0.569578 0.507378 0.983621 -0.251567
N4    N     N_2   0.430380 0.509033 0.016385 -0.251971
O1    O     O_R   0.642760 0.288400 0.500000 -0.492897
O2    O     O_3   0.217054 0.545350 0.741135 -0.561723
O3    O     O_R   0.357240 0.711600 0.500000 -0.511490
O4    O     O_R   0.357190 0.288380 0.500000 -0.492956
O5    O     O_R   0.642810 0.711620 0.500000 -0.511260
O6    O     O_R   0.658410 0.498660 0.613920 -0.515469
O7    O     O_R   0.341590 0.501340 0.386080 -0.515441
O8    O     O_R   0.372840 0.498650 0.613930 -0.462701
O9    O     O_R   0.627160 0.501350 0.386070 -0.462499
O10   O     O_3   0.782856 0.549063 0.258464 -0.561656

loop_
_geom_bond_atom_site_label_1
_geom_bond_atom_site_label_2
_ccdc_geom_bond_type
C24   H12   S    
C1    O4    A    
C8    H17   S    
C13   H2    S    
C2    H1    S    
C17   H10   S    
C1    O1    A    
C9    C10   T    
C2    C4    A    
N1    N2    T    
Cu1   O6    S    
C18   O6    A    
C14   H5    S    
C16   H8    S    
Cu1   O1    S    
C8    C21   A    
C3    N3    S    
C15   H6    S    
C7    H16   S    
C17   H11   S    
C13   C14   S    
C19   O7    A    
C11   C13   S    
Cu1   N2    S    
C3    C24   A    
C13   H20   S    
C10   C12   S    
Cu2   N1    S    
C14   H4    S    
Cu2   O4    S    
C4    C6    A    
C19   C21   S    
C20   C22   A    
N3    N4    D    
C18   C20   S    
C21   C23   A    
C16   H9    S    
C23   O10   S    
Cu2   O7    S    
C22   C24   A    
C11   H19   S    
C12   O5    A    
C11   O10   S    
C14   H3    S    
C15   C16   S    
Cu2   O3    S    
Cu1   O5    S    
C11   H18   S    
C1    C9    S    
C22   O2    S    
C7    C20   A    
C17   H13   S    
C5    H14   S    
C4    N4    S    
C2    C23   A    
C5    C7    A    
C16   C17   S    
C6    C8    A    
Cu1   O9    S    
C19   O9    A    
Cu1   Cu2   S    
C15   O2    S    
Cu2   O8    S    
C12   O3    A    
C15   H7    S    
C18   O8    A    
C3    C5    A    
C6    H15   S    
