data_mof_unit_43532.cif
_audit_creation_date              2012-12-10T18:56:30-0500
_audit_creation_method            fapswitch 2.2
_symmetry_space_group_name_H-M    P1
_symmetry_Int_Tables_number       1
_space_group_crystal_system       triclinic
_cell_length_a                    10.675507
_cell_length_b                    10.037002
_cell_length_c                    19.06195
_cell_angle_alpha                 90.0179
_cell_angle_beta                  89.319858
_cell_angle_gamma                 87.209399
_cell_volume                      2039.92290702

loop_
_atom_site_label
_atom_site_type_symbol
_atom_type_description
_atom_site_fract_x
_atom_site_fract_y
_atom_site_fract_z
_atom_type_partial_charge
C1    C     C_R   0.876758 0.487930 0.485730 -0.380650
C2    C     C_R   0.740557 0.496224 0.493698 1.082914
C3    C     C_R   0.505533 0.499306 0.364902 1.033865
C4    C     C_R   0.501942 0.500774 0.634849 1.075085
C5    C     C_R   0.066635 0.391046 0.535679 0.311775
C6    C     C_R   0.936036 0.607677 0.472237 0.295019
C7    C     C_R   0.947038 0.373579 0.509474 0.299983
C8    C     C_R   0.054024 0.625217 0.499994 0.288994
C9    C     C_R   0.424854 0.578975 0.755531 0.297277
C10   C     C_R   0.440529 0.586707 0.246265 0.277794
C11   C     C_R   0.559800 0.372962 0.254470 0.263201
C12   C     C_R   0.125195 0.510326 0.520177 -0.403384
C13   C     C_R   0.614526 0.432968 0.743998 0.200103
C14   C     C_R   0.442072 0.577784 0.828756 0.290354
C15   C     C_R   0.387486 0.543739 0.183465 0.303754
C16   C     C_R   0.515672 0.335484 0.188192 0.257965
C17   C     C_R   0.603698 0.398052 0.815151 0.306966
C18   C     C_R   0.517176 0.472794 0.857527 -0.304748
C19   C     C_R   0.436235 0.425836 0.151377 -0.272236
C20   C     C_R   0.550458 0.067049 0.554170 -0.110466
C21   C     C_R   0.428132 0.933790 0.453122 -0.061733
C22   C     C_R   0.441948 0.075033 0.448012 -0.011367
C23   C     C_R   0.591914 0.487303 0.978976 0.009392
C24   C     C_R   0.561730 0.924724 0.550236 -0.039353
C25   C     C_R   0.511844 0.503063 0.712255 -0.381331
C26   C     C_R   0.510390 0.492379 0.286883 -0.360114
C27   C     C_2   0.574134 0.126666 0.622730 1.022022
C28   C     C_2   0.319236 0.880132 0.414984 1.050897
C29   C     C_2   0.385887 0.147394 0.387333 1.032361
C30   C     C_2   0.630488 0.850108 0.605335 1.009949
C31   C     C_R   0.371011 0.377057 0.028520 0.025876
C32   C     C_R   0.566887 0.482808 0.050355 -0.085460
C33   C     C_R   0.393992 0.385965 0.956694 -0.076870
C34   C     C_R   0.455657 0.429592 0.075298 0.179710
C35   C     C_R   0.503346 0.443456 0.932087 0.203942
C36   C     C_R   0.259908 0.503338 0.506809 1.036477
H1    H     H_    0.676082 0.532398 0.960106 0.178893
H2    H     H_    0.814005 0.656049 0.307712 0.399917
H3    H     H_    0.840147 0.039449 0.542341 0.404108
H4    H     H_    0.216626 0.892257 0.592456 0.407876
H5    H     H_    0.150638 0.573030 0.662037 0.408226
H6    H     H_    0.584816 0.891548 0.310697 0.422923
H7    H     H_    0.859974 0.372895 0.336360 0.396883
H8    H     H_    0.815801 0.634572 0.731172 0.374952
H9    H     H_    0.305583 0.911624 0.875614 0.404997
H10   H     H_    0.110417 0.772279 0.178075 0.404233
H11   H     H_    0.678225 0.012034 0.183340 0.413075
H12   H     H_    0.287054 0.331862 0.047515 0.194002
H13   H     H_    0.797662 0.085743 0.809823 0.408996
H14   H     H_    0.633842 0.521428 0.086518 0.171036
H15   H     H_    0.325618 0.351405 0.920206 0.175589
H16   H     H_    0.499113 0.187738 0.715640 0.368167
H17   H     H_    0.155305 0.923984 0.366421 0.413597
H18   H     H_    0.368936 0.156863 0.282227 0.365667
H19   H     H_    0.638949 0.799339 0.707800 0.360540
H20   H     H_    0.273537 0.109703 0.571599 0.364744
N1    N     N_R   0.500000 0.857200 0.500000 -0.128622
N2    N     N_R   0.500000 0.142800 0.500000 -0.151507
O1    O     O_R   0.316770 0.614620 0.500000 -0.544247
O2    O     O_R   0.472329 0.160084 0.667165 -0.724258
O3    O     O_2   0.318286 0.765394 0.395483 -0.544720
O4    O     O_R   0.215069 0.964619 0.400169 -0.707719
O5    O     O_2   0.301285 0.232047 0.396105 -0.554316
O6    O     O_R   0.418540 0.105786 0.319388 -0.739198
O7    O     O_2   0.734103 0.799062 0.592400 -0.512802
O8    O     O_R   0.581141 0.847790 0.673528 -0.735567
O9    O     O_2   0.241828 0.327214 0.634447 -0.284088
O10   O     O_2   0.041064 0.225756 0.646315 -0.114797
O11   O     O_3   0.194162 0.137486 0.548326 -0.462077
O12   O     O_R   0.683230 0.385380 0.500000 -0.564904
O13   O     O_2   0.803674 0.838615 0.445020 -0.192298
O14   O     O_2   0.979841 0.776442 0.366542 -0.275595
O15   O     O_3   0.776050 0.650030 0.355208 -0.499062
O16   O     O_2   0.798182 0.198161 0.440958 -0.225643
O17   O     O_2   0.021229 0.149107 0.444375 -0.151541
O18   O     O_3   0.890828 0.113821 0.557789 -0.385496
O19   O     O_2   0.033488 0.894303 0.494837 -0.157347
O20   O     O_2   0.996208 0.787215 0.606978 -0.199129
O21   O     O_3   0.223584 0.808800 0.564884 -0.491706
O22   O     O_2   0.187342 0.683206 0.773248 -0.203450
O23   O     O_R   0.683230 0.614620 0.500000 -0.562028
O24   O     O_2   0.330169 0.805253 0.698777 -0.173315
O25   O     O_3   0.239331 0.589543 0.650649 -0.534355
O26   O     O_2   0.537165 0.792170 0.181530 -0.231014
O27   O     O_2   0.356712 0.844904 0.257689 -0.188118
O28   O     O_3   0.572872 0.794723 0.314716 -0.480964
O29   O     O_2   0.664492 0.167312 0.327155 -0.183665
O30   O     O_2   0.788018 0.254249 0.229943 -0.231844
O31   O     O_3   0.768887 0.392317 0.343727 -0.545482
O32   O     O_2   0.868648 0.379509 0.749221 -0.152993
O33   O     O_2   0.768782 0.360646 0.635615 -0.236278
O34   O     O_R   0.316770 0.385380 0.500000 -0.566247
O35   O     O_3   0.796229 0.594734 0.685284 -0.534776
O36   O     O_2   0.252830 0.662148 0.915020 -0.212807
O37   O     O_2   0.461608 0.733108 0.944319 -0.253309
O38   O     O_3   0.349598 0.850787 0.841493 -0.429389
O39   O     O_2   0.320837 0.748018 0.098181 -0.158647
O40   O     O_2   0.187970 0.556055 0.097033 -0.275177
O41   O     O_3   0.169907 0.712625 0.204233 -0.476702
O42   O     O_2   0.453482 0.130528 0.106016 -0.220614
O43   O     O_2   0.668689 0.201473 0.097056 -0.234612
O44   O     O_3   0.604694 0.060942 0.204919 -0.419087
O45   O     O_R   0.500030 0.614710 0.398180 -0.515936
O46   O     O_2   0.800521 0.307723 0.890533 -0.232018
O47   O     O_2   0.610537 0.181400 0.898939 -0.248413
O48   O     O_3   0.745375 0.155710 0.785883 -0.435422
O49   O     O_R   0.499970 0.385290 0.601820 -0.601824
O50   O     O_R   0.499970 0.614710 0.601820 -0.592615
O51   O     O_R   0.500030 0.385290 0.398180 -0.620795
O52   O     O_2   0.680805 0.126528 0.644804 -0.505255
S1    S     S_3+6 0.136939 0.270197 0.594194 0.164957
S2    S     S_3+6 0.265254 0.641575 0.142533 0.131048
S3    S     S_3+6 0.561408 0.179817 0.146952 0.142175
S4    S     S_3+6 0.691704 0.258618 0.850237 0.108245
S5    S     S_3+6 0.874093 0.723894 0.409350 0.128197
S6    S     S_3+6 0.911354 0.207055 0.485849 0.174562
S7    S     S_3+6 0.076196 0.781919 0.541575 0.148607
S8    S     S_3+6 0.292682 0.668915 0.720283 0.149961
S9    S     S_3+6 0.474913 0.758688 0.249974 0.141796
S10   S     S_3+6 0.697584 0.291318 0.288641 0.129875
S11   S     S_3+6 0.765758 0.435935 0.703307 0.100406
S12   S     S_3+6 0.374825 0.706462 0.885024 0.129457
Zn1   Zn    Zn3+2 0.500000 0.653120 0.500000 1.139474
Zn2   Zn    Zn3+2 0.500000 0.346880 0.500000 1.108646

loop_
_geom_bond_atom_site_label_1
_geom_bond_atom_site_label_2
_ccdc_geom_bond_type
H10   O41   S    
C29   O5    D    
C14   S12   S    
C22   C29   S    
O43   S3    D    
C14   C18   A    
C36   O1    A    
O45   Zn1   S    
C16   S3    S    
C4    C25   S    
C9    C25   A    
C15   C19   A    
C4    O50   A    
O14   S5    D    
H7    O31   S    
O23   Zn1   S    
O25   S8    S    
O35   S11   S    
O19   S7    D    
C27   O2    S    
O34   Zn2   S    
H5    O25   S    
C1    C2    S    
C11   C16   A    
O27   S9    D    
H8    O35   S    
H16   O2    S    
C33   C35   A    
C20   C24   A    
C27   O52   D    
C24   N1    A    
C17   S4    S    
C31   C33   A    
O28   S9    S    
H6    O28   S    
C12   C36   S    
C18   C35   S    
C28   O3    D    
C36   O34   A    
C29   O6    S    
H11   O44   S    
C21   C22   A    
C9    S8    S    
C13   C25   A    
O49   Zn2   S    
C11   S10   S    
C8    S7    S    
O1    Zn1   S    
C4    O49   A    
O22   S8    D    
H4    O21   S    
O40   S2    D    
C1    C6    A    
O47   S4    D    
O20   S7    D    
C5    C12   A    
C5    C7    A    
O39   S2    D    
C6    C8    A    
C5    S1    S    
C11   C26   A    
C23   H1    S    
O10   S1    D    
C32   C34   A    
C7    S6    S    
C9    C14   A    
C21   N1    A    
N1    Zn1   S    
C13   S11   S    
H17   O4    S    
O31   S10   S    
C8    C12   A    
O16   S6    D    
C17   C18   A    
C31   C34   A    
O13   S5    D    
H3    O18   S    
C32   H14   S    
C30   O8    S    
O46   S4    D    
O36   S12   D    
O37   S12   D    
O9    S1    D    
C21   C28   S    
O48   S4    S    
C23   C35   A    
C31   H12   S    
O32   S11   D    
O30   S10   D    
O24   S8    D    
O50   Zn1   S    
C20   N2    A    
H19   O8    S    
C3    O45   A    
C1    C7    A    
C15   S2    S    
C3    C26   S    
O42   S3    D    
C19   C34   S    
C22   N2    A    
O51   Zn2   S    
H13   O48   S    
C20   C27   S    
O38   S12   S    
C33   H15   S    
N2    Zn2   S    
O15   S5    S    
C13   C17   A    
C10   C15   A    
C23   C32   A    
C10   S9    S    
O44   S3    S    
O11   S1    S    
C10   C26   A    
H18   O6    S    
C3    O51   A    
O26   S9    D    
O41   S2    S    
O21   S7    S    
O18   S6    S    
C24   C30   S    
C6    S5    S    
C30   O7    D    
O12   Zn2   S    
O29   S10   D    
H20   O11   S    
O33   S11   D    
C2    O23   A    
O17   S6    D    
C2    O12   A    
H9    O38   S    
C28   O4    S    
H2    O15   S    
C16   C19   A    
