data_mof_unit_27546.cif
_audit_creation_date              2012-12-11T14:45:52-0500
_audit_creation_method            fapswitch 2.2
_symmetry_space_group_name_H-M    P1
_symmetry_Int_Tables_number       1
_space_group_crystal_system       triclinic
_cell_length_a                    10.909199
_cell_length_b                    10.984505
_cell_length_c                    18.912052
_cell_angle_alpha                 91.069642
_cell_angle_beta                  89.654531
_cell_angle_gamma                 119.404179
_cell_volume                      1973.96937294

loop_
_atom_site_label
_atom_site_type_symbol
_atom_type_description
_atom_site_fract_x
_atom_site_fract_y
_atom_site_fract_z
_atom_type_partial_charge
C1    C     C_R   0.867826 0.637707 0.604404 0.676123
C2    C     C_R   0.906681 0.100006 0.697571 0.027029
C3    C     C_R   0.895199 0.062461 0.769601 0.049199
C4    C     C_R   0.270189 0.632487 0.604122 0.636133
C5    C     C_R   0.724074 0.167360 0.716501 0.044032
C6    C     C_R   0.683372 0.086871 0.776521 -0.011427
C7    C     C_R   0.651874 0.243775 0.703370 0.428950
C8    C     C_R   0.525078 0.212246 0.735021 -0.050682
C9    C     C_R   0.470178 0.109311 0.784028 -0.160525
C10   C     C_R   0.548820 0.048539 0.804349 -0.098617
C11   C     C_R   0.833097 0.167568 0.673694 0.017165
C12   C     C_R   0.369270 0.582081 0.782835 -0.023753
C13   C     C_R   0.753477 0.694884 0.702893 0.353704
C14   C     C_R   0.733725 0.701440 0.775204 0.300790
C15   C     C_R   0.803789 0.660590 0.823403 -0.065513
C16   C     C_R   0.862973 0.233799 0.604533 0.598820
C17   C     C_R   0.894902 0.614127 0.799467 0.312969
C18   C     C_R   0.914517 0.607147 0.727211 0.406202
C19   C     C_R   0.844188 0.648083 0.678997 0.010399
C20   C     C_R   0.250181 0.542922 0.274978 0.315259
C21   C     C_R   0.271158 0.561785 0.203548 -0.118233
C22   C     C_R   0.351901 0.695670 0.177013 -0.073008
C23   C     C_R   0.363059 0.582161 0.710493 0.382022
C24   C     C_R   0.409060 0.812609 0.222904 -0.162630
C25   C     C_R   0.384725 0.794993 0.295702 0.048687
C26   C     C_R   0.307494 0.658545 0.321901 0.043244
C27   C     C_R   0.790068 0.255168 0.276209 -0.151894
C28   C     C_R   0.869186 0.635811 0.395910 0.571066
C29   C     C_R   0.787916 0.236611 0.203930 -0.207214
C30   C     C_R   0.848761 0.161786 0.174190 0.020136
C31   C     C_R   0.921663 0.114592 0.217507 0.384501
C32   C     C_R   0.923766 0.133867 0.290331 -0.027623
C33   C     C_R   0.854473 0.200505 0.319783 0.002049
C34   C     C_R   0.318485 0.666646 0.677177 0.094289
C35   C     C_R   0.956131 0.678179 0.274755 -0.130995
C36   C     C_R   0.938457 0.682135 0.202169 0.145130
C37   C     C_R   0.807871 0.656631 0.176586 0.043140
C38   C     C_R   0.692462 0.613322 0.222509 -0.156850
C39   C     C_R   0.708662 0.603029 0.294920 0.091125
C40   C     C_R   0.268535 0.631409 0.395811 0.594388
C41   C     C_R   0.842959 0.642438 0.321296 0.038423
C42   C     C_R   0.766214 0.036244 0.888203 0.600865
C43   C     C_R   0.393515 0.698821 0.896982 0.588807
C44   C     C_R   0.796688 0.690552 0.897474 0.633338
C45   C     C_R   0.783204 0.059967 0.810765 0.057458
C46   C     C_R   0.808051 0.106342 0.102750 0.563467
C47   C     C_R   0.400420 0.707705 0.104809 0.539326
C48   C     C_R   0.795300 0.697259 0.105511 0.570667
C49   C     C_R   0.863976 0.233656 0.394422 0.546358
C50   C     C_R   0.286710 0.755979 0.718492 0.363138
C51   C     C_R   0.294139 0.755606 0.791992 -0.077637
C52   C     C_R   0.342758 0.674268 0.824161 -0.030251
C53   C     C_3   0.377125 0.996955 0.341941 -0.272885
C54   C     C_3   0.033612 0.602228 0.107796 -0.275768
C55   C     C_3   0.497000 0.414052 0.342280 -0.260057
C56   C     C_R   0.991939 0.022637 0.795311 -0.112143
C57   C     C_R   0.080870 0.001382 0.750034 -0.139726
C58   C     C_R   0.079071 0.022166 0.678236 -0.075361
C59   C     C_R   0.992614 0.070400 0.651907 -0.055940
Cr1   Cr    Cr6+3 0.791660 0.390250 0.499930 1.100101
Cr2   Cr    Cr6+3 0.098520 0.708290 0.500540 1.072740
Cr3   Cr    Cr6+3 0.109770 0.401430 0.499480 1.093140
Cr4   Cr    Cr6+3 0.874790 0.925890 0.000070 1.084561
Cr5   Cr    Cr6+3 0.574120 0.948670 0.999300 1.026546
Cr6   Cr    Cr6+3 0.551420 0.625320 0.000920 1.045651
F1    F     F_    0.242639 0.838827 0.688328 -0.648808
F2    F     F_    0.711754 0.363598 0.670081 -0.621038
F3    F     F_    0.688748 0.738303 0.656701 -0.589176
F4    F     F_    0.655726 0.758696 0.798858 -0.656227
F5    F     F_    0.964583 0.576663 0.845788 -0.610588
F6    F     F_    0.995543 0.552784 0.703593 -0.587259
F7    F     F_    0.172137 0.410289 0.297908 -0.641590
F8    F     F_    0.983262 0.042521 0.190458 -0.615105
F9    F     F_    0.398780 0.496952 0.673469 -0.592640
H1    H     H_    0.472719 0.271708 0.723462 0.176759
H2    H     H_    0.591162 0.593719 0.202763 0.145375
H3    H     H_    0.406202 0.516223 0.805810 0.181877
H4    H     H_    0.147527 0.963392 0.770750 0.160984
H5    H     H_    0.145053 0.001351 0.642764 0.191832
H6    H     H_    0.001466 0.003690 0.849316 0.178371
H7    H     H_    0.991254 0.079328 0.595252 0.132591
H8    H     H_    0.504923 0.976486 0.844545 0.179469
H9    H     H_    0.552969 0.972833 0.335932 0.256898
H10   H     H_    0.391008 0.047113 0.289789 0.135236
H11   H     H_    0.424515 0.080137 0.383453 0.142526
H12   H     H_    0.372823 0.084198 0.810520 0.114411
H13   H     H_    0.263060 0.931745 0.353198 0.184697
H14   H     H_    0.150216 0.766954 0.178684 0.260131
H15   H     H_    0.938179 0.565900 0.074534 0.163283
H16   H     H_    0.124943 0.638829 0.071693 0.163361
H17   H     H_    0.023585 0.512621 0.138483 0.135895
H18   H     H_    0.540759 0.618598 0.333485 0.256680
H19   H     H_    0.444751 0.376482 0.289929 0.159435
H20   H     H_    0.415000 0.390748 0.382962 0.187543
H21   H     H_    0.554071 0.357112 0.355699 0.150564
H22   H     H_    0.227857 0.470310 0.168880 0.168723
H23   H     H_    0.476227 0.916419 0.202760 0.156448
H24   H     H_    0.267144 0.822266 0.823520 0.135341
H25   H     H_    0.741744 0.313313 0.297988 0.145948
H26   H     H_    0.732788 0.274917 0.171604 0.142374
H27   H     H_    0.978020 0.096089 0.323617 0.146253
H28   H     H_    0.058007 0.700550 0.294922 0.124291
N1    N     N_2   0.445683 0.912825 0.342502 -0.502462
N2    N     N_2   0.052549 0.715504 0.155166 -0.480587
N3    N     N_2   0.592800 0.563042 0.341363 -0.500384
O1    O     O_R   0.766500 0.250040 0.579790 -0.451764
O2    O     O_R   0.413330 0.603360 0.920440 -0.503076
O3    O     O_R   0.676110 0.626250 0.926750 -0.475702
O4    O     O_R   0.798570 0.516780 0.574780 -0.395574
O5    O     O_R   0.895350 0.809870 0.080950 -0.427944
O6    O     O_R   0.872490 0.049760 0.073800 -0.432171
O7    O     O_R   0.691680 0.088070 0.079070 -0.533309
O8    O     O_R   0.451720 0.825250 0.074050 -0.499904
O9    O     O_R   0.413580 0.606370 0.080960 -0.521573
O10   O     O_R   0.676340 0.629040 0.075550 -0.531930
O11   O     O_3   0.666780 0.833290 0.000090 -0.283498
O12   O     O_R   0.218690 0.701900 0.425960 -0.509413
O13   O     O_R   0.984000 0.732950 0.581090 -0.502574
O14   O     O_R   0.218600 0.700890 0.574760 -0.440979
O15   O     O_R   0.249390 0.515350 0.579940 -0.450958
O16   O     O_R   0.982790 0.280900 0.573700 -0.516095
O17   O     O_R   0.766600 0.251130 0.419260 -0.545372
O18   O     O_R   0.798660 0.517790 0.425980 -0.500483
O19   O     O_R   0.984100 0.734040 0.420570 -0.543147
O20   O     O_R   0.249490 0.516440 0.419420 -0.470637
O21   O     O_R   0.982880 0.281910 0.424890 -0.472456
O22   O     O_3   0.999980 0.499990 0.499980 -0.286473
O23   O     O_R   0.895110 0.806860 0.920430 -0.538749
O24   O     O_R   0.872260 0.046970 0.925000 -0.523386
O25   O     O_R   0.691430 0.085060 0.918550 -0.517721
O26   O     O_R   0.451490 0.822460 0.925250 -0.538955

loop_
_geom_bond_atom_site_label_1
_geom_bond_atom_site_label_2
_ccdc_geom_bond_type
C47   O9    A    
C48   O5    A    
Cr5   O11   S    
C6    C45   A    
C46   O7    A    
Cr2   O14   S    
Cr6   O9    S    
C35   C36   A    
C55   H19   S    
C35   H28   S    
C28   O18   A    
C7    C8    A    
C39   C41   A    
C38   H2    S    
C27   C33   A    
C49   O21   A    
C12   C23   A    
C27   H25   S    
C29   C30   A    
H9    N1    S    
C55   N3    S    
Cr2   O19   S    
C54   N2    S    
C36   C37   A    
C15   C44   S    
C54   H16   S    
C30   C31   A    
C43   C52   S    
Cr5   O7    S    
C27   C29   A    
C15   C17   A    
C33   C49   S    
C28   C41   S    
C56   C57   A    
C39   N3    S    
C18   C19   A    
C3    C56   A    
Cr1   O4    S    
H14   N2    S    
C21   C22   A    
C8    C9    A    
C4    O14   A    
C9    C10   A    
Cr6   O3    S    
Cr3   O15   S    
Cr4   O23   S    
C16   O1    A    
C1    O4    A    
C51   H24   S    
C22   C47   S    
C17   F5    S    
C13   C14   A    
Cr6   O10   S    
C55   H20   S    
C2    C11   A    
C12   C52   A    
C50   C51   A    
C44   O3    A    
C38   C39   A    
C4    C34   S    
C34   C50   A    
C1    C19   S    
C13   C19   A    
Cr2   O12   S    
C24   H23   S    
C24   C25   A    
C54   H15   S    
C53   H13   S    
C5    C7    A    
C2    C59   A    
C25   N1    S    
C25   C26   A    
C3    C45   A    
C8    H1    S    
C51   C52   A    
C42   C45   S    
Cr1   O18   S    
C16   O16   A    
C37   C38   A    
C9    H12   S    
C11   C16   S    
H18   N3    S    
C31   C32   A    
Cr5   O26   S    
C23   C34   A    
C12   H3    S    
C17   C18   A    
Cr2   O22   S    
C43   O2    A    
C37   C48   S    
Cr1   O17   S    
C50   F1    S    
C58   H5    S    
C48   O10   A    
Cr4   O11   S    
C55   H21   S    
Cr5   O25   S    
C53   H10   S    
Cr6   O11   S    
C22   C24   A    
C23   F9    S    
C49   O17   A    
Cr1   O1    S    
Cr3   O21   S    
C18   F6    S    
C47   O8    A    
C44   O23   A    
Cr5   O8    S    
C29   H26   S    
Cr2   O13   S    
C14   C15   A    
C57   H4    S    
C30   C46   S    
Cr1   O22   S    
C20   F7    S    
C59   H7    S    
C56   H6    S    
C6    C10   A    
Cr3   O20   S    
C28   O19   A    
C5    C11   A    
C21   H22   S    
C42   O25   A    
C36   N2    S    
C32   C33   A    
Cr4   O5    S    
C43   O26   A    
C2    C3    A    
C58   C59   A    
C54   H17   S    
C26   C40   S    
C57   C58   A    
C5    C6    A    
C20   C26   A    
C53   N1    S    
C40   O20   A    
C14   F4    S    
C10   H8    S    
C40   O12   A    
C42   O24   A    
C1    O13   A    
Cr4   O24   S    
Cr4   O6    S    
C35   C41   A    
C31   F8    S    
C7    F2    S    
Cr3   O22   S    
C20   C21   A    
C32   H27   S    
C4    O15   A    
C53   H11   S    
C46   O6    A    
Cr6   O2    S    
Cr3   O16   S    
C13   F3    S    
