data_mof_unit_10178.cif
_audit_creation_date              2012-12-11T14:08:34-0500
_audit_creation_method            fapswitch 2.2
_symmetry_space_group_name_H-M    P1
_symmetry_Int_Tables_number       1
_space_group_crystal_system       triclinic
_cell_length_a                    10.925265
_cell_length_b                    10.959943
_cell_length_c                    18.655745
_cell_angle_alpha                 90.345982
_cell_angle_beta                  89.6765
_cell_angle_gamma                 60.299471
_cell_volume                      1940.24589384

loop_
_atom_site_label
_atom_site_type_symbol
_atom_type_description
_atom_site_fract_x
_atom_site_fract_y
_atom_site_fract_z
_atom_type_partial_charge
C1    C     C_R   0.236285 0.645684 0.608804 0.544580
C2    C     C_2   0.782769 0.153557 0.706433 -0.179506
C3    C     C_2   0.180981 0.662839 0.681601 -0.122153
C4    C     C_R   0.653811 0.622687 0.601199 0.540501
C5    C     C_2   0.195772 0.661897 0.839432 -0.119238
C6    C     C_2   0.192591 0.561058 0.799861 -0.177855
C7    C     C_2   0.220718 0.548994 0.722668 -0.177746
C8    C     C_2   0.650038 0.645318 0.317051 -0.119938
C9    C     C_2   0.631623 0.666034 0.159695 -0.073530
C10   C     C_2   0.693136 0.543686 0.194701 0.201574
C11   C     C_2   0.671384 0.540047 0.271790 -0.111824
C12   C     C_3   0.671085 0.552813 0.800911 -0.252062
C13   C     C_2   0.675088 0.136707 0.333757 -0.115636
C14   C     C_2   0.652064 0.144800 0.179618 -0.088589
C15   C     C_2   0.610621 0.073095 0.222190 -0.165433
C16   C     C_R   0.628184 0.227554 0.601904 0.544523
C17   C     C_2   0.593800 0.097880 0.298744 -0.164850
C18   C     C_2   0.121386 0.681037 0.345419 -0.109336
C19   C     C_2   0.112636 0.691759 0.190946 -0.085010
C20   C     C_2   0.041576 0.804525 0.234581 -0.144880
C21   C     C_2   0.073830 0.800241 0.309935 -0.164565
C22   C     C_R   0.703485 0.102116 0.897555 0.551590
C23   C     C_3   0.700037 0.675157 0.812294 0.053071
C24   C     C_R   0.724150 0.688569 0.888245 0.544513
C25   C     C_R   0.119621 0.706039 0.907542 0.545770
C26   C     C_R   0.675544 0.105185 0.105233 0.574741
C27   C     C_R   0.691721 0.688298 0.094550 0.575041
C28   C     C_R   0.215400 0.651317 0.404710 0.557556
C29   C     C_R   0.086144 0.713647 0.115406 0.549596
C30   C     C_R   0.642126 0.621646 0.392870 0.549841
C31   C     C_R   0.621442 0.222510 0.397497 0.553806
C32   C     C_3   0.573365 0.812643 0.782888 -0.232042
C33   C     C_3   0.553605 0.795845 0.702835 -0.242401
C34   C     C_3   0.669623 0.648783 0.676476 0.058951
C35   C     C_3   0.835072 0.646336 0.769672 -0.221468
C36   C     C_3   0.815314 0.635339 0.689130 -0.247274
C37   C     C_3   0.656475 0.534935 0.720549 -0.215159
C38   C     C_2   0.675590 0.155624 0.670426 -0.122720
C39   C     C_2   0.689725 0.166569 0.827748 -0.118569
C40   C     C_2   0.801536 0.121079 0.783365 -0.177262
Cl1   Cl    Cl    0.808713 0.381216 0.152581 -0.610112
Cr1   Cr    Cr6+3 0.393010 0.398050 0.501480 1.020234
Cr2   Cr    Cr6+3 0.398820 0.707980 0.501630 1.018827
Cr3   Cr    Cr6+3 0.708140 0.393940 0.496850 1.018296
Cr4   Cr    Cr6+3 0.937950 0.938450 0.008940 1.060637
Cr5   Cr    Cr6+3 0.626180 0.937030 0.994750 1.022919
Cr6   Cr    Cr6+3 0.937790 0.625760 0.001410 1.062010
H1    H     H_    0.592505 0.902728 0.790298 0.142158
H2    H     H_    0.274927 0.443804 0.699562 0.158218
H3    H     H_    0.233961 0.727843 0.816368 0.103069
H4    H     H_    0.474893 0.837770 0.812686 0.125521
H5    H     H_    0.124545 0.768062 0.704612 0.103760
H6    H     H_    0.686739 0.441164 0.292949 0.167371
H7    H     H_    0.547609 0.759431 0.185582 0.060575
H8    H     H_    0.633962 0.746036 0.298813 0.078910
H9    H     H_    0.581257 0.999249 0.200080 0.153574
H10   H     H_    0.502877 0.100233 0.324130 0.163283
H11   H     H_    0.681742 0.218953 0.200442 0.145943
H12   H     H_    0.740355 0.428334 0.703893 0.143148
H13   H     H_    0.770846 0.125486 0.309381 0.110381
H14   H     H_    0.969306 0.907435 0.213081 0.165751
H15   H     H_    0.447010 0.808419 0.694928 0.145285
H16   H     H_    0.077153 0.890039 0.332718 0.160152
H17   H     H_    0.186386 0.587588 0.210177 0.102190
H18   H     H_    0.109214 0.595159 0.324007 0.120061
H19   H     H_    0.559117 0.879584 0.671913 0.115964
H20   H     H_    0.860130 0.731804 0.779868 0.123694
H21   H     H_    0.823230 0.719834 0.660289 0.115428
H22   H     H_    0.758632 0.453611 0.822627 0.140799
H23   H     H_    0.926780 0.546068 0.787341 0.136587
H24   H     H_    0.572530 0.574574 0.829580 0.117499
H25   H     H_    0.553151 0.541119 0.710373 0.124679
H26   H     H_    0.901418 0.532810 0.668470 0.139492
H27   H     H_    0.907929 0.055458 0.802870 0.151663
H28   H     H_    0.855269 0.180125 0.680139 0.146720
H29   H     H_    0.583841 0.233188 0.807741 0.108583
H30   H     H_    0.608965 0.120819 0.696340 0.103175
H31   H     H_    0.161813 0.489743 0.823337 0.149798
O1    O     O_R   0.507110 0.256280 0.580300 -0.523320
O2    O     O_R   0.837080 0.593860 0.915300 -0.521798
O3    O     O_R   0.064770 0.636080 0.932550 -0.501739
O4    O     O_R   0.280830 0.527190 0.577940 -0.500780
O5    O     O_R   0.068250 0.829200 0.092940 -0.506322
O6    O     O_R   0.799650 0.057040 0.080330 -0.472166
O7    O     O_R   0.586130 0.079760 0.077080 -0.511459
O8    O     O_R   0.627700 0.809630 0.066580 -0.517894
O9    O     O_R   0.816140 0.597180 0.075920 -0.433237
O10   O     O_R   0.045360 0.639170 0.081440 -0.487531
O11   O     O_3   0.833980 0.833750 0.001700 -0.271759
O12   O     O_R   0.524640 0.695370 0.425100 -0.491041
O13   O     O_R   0.261360 0.738990 0.584270 -0.521061
O14   O     O_R   0.532590 0.694780 0.574370 -0.509023
O15   O     O_R   0.744470 0.503750 0.577000 -0.529680
O16   O     O_R   0.698520 0.277230 0.571620 -0.500544
O17   O     O_R   0.498530 0.256920 0.419280 -0.509343
O18   O     O_R   0.272880 0.527780 0.428680 -0.497385
O19   O     O_R   0.252780 0.739630 0.423250 -0.509773
O20   O     O_R   0.735890 0.504390 0.415980 -0.504734
O21   O     O_R   0.690560 0.277820 0.422350 -0.504286
O22   O     O_3   0.499990 0.499990 0.499980 -0.250340
O23   O     O_R   0.089190 0.825870 0.932320 -0.517391
O24   O     O_R   0.819070 0.053960 0.931440 -0.488204
O25   O     O_R   0.607070 0.076440 0.916460 -0.520148
O26   O     O_R   0.647110 0.806550 0.917690 -0.511888

loop_
_geom_bond_atom_site_label_1
_geom_bond_atom_site_label_2
_ccdc_geom_bond_type
C28   O19   A    
C12   H22   S    
C18   C21   D    
C32   H1    S    
C35   C36   S    
Cr1   O4    S    
C30   O12   A    
C13   H13   S    
C18   H18   S    
C12   C23   S    
Cr1   O18   S    
C29   O5    A    
C3    C7    D    
C8    C11   D    
C5    C6    D    
Cr3   O21   S    
C6    H31   S    
C34   C37   S    
C12   C37   S    
C20   H14   S    
C29   O10   A    
Cr3   O15   S    
Cr3   O20   S    
C24   O2    A    
C19   C20   D    
C35   H23   S    
C33   H15   S    
C23   C24   S    
C31   O21   A    
Cr4   O11   S    
C9    C10   D    
C11   H6    S    
Cr5   O7    S    
C4    O14   A    
Cr1   O1    S    
C1    O13   A    
C10   Cl1   S    
C25   O3    A    
Cr6   O11   S    
Cr4   O5    S    
Cr6   O2    S    
C8    H8    S    
C33   H19   S    
C14   H11   S    
C4    C34   S    
Cr2   O12   S    
Cr1   O17   S    
C18   C28   S    
Cr2   O22   S    
C7    H2    S    
Cr4   O24   S    
C39   C40   D    
Cr5   O11   S    
C1    O4    A    
Cr5   O26   S    
Cr2   O13   S    
C22   O25   A    
C24   O26   A    
Cr6   O9    S    
C27   O8    A    
C32   H4    S    
Cr1   O22   S    
C2    C38   D    
C35   H20   S    
C19   H17   S    
C33   C34   S    
C39   H29   S    
C14   C26   S    
C27   O9    A    
C37   H12   S    
Cr4   O23   S    
C5    C25   S    
C12   H24   S    
C23   C35   S    
C5    H3    S    
Cr4   O6    S    
C19   C29   S    
C9    C27   S    
C15   C17   S    
C26   O6    A    
C13   C31   S    
Cr2   O19   S    
C23   C32   S    
C3    H5    S    
C36   H21   S    
C6    C7    S    
C38   H30   S    
Cr5   O25   S    
C30   O20   A    
C16   O16   A    
Cr2   O14   S    
C22   O24   A    
C13   C17   D    
C28   O18   A    
C16   O1    A    
C8    C30   S    
Cr6   O10   S    
C32   C33   S    
Cr3   O22   S    
C25   O23   A    
C26   O7    A    
C31   O17   A    
C22   C39   S    
C40   H27   S    
C34   C36   S    
Cr6   O3    S    
C15   H9    S    
C21   H16   S    
Cr3   O16   S    
C10   C11   S    
C4    O15   A    
C2    C40   S    
C20   C21   S    
C37   H25   S    
C17   H10   S    
C14   C15   D    
C9    H7    S    
C1    C3    S    
C36   H26   S    
C2    H28   S    
C16   C38   S    
Cr5   O8    S    
