data_mof_unit_55108.cif
_audit_creation_date              2012-12-11T16:06:42-0500
_audit_creation_method            fapswitch 2.2
_symmetry_space_group_name_H-M    P1
_symmetry_Int_Tables_number       1
_space_group_crystal_system       triclinic
_cell_length_a                    8.543738
_cell_length_b                    12.957079
_cell_length_c                    17.360416
_cell_angle_alpha                 95.301912
_cell_angle_beta                  96.735629
_cell_angle_gamma                 98.02284
_cell_volume                      1878.289113

loop_
_atom_site_label
_atom_site_type_symbol
_atom_type_description
_atom_site_fract_x
_atom_site_fract_y
_atom_site_fract_z
_atom_type_partial_charge
Ba1   Ba    Ba6+2 0.158660 0.552610 0.463110 1.768476
Ba2   Ba    Ba6+2 0.651510 0.447380 0.536830 1.785531
C1    C     C_3   0.491369 0.787885 0.184912 0.163646
C2    C     C_R   0.740596 0.819181 0.472074 -0.189183
C3    C     C_R   0.698702 0.997309 0.453659 -0.062996
C4    C     C_3   0.061639 0.804898 0.241237 0.406399
C5    C     C_R   0.640036 0.889300 0.448515 0.030102
C6    C     C_R   0.893904 0.852937 0.510561 0.080056
C7    C     C_R   0.955138 0.964999 0.518005 -0.031273
C8    C     C_R   0.857190 0.038077 0.486817 -0.024324
C9    C     C_R   0.921948 0.148704 0.489823 0.028314
C10   C     C_R   0.174139 0.113509 0.559829 -0.038337
C11   C     C_R   0.111762 0.005947 0.553350 -0.075762
C12   C     C_3   0.545075 0.839237 0.268531 0.331517
C13   C     C_R   0.595787 0.527299 0.278788 -0.297100
C14   C     C_R   0.441307 0.474708 0.253441 0.022591
C15   C     C_R   0.384449 0.456196 0.172292 0.351477
C16   C     C_3   0.100928 0.865138 0.171903 0.222950
C17   C     C_R   0.484255 0.493501 0.119015 -0.013197
C18   C     C_R   0.640999 0.542105 0.145204 -0.149021
C19   C     C_R   0.697593 0.556613 0.225106 0.008553
C20   C     C_R   0.422908 0.499946 0.835591 0.237658
C21   C     C_R   0.372300 0.488701 0.753998 -0.029909
C22   C     C_R   0.113485 0.398212 0.775910 0.043234
C23   C     C_3   0.552900 0.790562 0.709310 0.021263
C24   C     C_R   0.164486 0.409046 0.856291 -0.131867
C25   C     C_R   0.319295 0.458365 0.885766 -0.057978
C26   C     C_1   0.372863 0.470660 0.968517 0.150151
C27   C     C_1   0.424227 0.481592 0.036980 0.121826
C28   C     C_3   0.754416 0.312178 0.302902 0.328749
C29   C     C_R   0.222572 0.432098 0.724533 0.128069
C30   C     C_3   0.731478 0.283446 0.214492 0.273075
C31   C     C_3   0.124865 0.731012 0.710283 0.301953
C32   C     C_3   0.174538 0.802124 0.791108 0.182108
C33   C     C_3   0.246951 0.232260 0.372121 0.310638
C34   C     C_3   0.570393 0.882639 0.776220 0.208495
C35   C     C_3   0.243482 0.114359 0.356016 -0.327569
C36   C     C_2   0.045093 0.623962 0.722754 0.864879
C37   C     C_2   0.222514 0.916887 0.784317 0.924731
C38   C     C_2   0.654053 0.940579 0.267427 0.776215
C39   C     C_2   0.717989 0.786441 0.700030 0.740194
C40   C     C_2   0.469170 0.807665 0.629984 0.871161
C41   C     C_2   0.979813 0.935146 0.149972 0.916498
C42   C     C_2   0.431086 0.228438 0.910244 0.882206
C43   C     C_3   0.867940 0.156394 0.713261 0.388536
C44   C     C_3   0.926201 0.076193 0.763606 -0.392739
C45   C     C_3   0.426572 0.226156 0.756754 0.731005
C46   C     C_3   0.522178 0.225690 0.840113 0.356897
C47   C     C_R   0.079195 0.181746 0.526070 -0.302389
H1    H     H_    0.612855 0.783381 0.298491 -0.058737
H2    H     H_    0.365323 0.096928 0.349774 0.153708
H3    H     H_    0.595804 0.764296 0.159131 0.092853
H4    H     H_    0.688894 0.896656 0.813265 0.042340
H5    H     H_    0.494969 0.864827 0.821344 0.117098
H6    H     H_    0.439860 0.844156 0.148372 0.081773
H7    H     H_    0.764013 0.119986 0.670634 0.081925
H8    H     H_    0.961236 0.183089 0.677382 -0.102189
H9    H     H_    0.840311 0.052520 0.803758 0.165452
H10   H     H_    0.943040 0.006741 0.725912 0.144931
H11   H     H_    0.038919 0.109555 0.800753 0.215802
H12   H     H_    0.733122 0.354866 0.183841 -0.059570
H13   H     H_    0.467307 0.304030 0.738431 -0.082886
H14   H     H_    0.610799 0.298982 0.850169 -0.037218
H15   H     H_    0.155228 0.755381 0.253646 0.132142
H16   H     H_    0.620491 0.047650 0.428982 0.102148
H17   H     H_    0.188002 0.953539 0.573162 0.200721
H18   H     H_    0.132747 0.261455 0.523172 0.068482
H19   H     H_    0.695867 0.736098 0.462686 0.030336
H20   H     H_    0.718422 0.569309 0.103710 0.141031
H21   H     H_    0.082101 0.382578 0.895836 0.130757
H22   H     H_    0.640205 0.540819 0.340453 0.060511
H23   H     H_    0.832272 0.244355 0.197845 0.128242
H24   H     H_    0.065748 0.861180 0.293974 -0.009982
H25   H     H_    0.219339 0.914793 0.189456 0.021633
H26   H     H_    0.645303 0.338593 0.321345 -0.035194
H27   H     H_    0.857087 0.376474 0.317795 -0.022248
H28   H     H_    0.501379 0.258130 0.190560 0.298250
H29   H     H_    0.128552 0.620210 0.837187 0.281986
H30   H     H_    0.220515 0.033280 0.716781 0.341385
H31   H     H_    0.994388 0.850668 0.840032 0.327601
H32   H     H_    0.337902 0.674397 0.129637 0.335712
H33   H     H_    0.872656 0.024488 0.299050 0.319859
H34   H     H_    0.227962 0.720382 0.680765 -0.086082
H35   H     H_    0.755027 0.709745 0.795021 0.320782
H36   H     H_    0.569751 0.699388 0.568975 0.245392
H37   H     H_    0.619340 0.991742 0.711954 0.328784
H38   H     H_    0.756760 0.945748 0.102018 0.326474
H39   H     H_    0.211421 0.227099 0.710350 0.225611
H40   H     H_    0.447944 0.255707 0.027526 0.335381
H41   H     H_    0.692141 0.157570 0.887385 0.322424
H42   H     H_    0.640569 0.561176 0.829172 0.346137
H43   H     H_    0.182988 0.368688 0.182996 0.324798
H44   H     H_    0.120912 0.345851 0.633510 0.266362
H45   H     H_    0.277328 0.771872 0.820593 0.003222
H46   H     H_    0.163496 0.833246 0.069522 0.316670
H47   H     H_    0.125830 0.248472 0.380435 -0.015533
H48   H     H_    0.332127 0.260622 0.425748 0.064405
H49   H     H_    0.163569 0.083539 0.301403 0.144844
H50   H     H_    0.199166 0.073565 0.404185 0.069925
O1    O     O_2   0.163080 0.763400 0.536930 -0.427317
O2    O     O_2   0.793487 0.431573 0.775516 -0.430702
O3    O     O_3   0.821184 0.235228 0.762498 -0.588121
O4    O     O_3   0.893330 0.628980 0.538660 -0.454187
O5    O     O_3   0.422000 0.445190 0.409310 -0.491317
O6    O     O_2   0.648720 0.552000 0.685060 -0.426794
O7    O     O_3   0.478559 0.701092 0.738741 -0.739390
O8    O     O_2   0.503813 0.119431 0.554668 -0.476736
O9    O     O_3   0.456917 0.146140 0.700998 -0.528467
O10   O     O_3   0.379830 0.697590 0.399610 -0.421041
O11   O     O_2   0.305218 0.886688 0.438709 -0.473281
O12   O     O_3   0.293916 0.278481 0.307218 -0.630528
O13   O     O_3   0.022314 0.780729 0.662244 -0.551749
O14   O     O_3   0.410456 0.860474 0.304183 -0.648741
O15   O     O_2   0.161570 0.447940 0.314920 -0.476884
O16   O     O_3   0.953630 0.643360 0.361440 -0.504935
O17   O     O_2   0.027385 0.569092 0.221908 -0.441766
O18   O     O_3   0.588551 0.214970 0.190265 -0.627933
O19   O     O_2   0.982612 0.563521 0.666453 -0.508454
O20   O     O_R   0.032406 0.593162 0.797159 -0.715634
O21   O     O_2   0.272449 0.977170 0.843250 -0.533016
O22   O     O_R   0.203068 0.954768 0.712397 -0.728297
O23   O     O_3   0.908383 0.746284 0.223911 -0.600365
O24   O     O_3   0.058049 0.792119 0.842486 -0.683586
O25   O     O_3   0.378573 0.698703 0.185167 -0.714401
O26   O     O_2   0.602620 0.013588 0.238439 -0.534502
O27   O     O_R   0.813040 0.951627 0.300839 -0.805574
O28   O     O_2   0.781585 0.849311 0.660967 -0.674074
O29   O     O_R   0.806828 0.731022 0.748307 -0.684999
O30   O     O_2   0.400834 0.882694 0.622848 -0.550143
O31   O     O_R   0.483082 0.744767 0.562291 -0.706303
O32   O     O_3   0.541943 0.976299 0.748799 -0.610884
O33   O     O_2   0.017871 0.030423 0.159574 -0.620881
O34   O     O_2   0.647210 0.236530 0.463040 -0.474594
O35   O     O_R   0.826210 0.890892 0.115492 -0.712031
O36   O     O_3   0.263860 0.215823 0.761675 -0.807435
O37   O     O_2   0.288074 0.197188 0.904541 -0.543099
O38   O     O_R   0.517381 0.260761 0.984083 -0.760401
O39   O     O_3   0.605207 0.140325 0.842775 -0.644524
O40   O     O_3   0.568649 0.554982 0.869240 -0.701703
O41   O     O_3   0.234938 0.402553 0.142144 -0.709040
O42   O     O_3   0.181820 0.416746 0.645173 -0.683229
O43   O     O_3   0.108263 0.793320 0.107261 -0.684823
O44   O     O_3   0.916960 0.371010 0.461280 -0.480340
O45   O     O_3   0.430470 0.302400 0.600330 -0.477322
O46   O     O_3   0.784361 0.223294 0.338689 -0.613303
O47   O     O_3   0.388290 0.554800 0.590630 -0.400812
O48   O     O_3   0.856660 0.356630 0.638500 -0.432743
P1    P     P_3+3 0.990420 0.746550 0.559720 1.110758
P2    P     P_3+3 0.330880 0.415450 0.326700 0.986796
P3    P     P_3+3 0.900294 0.623644 0.259750 0.986307
P4    P     P_3+3 0.819870 0.253440 0.440220 0.986565
P5    P     P_3+3 0.898517 0.357579 0.739077 1.078909
P6    P     P_3+3 0.434773 0.834163 0.401658 1.026666
P7    P     P_3+3 0.473177 0.574753 0.689610 0.991957
P8    P     P_3+3 0.387045 0.167273 0.604010 0.984683

loop_
_geom_bond_atom_site_label_1
_geom_bond_atom_site_label_2
_ccdc_geom_bond_type
C42   O37   D    
H35   O29   S    
C32   O24   S    
C44   H10   S    
Ba2   O45   S    
C39   O28   D    
C17   C18   A    
O34   P4    D    
C30   O18   S    
C2    C6    A    
C45   H13   S    
O17   P3    D    
C10   C47   A    
H44   O42   S    
C30   H23   S    
C33   H47   S    
H30   O22   S    
C43   H8    S    
C24   C25   A    
C42   O38   S    
C4    H24   S    
C9    C47   A    
O23   P3    S    
C41   O33   D    
C33   C35   S    
C22   C24   A    
C30   H12   S    
H28   O18   S    
C35   H2    S    
H37   O32   S    
C13   C14   A    
Ba2   O6    S    
Ba1   Ba2   S    
C4    H15   S    
C7    C11   A    
H33   O27   S    
C34   H4    S    
C22   P5    S    
Ba1   O10   S    
C1    H6    S    
C43   H7    S    
C14   C15   A    
O7    P7    S    
O47   P7    S    
O4    P1    S    
Ba1   P2    S    
C14   P2    S    
C40   O30   D    
O10   P6    S    
C7    C8    A    
Ba1   O4    S    
C45   O36   S    
O44   P4    S    
O6    P7    D    
C16   H25   S    
C44   H9    S    
Ba2   O44   S    
H38   O35   S    
Ba1   O47   S    
C6    P1    S    
C2    C5    A    
O12   P2    S    
Ba1   O1    S    
C35   H49   S    
H41   O39   S    
C23   O7    S    
C11   H17   S    
C4    C16   S    
Ba2   O34   S    
H32   O25   S    
C32   C37   S    
C16   O43   S    
C3    H16   S    
C43   O3    S    
C34   O32   S    
C23   C39   S    
C3    C5    A    
C6    C7    A    
C46   H14   S    
Ba2   O48   S    
C43   C44   S    
C20   O40   S    
O13   P1    S    
C21   C29   A    
O5    P2    S    
C29   O42   S    
C41   O35   S    
Ba1   O44   S    
H36   O31   S    
C28   H27   S    
C45   C46   S    
C5    P6    S    
Ba2   O5    S    
C38   O27   S    
C31   C32   S    
C40   O31   S    
C31   O13   S    
C19   P3    S    
C10   C11   A    
C31   H34   S    
Ba1   O5    S    
O46   P4    S    
C1    C12   S    
H42   O40   S    
C36   O20   S    
C9    P4    S    
H40   O38   S    
C20   C25   A    
C24   H21   S    
C18   H20   S    
Ba1   O15   S    
C4    O23   S    
C10   P8    S    
C17   C27   S    
C35   H50   S    
C33   O12   S    
C1    O25   S    
C28   O46   S    
C2    H19   S    
Ba2   P4    S    
C26   C27   T    
C47   H18   S    
C44   H11   S    
C32   H45   S    
H39   O36   S    
O14   P6    S    
C23   C40   S    
C1    H3    S    
Ba2   O47   S    
C12   O14   S    
C13   H22   S    
O2    P5    D    
C31   C36   S    
C37   O22   S    
C46   O39   S    
O45   P8    S    
H29   O20   S    
C22   C29   A    
C3    C8    A    
O11   P6    D    
C16   C41   S    
C28   C30   S    
C28   H26   S    
C12   H1    S    
O9    P8    S    
Ba2   O4    S    
O1    P1    D    
C38   O26   D    
O16   P3    S    
C15   C17   A    
O48   P5    S    
C15   O41   S    
C34   H5    S    
C8    C9    A    
C23   C34   S    
C12   C38   S    
C36   O19   D    
C42   C46   S    
C13   C19   A    
C18   C19   A    
H46   O43   S    
C39   O29   S    
C45   O9    S    
C21   P7    S    
C25   C26   S    
C20   C21   A    
Ba1   P1    S    
Ba1   O16   S    
O15   P2    D    
C33   H48   S    
O8    P8    D    
C37   O21   D    
O3    P5    S    
H31   O24   S    
H43   O41   S    
