data_mof_unit_24181.cif
_audit_creation_date              2012-12-11T14:35:51-0500
_audit_creation_method            fapswitch 2.2
_symmetry_space_group_name_H-M    P1
_symmetry_Int_Tables_number       1
_space_group_crystal_system       triclinic
_cell_length_a                    14.430294
_cell_length_b                    16.133568
_cell_length_c                    6.968746
_cell_angle_alpha                 90.063285
_cell_angle_beta                  81.033138
_cell_angle_gamma                 89.854851
_cell_volume                      1602.57358739

loop_
_atom_site_label
_atom_site_type_symbol
_atom_type_description
_atom_site_fract_x
_atom_site_fract_y
_atom_site_fract_z
_atom_type_partial_charge
O1    O     O_R   0.337460 0.413110 0.524760 -0.535572
O2    O     O_R   0.662540 0.913110 0.475240 -0.542412
O3    O     O_R   0.348690 0.587910 0.191230 -0.549148
O4    O     O_R   0.651310 0.087910 0.808770 -0.549717
O5    O     O_R   0.166530 0.586890 0.082470 -0.552679
O6    O     O_R   0.833470 0.086890 0.917530 -0.550139
C1    C     C_R   0.370738 0.616319 0.353636 0.740025
C2    C     C_R   0.629202 0.116334 0.646533 0.739182
O7    O     O_R   0.348700 0.413830 0.191250 -0.518305
O8    O     O_R   0.651300 0.913830 0.808750 -0.536921
O9    O     O_R   0.166530 0.411570 0.082490 -0.518498
O10   O     O_R   0.833470 0.911570 0.917510 -0.539906
C3    C     C_R   0.370760 0.385289 0.353427 0.818491
C4    C     C_R   0.629248 0.885337 0.646410 0.756446
O11   O     O_R   0.337460 0.588430 0.524740 -0.544633
O12   O     O_R   0.662540 0.088430 0.475260 -0.547063
O13   O     O_3   0.192230 0.499460 0.407330 -0.380912
O14   O     O_3   0.807770 0.999460 0.592670 -0.351572
V1    V     V_3+5 0.263080 0.500100 0.108540 1.477111
V2    V     V_3+5 0.736920 0.000100 0.891460 1.467668
O15   O     O_R   0.155290 0.412090 0.756570 -0.543738
O16   O     O_R   0.844710 0.912090 0.243430 -0.530794
C5    C     C_R   0.133063 0.382938 0.931362 0.752244
C6    C     C_R   0.866696 0.882609 0.067680 0.724079
O17   O     O_R   0.155290 0.586170 0.756550 -0.547390
O18   O     O_R   0.844710 0.086170 0.243450 -0.509871
C7    C     C_R   0.131215 0.613699 0.933332 0.648675
C8    C     C_R   0.868206 0.114474 0.067028 0.674638
V3    V     V_3+5 0.240910 0.499900 0.616030 1.449704
V4    V     V_3+5 0.759090 0.999900 0.383970 1.509226
O19   O     O_3   0.311760 0.500540 0.867100 -0.366767
O20   O     O_3   0.688240 0.000540 0.132900 -0.377744
C9    C     C_3   0.109438 0.763490 0.019773 -0.320569
C10   C     C_3   0.939724 0.222647 0.826002 -0.325480
H1    H     H_    0.141679 0.751665 0.152016 0.156197
H2    H     H_    0.958209 0.173451 0.715111 0.206505
H3    H     H_    0.169933 0.775082 0.903550 0.178761
H4    H     H_    0.866569 0.240503 0.812540 0.175150
C11   C     C_3   0.040045 0.839367 0.053035 0.047926
C12   C     C_3   0.009141 0.297542 0.782688 0.057866
H5    H     H_    0.014845 0.657864 0.275877 0.077821
H6    H     H_    0.057083 0.105512 0.917948 0.096579
H7    H     H_    0.915411 0.762486 0.331510 0.094629
H8    H     H_    0.153057 0.205240 0.840991 0.161054
C13   C     C_3   0.980043 0.663519 0.144431 -0.152495
C14   C     C_3   0.043363 0.152000 0.037252 -0.205156
C15   C     C_3   0.014225 0.703017 0.785429 -0.305103
C16   C     C_3   0.917088 0.255466 0.181258 -0.266045
C17   C     C_3   0.059095 0.683520 0.969181 0.020740
C18   C     C_3   0.940919 0.184201 0.031891 0.034275
H9    H     H_    0.982276 0.646748 0.731561 0.184213
H10   H     H_    0.917010 0.233641 0.332088 0.204097
H11   H     H_    0.069658 0.723460 0.665547 0.167494
H12   H     H_    0.844793 0.278431 0.175281 0.142894
C19   C     C_3   0.936783 0.810074 0.035166 -0.019177
C20   C     C_3   0.064230 0.309966 0.959720 -0.005498
C21   C     C_3   0.908469 0.737994 0.185514 -0.139284
C22   C     C_3   0.116263 0.224124 0.984486 -0.153667
C23   C     C_3   0.939604 0.772228 0.827201 -0.316442
C24   C     C_3   0.987031 0.328121 0.137600 -0.349183
H13   H     H_    0.955304 0.821155 0.715357 0.172939
H14   H     H_    0.947149 0.384705 0.110508 0.169671
H15   H     H_    0.870149 0.746812 0.808623 0.203217
H16   H     H_    0.017281 0.345361 0.266364 0.175244
H17   H     H_    0.565285 0.807331 0.352262 0.174689
H18   H     H_    0.434397 0.307502 0.647556 0.179690
H19   H     H_    0.435369 0.693797 0.647763 0.153661
H20   H     H_    0.564538 0.193326 0.352455 0.152330
C25   C     C_2   0.439990 0.684077 0.343532 -0.304569
C26   C     C_2   0.559798 0.184161 0.656808 -0.308455
C27   C     C_2   0.465633 0.716852 0.505249 -0.112627
C28   C     C_2   0.534188 0.216656 0.494919 -0.120077
H21   H     H_    0.529428 0.794239 0.798614 0.137190
H22   H     H_    0.470590 0.293701 0.201099 0.140132
C29   C     C_2   0.559993 0.817599 0.656589 -0.315232
C30   C     C_2   0.439965 0.317334 0.343089 -0.306951
C31   C     C_2   0.534756 0.784496 0.494817 -0.111419
C32   C     C_2   0.465030 0.284403 0.505044 -0.113794
H23   H     H_    0.470346 0.707631 0.201554 0.136969
H24   H     H_    0.529344 0.207974 0.798747 0.139439
C33   C     C_2   0.935626 0.579371 0.124413 0.335919
H25   H     H_    0.945298 0.530602 0.226626 0.032185
O21   O     O_2   0.889348 0.565208 0.995668 -0.505897
C34   C     C_2   0.058395 0.103174 0.215489 0.395823
H26   H     H_    0.120070 0.063928 0.206289 0.080225
O22   O     O_2   0.004504 0.106319 0.368448 -0.507561
C35   C     C_2   0.806019 0.711544 0.210132 0.415102
H27   H     H_    0.779810 0.669185 0.326845 0.056736
O23   O     O_2   0.751995 0.736915 0.104895 -0.542567
C36   C     C_2   0.202113 0.225332 0.086026 0.363361
H28   H     H_    0.208889 0.184499 0.205729 0.094792
O24   O     O_2   0.270440 0.266969 0.021581 -0.530806
C37   C     C_2   0.069029 0.910359 0.912928 0.434099
H29   H     H_    0.024944 0.965025 0.919756 0.013874
O25   O     O_2   0.140293 0.908282 0.792785 -0.511015
C38   C     C_2   0.958707 0.376204 0.733369 0.370216
H30   H     H_    0.997458 0.424504 0.647514 0.080762
O26   O     O_2   0.875196 0.387518 0.790211 -0.516548
I1    I     I_    0.051928 0.890153 0.336301 -0.435935
I2    I     I_    0.105991 0.268619 0.524370 -0.476627

loop_
_geom_bond_atom_site_label_1
_geom_bond_atom_site_label_2
_ccdc_geom_bond_type
C35   H27   S    
C37   H29   S    
O11   V3    S    
C19   C23   S    
O13   V3    S    
O4    C2    A    
V1    O19   S    
C33   H25   S    
C5    C20   S    
C15   C17   S    
C6    C19   S    
C16   H12   S    
C13   C21   S    
C9    C11   S    
H22   C30   S    
C10   C12   S    
C34   O22   D    
O3    C1    A    
H19   C27   S    
O12   V4    S    
C24   H14   S    
H6    C14   S    
C25   C27   D    
O7    C3    A    
C11   C37   S    
C28   C32   S    
O13   V1    S    
O5    C7    A    
C11   I1    S    
O7    V1    S    
O6    C8    A    
O8    V2    S    
C12   C20   S    
C38   O26   D    
O3    V1    S    
O14   V4    S    
C10   H2    S    
C15   H11   S    
C16   C18   S    
C37   O25   D    
C14   C22   S    
H21   C29   S    
C8    C18   S    
C12   C38   S    
O18   C8    A    
C33   O21   D    
C16   C24   S    
O17   V3    S    
H18   C32   S    
C11   C19   S    
C23   H13   S    
C10   C18   S    
C26   H24   S    
H17   C31   S    
C34   H26   S    
O8    C4    A    
H8    C22   S    
C15   H9    S    
C1    O11   A    
O15   V3    S    
C9    H3    S    
C21   C35   S    
C12   I2    S    
C29   C31   D    
C36   O24   D    
C3    C30   S    
C13   C17   S    
H20   C28   S    
O9    V1    S    
C38   H30   S    
O10   V2    S    
O1    V3    S    
C22   C36   S    
C14   C34   S    
O18   V4    S    
O15   C5    A    
O16   C6    A    
C25   H23   S    
O1    C3    A    
C27   C31   S    
V2    O20   S    
C14   C18   S    
O16   V4    S    
C10   H4    S    
C23   H15   S    
C13   C33   S    
C30   C32   D    
C1    C25   S    
O5    V1    S    
O17   C7    A    
O6    V2    S    
O10   C6    A    
C2    C26   S    
C24   H16   S    
O2    V4    S    
C4    C29   S    
C19   C21   S    
V3    O19   S    
V4    O20   S    
C36   H28   S    
O9    C5    A    
C9    H1    S    
C20   C22   S    
O14   V2    S    
O2    C4    A    
H7    C21   S    
C15   C23   S    
O4    V2    S    
C20   C24   S    
C16   H10   S    
C2    O12   A    
C35   O23   D    
H5    C13   S    
C26   C28   D    
C9    C17   S    
C7    C17   S    
