data_mof_unit_41060.cif
_audit_creation_date              2012-10-26T19:02:38-0400
_audit_creation_method            fapswitch 2.2
_symmetry_space_group_name_H-M    P1
_symmetry_Int_Tables_number       1
_space_group_crystal_system       triclinic
_cell_length_a                    17.135088
_cell_length_b                    8.730709
_cell_length_c                    7.471051
_cell_angle_alpha                 103.095976
_cell_angle_beta                  89.896528
_cell_angle_gamma                 93.537518
_cell_volume                      1086.4519914

loop_
_atom_site_label
_atom_site_type_symbol
_atom_type_description
_atom_site_fract_x
_atom_site_fract_y
_atom_site_fract_z
_atom_type_partial_charge
C1    C     C_R   0.495264 0.200183 0.454813 0.592024
C2    C     C_R   0.768456 0.363445 0.492211 0.197599
C3    C     C_R   0.141067 0.353446 0.492180 0.228734
C4    C     C_R   0.849577 0.351025 0.465906 0.235991
C5    C     C_R   0.104714 0.490130 0.578485 0.047756
C6    C     C_R   0.894347 0.474813 0.416040 -0.007246
C7    C     C_R   0.148496 0.629986 0.658672 0.236822
C8    C     C_R   0.858238 0.604598 0.374896 0.259253
C9    C     C_R   0.230595 0.636145 0.645444 0.190964
C10   C     C_R   0.777281 0.611977 0.389641 0.250243
C11   C     C_2   0.018652 0.489339 0.577314 0.407180
C12   C     C_R   0.504785 0.799815 0.545168 0.519991
C13   C     C_2   0.980132 0.469189 0.415818 0.335531
C14   C     C_2   0.484334 0.032421 0.435638 0.263841
C15   C     C_2   0.515729 0.967571 0.564308 0.255873
C16   C     C_R   0.351353 0.502520 0.526867 0.573841
C17   C     C_R   0.648668 0.498309 0.473245 0.561553
C18   C     C_R   0.266968 0.500911 0.548067 0.009274
C19   C     C_R   0.732767 0.491981 0.450857 -0.017971
C20   C     C_R   0.222813 0.361059 0.468955 0.193871
Cu1   Cu    Cu3+1 0.508700 0.517250 0.683000 1.154987
Cu2   Cu    Cu3+1 0.491300 0.482750 0.317000 1.154942
H1    H     H_    0.225179 0.171205 0.274246 0.352143
H2    H     H_    0.126886 0.124861 0.435609 0.352336
H3    H     H_    0.414718 0.011349 0.222490 0.351246
H4    H     H_    0.585368 0.988654 0.777385 0.338921
H5    H     H_    0.397509 0.301639 0.022996 0.342108
H6    H     H_    0.602506 0.698352 0.977094 0.338381
H7    H     H_    0.755134 0.205183 0.637626 0.356335
H8    H     H_    0.689442 0.745514 0.385280 0.327606
H9    H     H_    0.327338 0.773463 0.683674 0.341308
H10   H     H_    0.982376 0.433378 0.150574 0.344121
H11   H     H_    0.015611 0.524592 0.842659 0.352600
H12   H     H_    0.145964 0.849931 0.794599 0.393535
H13   H     H_    0.956380 0.718076 0.330742 0.349643
H14   H     H_    0.849401 0.126960 0.458480 0.370489
N1    N     N_2   0.478180 0.456750 0.041980 0.103215
N2    N     N_2   0.521820 0.543250 0.958020 0.104840
O1    O     O_R   0.505650 0.286040 0.618880 -0.409541
O2    O     O_3   0.722522 0.253036 0.558277 -0.650114
O3    O     O_3   0.745027 0.742293 0.350027 -0.607882
O4    O     O_3   0.272275 0.776532 0.723048 -0.681059
O5    O     O_3   0.020946 0.449526 0.253003 -0.689752
O6    O     O_3   0.977826 0.517778 0.740343 -0.654964
O7    O     O_3   0.108636 0.759608 0.743560 -0.647538
O8    O     O_3   0.899508 0.729356 0.324574 -0.588201
O9    O     O_3   0.887000 0.220230 0.486935 -0.612528
O10   O     O_3   0.095039 0.215378 0.433841 -0.616329
O11   O     O_3   0.438150 0.941956 0.293089 -0.678940
O12   O     O_R   0.494350 0.713960 0.381120 -0.431432
O13   O     O_3   0.561908 0.058050 0.706846 -0.665300
O14   O     O_3   0.425214 0.356968 0.937258 -0.554172
O15   O     O_3   0.574772 0.643030 0.062784 -0.557670
O16   O     O_R   0.490960 0.256910 0.309800 -0.537194
O17   O     O_R   0.509040 0.743090 0.690200 -0.558775
O18   O     O_R   0.394600 0.516230 0.672450 -0.473770
O19   O     O_R   0.605400 0.483770 0.327550 -0.474565
O20   O     O_R   0.379910 0.487100 0.363380 -0.492463
O21   O     O_R   0.620090 0.512900 0.636620 -0.490932
O22   O     O_3   0.261288 0.235088 0.369627 -0.690755

loop_
_geom_bond_atom_site_label_1
_geom_bond_atom_site_label_2
_ccdc_geom_bond_type
Cu2   O20   S    
Cu1   O18   S    
C2    C4    A    
H6    O15   S    
C16   O18   A    
H8    O3    S    
C5    C11   S    
N1    N2    D    
H9    O4    S    
C15   O13   S    
C20   O22   S    
C3    O10   S    
C12   O12   A    
Cu1   O1    S    
C12   C15   S    
Cu2   O12   S    
C10   C19   A    
C1    O16   A    
C7    C9    A    
Cu2   O19   S    
C3    C20   A    
C11   O6    S    
Cu2   O16   S    
H12   O7    S    
C16   O20   A    
Cu1   Cu2   S    
C10   O3    S    
C11   C13   D    
C9    O4    S    
N2    O15   S    
C17   O21   A    
C7    O7    S    
H7    O2    S    
C8    C10   A    
C17   C19   S    
H10   O5    S    
Cu1   O21   S    
C18   C20   A    
H1    O22   S    
H11   O6    S    
H3    O11   S    
C14   O11   S    
C1    O1    A    
C12   O17   A    
H2    O10   S    
C2    O2    S    
C9    C18   A    
C13   O5    S    
H5    O14   S    
H14   O9    S    
Cu1   O17   S    
C4    C6    A    
C5    C7    A    
N1    O14   S    
C14   C15   D    
C6    C8    A    
C1    C14   S    
C8    O8    S    
C3    C5    A    
C2    C19   A    
H4    O13   S    
Cu2   N1    S    
C16   C18   S    
Cu1   N2    S    
C17   O19   A    
C6    C13   S    
C4    O9    S    
H13   O8    S    
