data_mof_unit_38112.cif
_audit_creation_date              2012-12-10T17:47:01-0500
_audit_creation_method            fapswitch 2.2
_symmetry_space_group_name_H-M    P1
_symmetry_Int_Tables_number       1
_space_group_crystal_system       triclinic
_cell_length_a                    9.918083
_cell_length_b                    10.678693
_cell_length_c                    13.621585
_cell_angle_alpha                 91.444945
_cell_angle_beta                  83.035009
_cell_angle_gamma                 88.914947
_cell_volume                      1431.23802613

loop_
_atom_site_label
_atom_site_type_symbol
_atom_type_description
_atom_site_fract_x
_atom_site_fract_y
_atom_site_fract_z
_atom_type_partial_charge
C1    C     C_R   0.498908 0.740538 0.494368 0.865150
C2    C     C_1   0.457180 0.501355 0.789418 -0.177749
C3    C     C_R   0.245600 0.900129 0.480417 -0.176312
C4    C     C_R   0.123670 0.966479 0.509495 0.220856
C5    C     C_R   0.124334 0.073657 0.570074 -0.175047
C6    C     C_R   0.247356 0.122887 0.591723 0.164479
C7    C     C_R   0.371720 0.067089 0.546066 0.087643
C8    C     C_R   0.370041 0.945118 0.506556 0.006970
C9    C     C_R   0.494564 0.875565 0.492963 -0.094595
C10   C     C_R   0.617953 0.935744 0.494938 -0.215785
C11   C     C_R   0.619426 0.062695 0.510397 -0.211876
C12   C     C_R   0.475665 0.500677 0.685614 0.873440
C13   C     C_R   0.496756 0.129667 0.531096 -0.114220
C14   C     C_R   0.836308 0.663393 0.631122 -0.209929
C15   C     C_R   0.894791 0.741810 0.696863 0.006392
C16   C     C_R   0.034676 0.740646 0.696531 -0.216500
C17   C     C_R   0.116248 0.661200 0.631039 -0.167886
C18   C     C_R   0.060391 0.579819 0.564548 0.143709
C19   C     C_R   0.915884 0.580271 0.564504 0.159361
C20   C     C_R   0.940309 0.422741 0.438792 -0.123709
C21   C     C_R   0.083365 0.422799 0.438808 -0.112941
C22   C     C_R   0.498858 0.261585 0.512101 0.888130
C23   C     C_R   0.524323 0.499779 0.314375 0.904638
C24   C     C_1   0.542750 0.500706 0.210545 -0.184480
C25   C     C_2   0.558517 0.502641 0.018819 -0.151422
C26   C     C_2   0.441359 0.502365 0.981162 -0.160175
C27   C     C_1   0.445234 0.501920 0.877244 0.014774
C28   C     C_1   0.554658 0.501656 0.122728 0.010552
H1    H     H_    0.344076 0.501814 0.027544 0.158860
H2    H     H_    0.728866 0.671085 0.634108 0.210945
H3    H     H_    0.081313 0.802379 0.746387 0.157147
H4    H     H_    0.222650 0.666629 0.634217 0.214459
H5    H     H_    0.146653 0.359549 0.388873 0.155360
H6    H     H_    0.655803 0.503025 0.972420 0.162334
H7    H     H_    0.713851 0.884903 0.481443 0.180743
H8    H     H_    0.242379 0.817822 0.433077 0.178738
H9    H     H_    0.029000 0.118938 0.600366 0.155666
H10   H     H_    0.716523 0.108565 0.502205 0.171937
H11   H     H_    0.896223 0.359543 0.388820 0.145736
N1    N     N_R   0.857120 0.501200 0.500900 -0.113728
N2    N     N_R   0.142720 0.501280 0.500940 -0.126482
O1    O     O_R   0.385310 0.683220 0.500000 -0.647389
O2    O     O_R   0.614640 0.683250 0.500010 -0.637198
O3    O     O_R   0.368830 0.499960 0.640340 -0.637510
O4    O     O_R   0.598160 0.499980 0.640350 -0.623334
O5    O     O_R   0.385360 0.316750 0.499990 -0.605664
O6    O     O_R   0.614690 0.316780 0.500000 -0.620956
O7    O     O_R   0.401840 0.500020 0.359650 -0.607909
O8    O     O_R   0.631170 0.500040 0.359660 -0.603939
Zn1   Zn    Zn3+2 0.346870 0.499980 0.499990 0.921577
Zn2   Zn    Zn3+2 0.653130 0.500020 0.500010 0.936575
C29   C     C_1   0.810599 0.826203 0.763307 0.145794
N3    N     N_1   0.742869 0.894031 0.816566 -0.201590
C30   C     C_3   0.992176 0.921851 0.479352 -0.935093
H12   H     H_    0.004775 0.830250 0.438445 0.245269
H13   H     H_    0.918377 0.911446 0.546319 0.249074
H14   H     H_    0.951088 0.991889 0.431270 0.236297
C31   C     C_3   0.241199 0.224373 0.671192 -0.829998
H15   H     H_    0.343481 0.247272 0.690591 0.224249
H16   H     H_    0.190354 0.309833 0.647156 0.264676
H17   H     H_    0.181140 0.191788 0.739579 0.221884

loop_
_geom_bond_atom_site_label_1
_geom_bond_atom_site_label_2
_ccdc_geom_bond_type
N2    Zn1   S    
C11   H10   S    
C23   C24   S    
O8    Zn2   S    
C6    C7    A    
C12   O4    A    
C5    H9    S    
N1    Zn2   S    
C9    C10   A    
C6    C31   S    
C25   H6    S    
C2    C12   S    
C31   H17   S    
O7    Zn1   S    
C17   C18   A    
C25   C26   D    
C7    C8    A    
C12   O3    A    
C15   C29   S    
C29   N3    T    
C16   H3    S    
C11   C13   A    
O2    Zn2   S    
C26   C27   S    
C2    C27   T    
C3    H8    S    
O1    Zn1   S    
C21   N2    A    
C4    C5    A    
C22   O5    A    
C14   H2    S    
C13   C22   S    
C22   O6    A    
C3    C8    A    
C5    C6    A    
C20   N1    A    
C10   H7    S    
C30   H13   S    
C23   O8    A    
C21   H5    S    
C19   N1    A    
O4    Zn2   S    
C31   H16   S    
C15   C16   A    
C24   C28   T    
C1    O1    A    
C7    C13   A    
C1    C9    S    
C20   C21   A    
C26   H1    S    
C18   C19   A    
C10   C11   A    
C18   N2    A    
O3    Zn1   S    
C20   H11   S    
C17   H4    S    
O5    Zn1   S    
C30   H12   S    
C16   C17   A    
O6    Zn2   S    
C23   O7    A    
C4    C30   S    
C31   H15   S    
C14   C15   A    
C14   C19   A    
C1    O2    A    
C3    C4    A    
C8    C9    A    
C25   C28   S    
C30   H14   S    
