data_mof_unit_52068.cif
_audit_creation_date              2012-12-11T15:46:49-0500
_audit_creation_method            fapswitch 2.2
_symmetry_space_group_name_H-M    P1
_symmetry_Int_Tables_number       1
_space_group_crystal_system       triclinic
_cell_length_a                    11.489588
_cell_length_b                    11.536649
_cell_length_c                    19.51362
_cell_angle_alpha                 90.359746
_cell_angle_beta                  89.621103
_cell_angle_gamma                 60.103192
_cell_volume                      2242.16349394

loop_
_atom_site_label
_atom_site_type_symbol
_atom_type_description
_atom_site_fract_x
_atom_site_fract_y
_atom_site_fract_z
_atom_type_partial_charge
C1    C     C_R   0.640472 0.117444 0.599198 0.534793
C2    C     C_1   0.603944 0.769613 0.676472 0.000797
C3    C     C_1   0.127851 0.198635 0.859473 0.002768
C4    C     C_1   0.171255 0.170000 0.727733 -0.032969
C5    C     C_1   0.150891 0.181983 0.799024 -0.032292
C6    C     C_1   0.194441 0.160798 0.667266 0.000451
C7    C     C_1   0.678645 0.190791 0.860936 0.002645
C8    C     C_1   0.658252 0.167175 0.729089 -0.031712
C9    C     C_1   0.665582 0.180512 0.800468 -0.031782
C10   C     C_1   0.652660 0.149855 0.668620 0.002240
C11   C     C_R   0.705921 0.565333 0.205964 0.012757
C12   C     C_R   0.579387 0.804473 0.605615 0.562295
C13   C     C_R   0.591667 0.585944 0.241558 0.015156
C14   C     C_R   0.572447 0.625428 0.308814 0.029209
C15   C     C_R   0.791577 0.605584 0.311935 -0.169686
C16   C     C_R   0.812182 0.562506 0.243111 -0.160095
C17   C     C_3   0.446309 0.674194 0.224805 -0.267965
C18   C     C_3   0.424869 0.716977 0.298870 -0.271898
C19   C     C_R   0.665478 0.649102 0.342959 0.011559
C20   C     C_R   0.120452 0.206705 0.196335 0.001648
C21   C     C_R   0.153676 0.290597 0.230793 0.006365
C22   C     C_R   0.182189 0.273466 0.298741 0.015448
C23   C     C_R   0.240119 0.145482 0.597989 0.537490
C24   C     C_R   0.120237 0.101158 0.305186 -0.041161
C25   C     C_R   0.093097 0.118735 0.234539 -0.147397
C26   C     C_3   0.260625 0.323564 0.214547 -0.280623
C27   C     C_3   0.294289 0.303229 0.289835 -0.249532
C28   C     C_R   0.177194 0.172477 0.336014 0.020789
C29   C     C_R   0.670084 0.185790 0.193317 0.000690
C30   C     C_R   0.754141 0.060566 0.221345 0.036106
C31   C     C_R   0.754063 0.041333 0.290656 -0.000961
C32   C     C_R   0.591566 0.274563 0.308319 -0.170955
C33   C     C_R   0.590653 0.293821 0.237584 -0.164003
C34   C     C_R   0.645647 0.111872 0.402559 0.535188
C35   C     C_3   0.762897 0.929022 0.204892 -0.136081
C36   C     C_3   0.766008 0.907226 0.281703 -0.238033
C37   C     C_R   0.669600 0.145701 0.334828 -0.003004
C38   C     C_R   0.082609 0.230956 0.928789 0.550898
C39   C     C_R   0.682899 0.607231 0.930233 0.553930
C40   C     C_R   0.708342 0.206525 0.930237 0.543266
C41   C     C_R   0.079013 0.237595 0.126233 0.540247
C42   C     C_R   0.711505 0.545531 0.132318 0.569080
C43   C     C_R   0.706051 0.210280 0.125986 0.530681
C44   C     C_R   0.619141 0.734290 0.403711 0.548564
C45   C     C_R   0.243858 0.140915 0.401639 0.535289
C46   C     C_1   0.661068 0.667155 0.864085 -0.003962
C47   C     C_1   0.622626 0.741863 0.736281 -0.031982
C48   C     C_1   0.643371 0.705824 0.805878 -0.031782
Cr1   Cr    Cr6+3 0.404720 0.198220 0.499960 1.014581
Cr2   Cr    Cr6+3 0.698290 0.897110 0.500380 1.001301
Cr3   Cr    Cr6+3 0.396970 0.904720 0.499610 0.997419
Cr4   Cr    Cr6+3 0.926290 0.152010 0.028150 1.004048
Cr5   Cr    Cr6+3 0.921440 0.451830 0.027490 0.990505
Cr6   Cr    Cr6+3 0.626370 0.446880 0.028730 1.011110
H1    H     H_    0.868504 0.616118 0.338245 0.123273
H2    H     H_    0.341299 0.247647 0.180708 0.136490
H3    H     H_    0.393522 0.213778 0.299614 0.156876
H4    H     H_    0.274292 0.396424 0.317070 0.137608
H5    H     H_    0.525458 0.357800 0.341354 0.129249
H6    H     H_    0.528662 0.392453 0.217407 0.136292
H7    H     H_    0.669663 0.940634 0.181329 0.131357
H8    H     H_    0.676036 0.904668 0.300995 0.139837
H9    H     H_    0.863327 0.826801 0.301508 0.128053
H10   H     H_    0.905841 0.538037 0.217821 0.138534
H11   H     H_    0.394793 0.618096 0.210202 0.123398
H12   H     H_    0.428042 0.757405 0.189927 0.158591
H13   H     H_    0.394636 0.824242 0.305283 0.150878
H14   H     H_    0.363009 0.683586 0.327516 0.126896
H15   H     H_    0.052324 0.062881 0.209454 0.140408
H16   H     H_    0.218487 0.429123 0.198363 0.130890
O1    O     O_R   0.267750 0.231960 0.575440 -0.500336
O2    O     O_R   0.685950 0.784660 0.430010 -0.503459
O3    O     O_R   0.502510 0.767000 0.423980 -0.518752
O4    O     O_R   0.288320 0.026340 0.429250 -0.511222
O5    O     O_3   0.499990 0.000020 0.499980 -0.265760
O6    O     O_R   0.821590 0.119350 0.952850 -0.512958
O7    O     O_R   0.037230 0.162540 0.957390 -0.488923
O8    O     O_R   0.056530 0.344750 0.951370 -0.506717
O9    O     O_R   0.798000 0.560370 0.957490 -0.493759
O10   O     O_R   0.596230 0.579400 0.952760 -0.500137
O11   O     O_R   0.639160 0.321170 0.958690 -0.491485
O12   O     O_R   0.527290 0.186640 0.570530 -0.491158
O13   O     O_R   0.821370 0.124220 0.104400 -0.526977
O14   O     O_R   0.037020 0.167050 0.097880 -0.509207
O15   O     O_R   0.056310 0.349620 0.102920 -0.531913
O16   O     O_R   0.797790 0.564880 0.097980 -0.520471
O17   O     O_R   0.596000 0.584270 0.104310 -0.523777
O18   O     O_R   0.638950 0.325690 0.099180 -0.521483
O19   O     O_3   0.824700 0.350240 0.028120 -0.265474
O20   O     O_R   0.728110 0.003450 0.576380 -0.523887
O21   O     O_R   0.682980 0.789190 0.570500 -0.486691
O22   O     O_R   0.499300 0.771880 0.575540 -0.500683
O23   O     O_R   0.285350 0.030870 0.569740 -0.514212
O24   O     O_R   0.270960 0.227070 0.423890 -0.517106
O25   O     O_R   0.530270 0.182120 0.430040 -0.504202
O26   O     O_R   0.731320 0.998570 0.424830 -0.528107
C49   C     C_3   0.893979 0.827972 0.167596 -0.249045
C50   C     C_3   0.870596 0.816739 0.091109 -0.290429
C51   C     C_3   0.998592 0.710480 0.055439 -0.414774
H17   H     H_    0.078849 0.737144 0.059312 0.135409
H18   H     H_    0.033635 0.611286 0.079077 0.170169
H19   H     H_    0.978310 0.703694 0.000430 0.152449
H20   H     H_    0.790971 0.789839 0.084852 0.183225
H21   H     H_    0.836160 0.913752 0.065533 0.195535
H22   H     H_    0.972847 0.856239 0.174120 0.154150
H23   H     H_    0.932124 0.727703 0.190532 0.138390
C52   C     C_3   0.094176 0.003152 0.344354 -0.250940
C53   C     C_3   0.997572 0.069698 0.405408 -0.276414
C54   C     C_3   0.006903 0.964981 0.455892 -0.408265
H24   H     H_    0.990609 0.888948 0.429286 0.162808
H25   H     H_    0.107542 0.914071 0.479864 0.149013
H26   H     H_    0.929970 0.014240 0.497001 0.174040
H27   H     H_    0.019779 0.139959 0.433695 0.167923
H28   H     H_    0.893660 0.129013 0.386453 0.166446
H29   H     H_    0.050881 0.957042 0.310234 0.124851
H30   H     H_    0.190579 0.919804 0.362353 0.164246

loop_
_geom_bond_atom_site_label_1
_geom_bond_atom_site_label_2
_ccdc_geom_bond_type
Cr1   O12   S    
C21   C26   S    
C1    O20   A    
C34   C37   S    
C43   O13   A    
C14   C18   S    
C12   O21   A    
C35   C36   S    
Cr3   O4    S    
C2    C12   S    
C20   C41   S    
C15   C19   A    
C17   H12   S    
C30   C35   S    
C43   O18   A    
Cr5   O9    S    
Cr3   O5    S    
C54   H25   S    
Cr6   O17   S    
C20   C25   A    
C18   H14   S    
C15   C16   A    
C29   C33   A    
C53   C54   S    
C11   C42   S    
C53   H28   S    
Cr4   O14   S    
Cr2   O2    S    
Cr2   O20   S    
C51   H17   S    
C3    C38   S    
C8    C9    S    
C52   C53   S    
Cr1   O5    S    
Cr5   O16   S    
C42   O16   A    
Cr1   O24   S    
C36   H9    S    
C24   C28   A    
C49   H22   S    
C22   C28   A    
C13   C14   A    
C29   C43   S    
Cr4   O19   S    
C34   O25   A    
C36   H8    S    
C45   O24   A    
C14   C19   A    
C49   C50   S    
Cr6   O10   S    
C46   C48   T    
C28   C45   S    
C23   O1    A    
C24   C25   A    
Cr6   O19   S    
C4    C6    T    
C27   H3    S    
C54   H26   S    
C38   O8    A    
Cr4   O6    S    
C18   H13   S    
C41   O14   A    
C23   O23   A    
C31   C37   A    
C45   O4    A    
C15   H1    S    
C53   H27   S    
Cr4   O13   S    
C29   C30   A    
Cr3   O22   S    
C11   C16   A    
C47   C48   S    
C7    C40   S    
C17   C18   S    
C26   C27   S    
C35   H7    S    
C24   C52   S    
C32   C37   A    
Cr1   O25   S    
C52   H29   S    
Cr3   O23   S    
C39   C46   S    
C49   H23   S    
C51   H18   S    
C33   H6    S    
C22   C27   S    
Cr5   O19   S    
C26   H16   S    
C25   H15   S    
Cr4   O7    S    
C19   C44   S    
C7    C9    T    
C40   O11   A    
C12   O22   A    
C1    C10   S    
Cr3   O3    S    
C34   O26   A    
C4    C5    S    
C3    C5    T    
C27   H4    S    
C26   H2    S    
C38   O7    A    
C2    C47   T    
C41   O15   A    
C17   H11   S    
C13   C17   S    
C32   C33   A    
Cr5   O8    S    
C1    O12   A    
C35   C49   S    
Cr2   O5    S    
C39   O10   A    
Cr6   O18   S    
C11   C13   A    
Cr2   O26   S    
C30   C31   A    
C50   H21   S    
C6    C23   S    
C44   O2    A    
C44   O3    A    
C52   H30   S    
C40   O6    A    
Cr2   O21   S    
C51   H19   S    
C20   C21   A    
C8    C10   T    
C50   C51   S    
Cr1   O1    S    
C54   H24   S    
C31   C36   S    
Cr5   O15   S    
C42   O17   A    
C16   H10   S    
C32   H5    S    
C21   C22   A    
Cr6   O11   S    
C50   H20   S    
C39   O9    A    
