data_mof_unit_34867.cif
_audit_creation_date              2012-12-10T17:18:52-0500
_audit_creation_method            fapswitch 2.2
_symmetry_space_group_name_H-M    P1
_symmetry_Int_Tables_number       1
_space_group_crystal_system       triclinic
_cell_length_a                    9.643071
_cell_length_b                    10.788839
_cell_length_c                    13.474162
_cell_angle_alpha                 93.55026
_cell_angle_beta                  73.099031
_cell_angle_gamma                 89.726497
_cell_volume                      1338.31738099

loop_
_atom_site_label
_atom_site_type_symbol
_atom_type_description
_atom_site_fract_x
_atom_site_fract_y
_atom_site_fract_z
_atom_type_partial_charge
C1    C     C_R   0.498740 0.737090 0.502336 0.891919
C2    C     C_R   0.451529 0.438709 0.971167 0.036499
C3    C     C_R   0.495947 0.442363 0.861501 0.002800
C4    C     C_R   0.555754 0.462046 0.026234 -0.025301
C5    C     C_R   0.702523 0.482475 0.970358 -0.115748
C6    C     C_R   0.747573 0.460088 0.862741 0.626026
C7    C     C_R   0.646552 0.433431 0.810292 -0.256516
C8    C     C_R   0.517922 0.470556 0.135049 -0.199757
C9    C     C_R   0.762317 0.526298 0.131335 -0.151219
C10   C     C_R   0.388288 0.451795 0.807818 -0.186138
C11   C     C_R   0.319263 0.885476 0.681715 -0.218775
C12   C     C_R   0.424598 0.486521 0.698201 0.793945
C13   C     C_R   0.232581 0.957640 0.766806 0.695486
C14   C     C_R   0.231937 0.086571 0.766009 -0.188266
C15   C     C_R   0.318174 0.143975 0.680292 -0.217489
C16   C     C_R   0.406682 0.072899 0.593089 0.019493
C17   C     C_R   0.406607 0.941875 0.593663 -0.068375
C18   C     C_R   0.496214 0.871041 0.506791 -0.287307
C19   C     C_R   0.584392 0.928259 0.421597 0.526331
C20   C     C_R   0.583637 0.056215 0.420597 0.562363
C21   C     C_R   0.496868 0.128947 0.505748 -0.316838
C22   C     C_R   0.923590 0.330652 0.354390 0.530910
C23   C     C_R   0.499710 0.262732 0.500795 0.910466
C24   C     C_R   0.028885 0.252297 0.286856 0.670352
C25   C     C_R   0.168931 0.254053 0.290606 -0.442986
C26   C     C_R   0.206002 0.334894 0.361285 -0.261802
C27   C     C_R   0.104638 0.418497 0.431123 0.164024
C28   C     C_R   0.955618 0.417809 0.429743 -0.028771
C29   C     C_R   0.898972 0.576871 0.565992 0.003991
C30   C     C_R   0.046489 0.576940 0.565847 0.046891
C31   C     C_R   0.577349 0.500860 0.300688 0.927955
C32   C     C_R   0.802289 0.520805 0.023455 0.752495
C33   C     C_R   0.620936 0.498682 0.187308 -0.135731
C34   C     C_R   0.244110 0.426334 0.860425 -0.216060
C35   C     C_R   0.205624 0.398571 0.964273 0.730025
C36   C     C_R   0.305604 0.410395 0.020501 -0.233919
Cu1   Cu    Cu3+1 0.359340 0.500010 0.500010 0.980015
Cu2   Cu    Cu3+1 0.640660 0.499990 0.499990 1.030409
H1    H     H_    0.841450 0.553468 0.171001 0.196996
H2    H     H_    0.318023 0.785653 0.685978 0.159854
H3    H     H_    0.164817 0.142482 0.832196 0.202085
H4    H     H_    0.314945 0.244045 0.683210 0.158254
H5    H     H_    0.161823 0.424127 0.820259 0.246843
N1    N     N_R   0.852480 0.498790 0.499000 -0.186763
N2    N     N_R   0.148360 0.498710 0.498970 -0.185122
O1    O     O_R   0.381190 0.680360 0.500010 -0.587429
O2    O     O_R   0.618760 0.680340 0.500000 -0.558837
O3    O     O_R   0.323240 0.499990 0.650990 -0.577263
O4    O     O_R   0.560820 0.499960 0.650980 -0.608769
O5    O     O_R   0.381240 0.319660 0.500000 -0.614457
O6    O     O_R   0.618810 0.319640 0.499990 -0.512658
O7    O     O_R   0.439180 0.500040 0.349020 -0.623084
O8    O     O_R   0.676760 0.500010 0.349010 -0.507660
F1    F     F_    0.149324 0.902172 0.850607 -0.603884
F2    F     F_    0.663323 0.108859 0.334070 -0.537409
H6    H     H_    0.821839 0.640002 0.620348 0.143250
F3    F     F_    0.794389 0.313280 0.339883 -0.565433
F4    F     F_    0.993477 0.172390 0.216657 -0.520525
H7    H     H_    0.250192 0.192281 0.238006 0.231594
H8    H     H_    0.316937 0.326999 0.356610 0.253315
F5    F     F_    0.890047 0.459688 0.807660 -0.640922
H9    H     H_    0.078890 0.640262 0.620046 0.153687
F6    F     F_    0.936777 0.557384 0.971325 -0.585145
H10   H     H_    0.408469 0.456291 0.181093 0.171285
H11   H     H_    0.266259 0.392655 0.101539 0.155718
F7    F     F_    0.069790 0.361237 0.011723 -0.610478
H12   H     H_    0.691118 0.400597 0.730133 0.203646
F8    F     F_    0.668339 0.859286 0.337579 -0.602084

loop_
_geom_bond_atom_site_label_1
_geom_bond_atom_site_label_2
_ccdc_geom_bond_type
C2    C4    A    
C24   C25   A    
C31   C33   S    
Cu2   N1    S    
C16   C21   A    
C29   H6    S    
C30   N2    A    
C23   O6    A    
C19   C20   A    
C9    C32   A    
C12   O3    A    
C31   O7    A    
C4    C8    A    
C5    C32   A    
C27   N2    A    
C22   F3    S    
C30   H9    S    
C12   O4    A    
C1    C18   S    
C19   F8    S    
C10   C34   A    
C3    C10   A    
C22   C28   A    
C13   C14   A    
C31   O8    A    
Cu1   O3    S    
C9    C33   A    
Cu1   O5    S    
C11   C13   A    
C26   C27   A    
C29   C30   A    
Cu2   O8    S    
C10   C12   S    
C8    H10   S    
C14   H3    S    
C5    C6    A    
C6    F5    S    
C1    O2    A    
Cu1   O1    S    
Cu1   Cu2   S    
C17   C18   A    
C6    C7    A    
C3    C7    A    
C8    C33   A    
C21   C23   S    
C29   N1    A    
C11   H2    S    
C34   C35   A    
C22   C24   A    
C1    O1    A    
C20   F2    S    
Cu1   N2    S    
C15   C16   A    
C16   C17   A    
C9    H1    S    
C20   C21   A    
C32   F6    S    
C7    H12   S    
C24   F4    S    
C13   F1    S    
C2    C36   A    
C27   C28   A    
Cu2   O4    S    
Cu1   O7    S    
C14   C15   A    
C18   C19   A    
C23   O5    A    
C2    C3    A    
Cu2   O6    S    
C25   H7    S    
C35   F7    S    
C25   C26   A    
C36   H11   S    
C26   H8    S    
C28   N1    A    
C11   C17   A    
C34   H5    S    
C35   C36   A    
C15   H4    S    
C4    C5    A    
Cu2   O2    S    
