data_mof_unit_61408.cif
_audit_creation_date              2012-10-26T19:50:36-0400
_audit_creation_method            fapswitch 2.2
_symmetry_space_group_name_H-M    P1
_symmetry_Int_Tables_number       1
_space_group_crystal_system       triclinic
_cell_length_a                    13.978944
_cell_length_b                    15.098547
_cell_length_c                    15.780232
_cell_angle_alpha                 91.78989
_cell_angle_beta                  69.114733
_cell_angle_gamma                 89.439553
_cell_volume                      3109.47134099

loop_
_atom_site_label
_atom_site_type_symbol
_atom_type_description
_atom_site_fract_x
_atom_site_fract_y
_atom_site_fract_z
_atom_type_partial_charge
Br1   Br    Br    0.672406 0.642850 0.636953 -0.329894
Br2   Br    Br    0.877290 0.440897 0.002846 -0.258638
Br3   Br    Br    0.303081 0.761014 0.655258 -0.276570
Br4   Br    Br    0.696908 0.238996 0.344721 -0.276588
Br5   Br    Br    0.327594 0.357150 0.363047 -0.329901
Br6   Br    Br    0.915291 0.692410 0.556073 -0.318867
Br7   Br    Br    0.084709 0.307590 0.443926 -0.318871
Br8   Br    Br    0.437063 0.622298 0.239923 -0.399346
Br9   Br    Br    0.562928 0.377680 0.760066 -0.399359
Br10  Br    Br    0.806795 0.443291 0.223181 -0.324671
Br11  Br    Br    0.193214 0.556735 0.776820 -0.324665
Br12  Br    Br    0.122713 0.559098 0.997159 -0.258630
C1    C     C_R   0.498416 0.669845 0.502251 0.579474
C2    C     C_R   0.588810 0.184234 0.439891 0.182714
C3    C     C_R   0.495785 0.766204 0.501165 -0.040015
C4    C     C_R   0.504218 0.233796 0.498830 -0.040010
C5    C     C_R   0.567488 0.807400 0.428454 -0.085886
C6    C     C_R   0.432526 0.192598 0.571549 -0.085882
C7    C     C_R   0.561852 0.898748 0.420638 0.255613
C8    C     C_R   0.438167 0.101249 0.579363 0.255616
C9    C     C_R   0.492660 0.951100 0.493259 0.030012
C10   C     C_R   0.507356 0.048901 0.506736 0.030010
C11   C     C_R   0.915116 0.444646 0.440140 -0.099808
C12   C     C_R   0.501585 0.330155 0.497747 0.579474
C13   C     C_R   0.084884 0.555355 0.559859 -0.099809
C14   C     C_R   0.813169 0.442616 0.444255 0.066182
C15   C     C_R   0.186831 0.557385 0.555744 0.066180
C16   C     C_R   0.436553 0.499088 0.673209 0.592519
C17   C     C_R   0.563447 0.500911 0.326791 0.592518
C18   C     C_R   0.770476 0.563693 0.549777 0.341976
C19   C     C_R   0.229524 0.436307 0.450223 0.341979
C20   C     C_R   0.874249 0.572648 0.540316 0.143847
C21   C     C_R   0.125751 0.427352 0.459684 0.143847
C22   C     C_R   0.946527 0.503705 0.496346 0.013496
C23   C     C_R   0.379569 0.502078 0.099987 -0.064972
C24   C     C_R   0.053474 0.496296 0.503653 0.013497
C25   C     C_R   0.396384 0.498707 0.774257 -0.004087
C26   C     C_R   0.603616 0.501286 0.225743 -0.004084
C27   C     C_R   0.263480 0.528229 0.923781 0.199975
C28   C     C_R   0.736521 0.471758 0.076221 0.199977
C29   C     C_R   0.294605 0.526024 0.828406 0.173321
C30   C     C_R   0.705397 0.473974 0.171595 0.173329
C31   C     C_R   0.463378 0.472186 0.817873 0.106844
C32   C     C_R   0.536619 0.527795 0.182124 0.106849
C33   C     C_R   0.439727 0.494219 0.910807 0.017440
C34   C     C_R   0.620430 0.497884 0.900012 -0.064974
C35   C     C_R   0.560272 0.505753 0.089192 0.017437
C36   C     C_R   0.336041 0.512638 0.965106 0.000856
C37   C     C_R   0.663958 0.487336 0.034895 0.000855
C38   C     C_R   0.515282 0.496582 0.951999 0.063198
C39   C     C_R   0.484716 0.503383 0.048000 0.063197
C40   C     C_R   0.306815 0.511792 0.059790 -0.061748
C41   C     C_R   0.693183 0.488174 0.940210 -0.061752
C42   C     C_R   0.405329 0.907106 0.549617 0.280866
C43   C     C_R   0.594680 0.092899 0.450369 0.280864
C44   C     C_R   0.411192 0.815770 0.560094 0.182719
Cl1   Cl    Cl    0.281606 0.956268 0.579134 -0.347918
Cl2   Cl    Cl    0.718409 0.043745 0.420841 -0.347913
Cl3   Cl    Cl    0.616016 0.937922 0.309612 -0.384660
Cl4   Cl    Cl    0.383994 0.062067 0.690385 -0.384663
Cu1   Cu    Cu3+1 0.403570 0.500010 0.500000 1.111347
Cu2   Cu    Cu3+1 0.596430 0.499990 0.500000 1.111345
H1    H     H_    0.227432 0.516416 0.104132 0.188837
H2    H     H_    0.377590 0.232338 0.625974 0.185283
H3    H     H_    0.772567 0.483551 0.895869 0.188835
H4    H     H_    0.968860 0.402955 0.388261 0.192547
H5    H     H_    0.031140 0.597046 0.611739 0.192548
H6    H     H_    0.791772 0.395099 0.402139 0.204919
H7    H     H_    0.208228 0.604903 0.597859 0.204921
H8    H     H_    0.352120 0.493964 0.172448 0.184076
H9    H     H_    0.647880 0.505996 0.827551 0.184073
H10   H     H_    0.622428 0.767658 0.374035 0.185284
N1    N     N_R   0.741310 0.499980 0.500000 -0.248128
N2    N     N_R   0.258690 0.500020 0.500000 -0.248128
O1    O     O_R   0.418570 0.628550 0.499990 -0.474835
O2    O     O_R   0.581430 0.371450 0.500010 -0.474838
O3    O     O_R   0.581440 0.628540 0.499990 -0.469998
O4    O     O_R   0.418560 0.371460 0.500010 -0.469995
O5    O     O_R   0.372890 0.500010 0.629830 -0.479190
O6    O     O_R   0.627110 0.499990 0.370170 -0.479189
O7    O     O_R   0.535760 0.500000 0.629840 -0.446107
O8    O     O_R   0.464240 0.500000 0.370160 -0.446106

loop_
_geom_bond_atom_site_label_1
_geom_bond_atom_site_label_2
_ccdc_geom_bond_type
Br6   C20   S    
Br10  C30   S    
Cu2   O3    S    
C13   H5    S    
C14   N1    A    
C35   C37   A    
Cu1   O1    S    
C16   C25   S    
C11   H4    S    
Cu2   O6    S    
C7    C9    A    
C26   C30   A    
Cu1   O8    S    
C9    C42   A    
C28   C37   A    
C21   C24   A    
C11   C14   A    
C16   O5    A    
C1    O1    A    
C23   H8    S    
C17   C26   S    
C19   C21   A    
Cu2   N1    S    
C8    Cl4   S    
C15   N2    A    
C41   H3    S    
C22   C24   S    
C15   H7    S    
C32   C35   A    
C28   C30   A    
C2    C43   A    
C4    C12   S    
C9    C10   S    
Br4   C2    S    
Br7   C21   S    
Cu2   O2    S    
C42   C44   A    
C1    O3    A    
Br9   C31   S    
C27   C29   A    
C18   N1    A    
C12   O2    A    
C19   N2    A    
C35   C39   A    
C7    Cl3   S    
C20   C22   A    
C25   C31   A    
C26   C32   A    
Br3   C44   S    
Cu1   O4    S    
C11   C22   A    
C38   C39   A    
C31   C33   A    
C34   H9    S    
C12   O4    A    
Cu2   O7    S    
C8    C10   A    
C1    C3    S    
C23   C39   A    
C2    C4    A    
C33   C36   A    
C3    C5    A    
C16   O7    A    
Br8   C32   S    
C40   H1    S    
C10   C43   A    
Cu1   N2    S    
C13   C15   A    
C34   C38   A    
C14   H6    S    
C3    C44   A    
Br12  C27   S    
C17   O8    A    
C18   C20   A    
C6    H2    S    
C17   O6    A    
C33   C38   A    
Cu1   O5    S    
C37   C41   A    
C34   C41   A    
Br1   C18   S    
C5    C7    A    
Br11  C29   S    
C6    C8    A    
C25   C29   A    
Cu1   Cu2   S    
C13   C24   A    
Br2   C28   S    
C36   C40   A    
C5    H10   S    
C4    C6    A    
C43   Cl2   S    
C23   C40   A    
C27   C36   A    
Br5   C19   S    
C42   Cl1   S    
