data_mof_unit_12832.cif
_audit_creation_date              2012-12-10T18:40:34-0500
_audit_creation_method            fapswitch 2.2
_symmetry_space_group_name_H-M    P1
_symmetry_Int_Tables_number       1
_space_group_crystal_system       triclinic
_cell_length_a                    10.778073
_cell_length_b                    11.566107
_cell_length_c                    16.514211
_cell_angle_alpha                 90.297742
_cell_angle_beta                  84.29899
_cell_angle_gamma                 90.231594
_cell_volume                      2048.44419014

loop_
_atom_site_label
_atom_site_type_symbol
_atom_type_description
_atom_site_fract_x
_atom_site_fract_y
_atom_site_fract_z
_atom_type_partial_charge
C1    C     C_R   0.500203 0.718834 0.500017 0.896891
C2    C     C_R   0.518121 0.496140 0.345606 1.005173
C3    C     C_R   0.463517 0.475820 0.743186 -0.334445
C4    C     C_R   0.530916 0.462514 0.260153 -0.314341
C5    C     C_R   0.564658 0.476895 0.790750 0.426623
C6    C     C_R   0.448326 0.505941 0.207897 0.402723
C7    C     C_R   0.546873 0.431530 0.869849 -0.407426
C8    C     C_R   0.450981 0.460279 0.129564 -0.384218
C9    C     C_R   0.429096 0.390773 0.903443 -0.151451
C10   C     C_R   0.526374 0.364493 0.104805 -0.138069
C11   C     C_R   0.325099 0.412940 0.860790 0.443206
C12   C     C_R   0.499810 0.281164 0.499919 0.923482
C13   C     C_R   0.618532 0.329378 0.154419 0.481196
C14   C     C_R   0.343660 0.446449 0.779410 0.418282
C15   C     C_R   0.615162 0.374244 0.233868 0.390618
C16   C     C_2   0.413160 0.333333 0.984879 0.372220
C17   C     C_2   0.515605 0.309679 0.023893 0.380808
C18   C     C_3   0.745386 0.580866 0.809181 0.077801
C19   C     C_3   0.833842 0.662544 0.758941 -0.289194
C20   C     C_3   0.913569 0.732239 0.813083 -0.988674
C21   C     C_3   0.243256 0.559523 0.231846 0.119347
C22   C     C_3   0.157599 0.644965 0.280768 -0.325995
C23   C     C_1   0.500529 0.838948 0.499975 -0.173555
C24   C     C_3   0.020815 0.610435 0.279963 -0.956132
C25   C     C_3   0.593701 0.155938 0.945249 0.093787
C26   C     C_3   0.713725 0.106097 0.902126 -0.301131
C27   C     C_3   0.688422 0.995734 0.855403 -0.972850
C28   C     C_3   0.260759 0.225714 0.059763 0.066341
C29   C     C_3   0.207844 0.150544 0.994463 -0.317164
C30   C     C_3   0.164020 0.033266 0.028475 -0.984410
C31   C     C_3   0.142798 0.504349 0.906973 0.154426
C32   C     C_3   0.168734 0.563098 0.987128 -0.369312
C33   C     C_3   0.109544 0.682719 0.996436 -1.001573
C34   C     C_1   0.499514 0.161058 0.499888 -0.151285
C35   C     C_3   0.828800 0.285302 0.126415 0.180999
C36   C     C_3   0.874643 0.349477 0.047677 -0.385452
C37   C     C_3   0.827781 0.474116 0.046798 -0.874738
C38   C     C_1   0.500298 0.940852 0.499934 0.006644
C39   C     C_1   0.499773 0.059156 0.499894 0.013151
C40   C     C_1   0.930242 0.500037 0.500008 0.051556
C41   C     C_1   0.069758 0.500032 0.499993 0.052264
C42   C     C_R   0.481327 0.497766 0.655020 0.957477
F1    F     F_    0.686554 0.324783 0.287533 -0.660568
F2    F     F_    0.242724 0.447489 0.736119 -0.641572
H1    H     H_    0.393278 0.500819 0.088244 0.202213
H2    H     H_    0.227446 0.471935 0.259198 0.141619
H3    H     H_    0.217925 0.558096 0.168250 0.142909
H4    H     H_    0.181460 0.647695 0.344710 0.237326
H5    H     H_    0.171719 0.732822 0.254377 0.228818
H6    H     H_    0.994278 0.609799 0.216640 0.263404
H7    H     H_    0.960993 0.673553 0.316396 0.274213
H8    H     H_    0.004163 0.523229 0.306862 0.269766
H9    H     H_    0.527038 0.169119 0.898825 0.128342
H10   H     H_    0.553374 0.093117 0.991690 0.146631
H11   H     H_    0.757395 0.171095 0.858703 0.233420
H12   H     H_    0.626229 0.428888 0.904555 0.217317
H13   H     H_    0.780148 0.087015 0.947645 0.228024
H14   H     H_    0.651399 0.927051 0.898067 0.262725
H15   H     H_    0.776579 0.965320 0.821767 0.275103
H16   H     H_    0.620260 0.012396 0.810629 0.269064
H17   H     H_    0.186359 0.238767 0.110516 0.154611
H18   H     H_    0.337890 0.180100 0.086375 0.119532
H19   H     H_    0.127619 0.195421 0.971306 0.254190
H20   H     H_    0.280520 0.136672 0.942769 0.210184
H21   H     H_    0.243175 0.985604 0.050675 0.270038
H22   H     H_    0.126051 0.981156 0.979871 0.274884
H23   H     H_    0.801140 0.524078 0.845770 0.153073
H24   H     H_    0.089453 0.044718 0.079322 0.265979
H25   H     H_    0.041668 0.487131 0.907774 0.152970
H26   H     H_    0.166215 0.565134 0.855573 0.153536
H27   H     H_    0.131747 0.508445 0.039143 0.250302
H28   H     H_    0.270871 0.573420 0.988686 0.224316
H29   H     H_    0.148347 0.740142 0.946386 0.273185
H30   H     H_    0.130100 0.721612 0.055290 0.279884
H31   H     H_    0.006941 0.676939 0.995772 0.272320
H32   H     H_    0.888656 0.207845 0.129700 0.118347
H33   H     H_    0.846792 0.338977 0.180022 0.163737
H34   H     H_    0.680637 0.634607 0.850710 0.125358
H35   H     H_    0.978148 0.352122 0.042667 0.188772
H36   H     H_    0.848007 0.301575 0.993686 0.267135
H37   H     H_    0.725804 0.477607 0.044955 0.271366
H38   H     H_    0.868970 0.518255 0.991304 0.232491
H39   H     H_    0.854109 0.522451 0.100841 0.249733
H40   H     H_    0.896027 0.611786 0.714361 0.245758
H41   H     H_    0.778467 0.722866 0.724754 0.220778
H42   H     H_    0.853898 0.779107 0.861045 0.267807
H43   H     H_    0.971074 0.795922 0.775714 0.275966
H44   H     H_    0.976524 0.673852 0.842548 0.264877
N1    N     N_1   0.819370 0.500000 0.500010 -0.063071
N2    N     N_1   0.180630 0.500000 0.499990 -0.068002
O1    O     O_R   0.397470 0.665550 0.500010 -0.613725
O2    O     O_3   0.368576 0.595769 0.233429 -0.627061
O3    O     O_3   0.622139 0.261540 0.982824 -0.640137
O4    O     O_3   0.295721 0.336253 0.028516 -0.648348
O5    O     O_3   0.204877 0.396332 0.897001 -0.593988
O6    O     O_3   0.703882 0.244800 0.126881 -0.578658
O7    O     O_R   0.602530 0.334450 0.499990 -0.585686
O8    O     O_R   0.602530 0.665550 0.499990 -0.620261
O9    O     O_R   0.397470 0.334450 0.500010 -0.614618
O10   O     O_R   0.385350 0.500000 0.615800 -0.547869
O11   O     O_R   0.614650 0.500000 0.384200 -0.570383
O12   O     O_R   0.590410 0.500000 0.615800 -0.571004
O13   O     O_R   0.409590 0.500000 0.384200 -0.614171
O14   O     O_3   0.681535 0.511778 0.755691 -0.602291
Zn1   Zn    Zn3+2 0.363080 0.500000 0.500000 1.015186
Zn2   Zn    Zn3+2 0.636920 0.500000 0.500000 1.030599

loop_
_geom_bond_atom_site_label_1
_geom_bond_atom_site_label_2
_ccdc_geom_bond_type
C24   H8    S    
C22   H4    S    
C29   H19   S    
C3    C42   S    
C25   O3    S    
O1    Zn1   S    
C35   C36   S    
C26   H11   S    
C32   H28   S    
C35   O6    S    
O10   Zn1   S    
C28   C29   S    
C9    C16   S    
C25   H9    S    
C27   H16   S    
C38   C39   S    
C11   C14   A    
C6    O2    S    
C10   C17   S    
C20   H43   S    
C28   O4    S    
C18   C19   S    
C8    H1    S    
C12   O9    A    
C33   H31   S    
C31   H26   S    
C19   C20   S    
C16   C17   D    
C20   H42   S    
N1    Zn2   S    
C40   N1    T    
C28   H17   S    
C24   H7    S    
C41   N2    T    
C29   H20   S    
C1    O1    A    
C21   C22   S    
C37   H37   S    
C7    H12   S    
C42   O12   A    
C32   H27   S    
C24   H6    S    
O9    Zn1   S    
C35   H32   S    
C13   O6    S    
C34   C39   T    
C25   H10   S    
C4    C6    A    
C36   H36   S    
C5    C7    A    
C6    C8    A    
C2    O11   A    
C3    C5    A    
C25   C26   S    
C10   C13   A    
C2    C4    S    
C29   C30   S    
C42   O10   A    
C31   C32   S    
C18   H34   S    
C26   C27   S    
O13   Zn1   S    
C18   O14   S    
C9    C11   A    
C12   O7    A    
C30   H22   S    
C3    C14   A    
C36   H35   S    
C22   H5    S    
O7    Zn2   S    
C33   H29   S    
C40   C41   S    
C1    C23   S    
C13   C15   A    
C22   C24   S    
C37   H38   S    
C17   O3    S    
C12   C34   S    
C19   H40   S    
C14   F2    S    
C21   H2    S    
C11   O5    S    
O11   Zn2   S    
C7    C9    A    
C36   C37   S    
N2    Zn1   S    
C19   H41   S    
C27   H14   S    
C1    O8    A    
C23   C38   T    
C16   O4    S    
O8    Zn2   S    
C32   C33   S    
C4    C15   A    
C18   H23   S    
C15   F1    S    
C27   H15   S    
C2    O13   A    
C31   O5    S    
C20   H44   S    
C35   H33   S    
O12   Zn2   S    
C26   H13   S    
C5    O14   S    
C30   H21   S    
C33   H30   S    
C31   H25   S    
C8    C10   A    
C37   H39   S    
C30   H24   S    
C21   H3    S    
C21   O2    S    
C28   H18   S    
