data_mof_unit_47052.cif
_audit_creation_date              2012-12-11T16:04:56-0500
_audit_creation_method            fapswitch 2.2
_symmetry_space_group_name_H-M    P1
_symmetry_Int_Tables_number       1
_space_group_crystal_system       triclinic
_cell_length_a                    10.642389
_cell_length_b                    10.64494
_cell_length_c                    16.906869
_cell_angle_alpha                 98.415283
_cell_angle_beta                  99.122654
_cell_angle_gamma                 61.899277
_cell_volume                      1662.53218069

loop_
_atom_site_label
_atom_site_type_symbol
_atom_type_description
_atom_site_fract_x
_atom_site_fract_y
_atom_site_fract_z
_atom_type_partial_charge
C1    C     C_R   0.352868 0.778436 0.399430 0.542623
C2    C     C_3   0.662006 0.381480 0.231584 -0.144146
C3    C     C_3   0.758349 0.376224 0.310449 0.014176
C4    C     C_3   0.876943 0.230945 0.281485 -0.005333
C5    C     C_3   0.943084 0.312143 0.248052 -0.160515
C6    C     C_3   0.823912 0.456675 0.277712 -0.131719
C7    C     C_3   0.727416 0.463400 0.198201 -0.176825
C8    C     C_3   0.845558 0.321460 0.168648 0.040310
C9    C     C_3   0.437714 0.874896 0.235718 -0.115066
C10   C     C_3   0.465955 0.735024 0.268485 -0.132990
C11   C     C_3   0.340896 0.820917 0.319761 0.043053
C12   C     C_R   0.367202 0.344063 0.359868 0.537469
C13   C     C_3   0.314234 0.960129 0.289085 -0.162392
C14   C     C_3   0.210030 0.937728 0.220843 -0.109408
C15   C     C_3   0.237057 0.797983 0.252246 -0.082409
C16   C     C_3   0.361406 0.711727 0.200244 -0.131998
C17   C     C_3   0.333507 0.850352 0.169067 0.055159
C18   C     C_3   0.459398 0.255236 0.775208 -0.106611
C19   C     C_3   0.405128 0.395202 0.735385 -0.111739
C20   C     C_3   0.337673 0.333401 0.663123 0.054048
C21   C     C_3   0.392037 0.194248 0.702326 -0.113795
C22   C     C_3   0.249522 0.260815 0.740451 -0.113499
C23   C     C_R   0.710641 0.412771 0.390141 0.558855
C24   C     C_3   0.195416 0.401058 0.700027 -0.119941
C25   C     C_3   0.262725 0.461721 0.773852 -0.124243
C26   C     C_3   0.317716 0.321903 0.812632 0.050033
C27   C     C_1   0.817486 0.341863 0.709609 -0.047115
C28   C     C_1   0.843175 0.315224 0.778226 -0.046544
C29   C     C_1   0.357102 0.767342 0.714663 -0.048274
C30   C     C_1   0.325029 0.813264 0.781982 -0.048760
C31   C     C_R   0.896235 0.307518 0.091965 0.555734
C32   C     C_R   0.292826 0.262172 0.122729 0.553938
C33   C     C_R   0.297310 0.888274 0.087528 0.528292
C34   C     C_R   0.379053 0.717452 0.632076 0.555932
C35   C     C_R   0.883774 0.299859 0.861119 0.545196
C36   C     C_R   0.307897 0.294217 0.891841 0.557731
C37   C     C_R   0.281613 0.881064 0.859584 0.538250
C38   C     C_R   0.367244 0.345299 0.585022 0.540172
C39   C     C_R   0.774762 0.379321 0.629491 0.543975
C40   C     C_1   0.326702 0.318417 0.277752 -0.047372
C41   C     C_1   0.307761 0.293411 0.206944 -0.030835
C42   C     C_3   0.782649 0.238091 0.201203 0.284179
Cr1   Cr    Cr6+3 0.608340 0.611040 0.520430 1.012445
Cr2   Cr    Cr6+3 0.287650 0.601120 0.489350 0.995597
Cr3   Cr    Cr6+3 0.604040 0.287870 0.490280 0.987982
Cr4   Cr    Cr6+3 0.054020 0.052700 0.970850 1.092098
Cr5   Cr    Cr6+3 0.059230 0.375120 0.993390 1.042608
Cr6   Cr    Cr6+3 0.374950 0.061200 0.992340 1.071996
H1    H     H_    0.547616 0.407150 0.228294 0.126220
H2    H     H_    0.105266 0.022827 0.198236 0.167124
H3    H     H_    0.152115 0.769082 0.259212 0.149124
H4    H     H_    0.380755 0.612086 0.161498 0.123692
H5    H     H_    0.470388 0.449894 0.731329 0.103724
H6    H     H_    0.567486 0.197727 0.807621 0.142816
H7    H     H_    0.443180 0.085332 0.671364 0.136510
H8    H     H_    0.184851 0.205613 0.744829 0.116620
H9    H     H_    0.088000 0.458584 0.666965 0.135576
H10   H     H_    0.211746 0.570325 0.805165 0.133910
H11   H     H_    0.058601 0.282579 0.252342 0.095746
H12   H     H_    0.840494 0.547301 0.309827 0.140682
H13   H     H_    0.668925 0.556451 0.161375 0.135414
H14   H     H_    0.569973 0.661263 0.297230 0.133976
H15   H     H_    0.522243 0.902881 0.227030 0.142546
H16   H     H_    0.292660 0.061626 0.326470 0.110282
O1    O     O_R   0.751220 0.499230 0.435170 -0.523327
O2    O     O_R   0.297880 0.469080 0.560050 -0.512058
O3    O     O_R   0.489720 0.254590 0.564810 -0.515469
O4    O     O_R   0.725220 0.304230 0.585080 -0.501077
O5    O     O_3   0.500010 0.500010 0.500020 -0.283361
O6    O     O_R   0.171830 0.913880 0.057510 -0.479102
O7    O     O_R   0.940690 0.186050 0.054730 -0.452103
O8    O     O_R   0.920470 0.405720 0.075010 -0.526329
O9    O     O_R   0.196690 0.370460 0.084120 -0.500442
O10   O     O_R   0.412990 0.180750 0.091610 -0.418998
O11   O     O_R   0.366620 0.943130 0.065760 -0.531679
O12   O     O_R   0.477220 0.727600 0.436870 -0.511511
O13   O     O_R   0.160510 0.906330 0.879210 -0.508362
O14   O     O_R   0.930190 0.179050 0.889450 -0.488830
O15   O     O_R   0.909140 0.398170 0.896710 -0.505089
O16   O     O_R   0.186190 0.363460 0.918830 -0.498656
O17   O     O_R   0.401670 0.173200 0.913310 -0.489245
O18   O     O_R   0.356120 0.936130 0.900470 -0.494681
O19   O     O_3   0.162740 0.163010 0.985530 -0.304554
O20   O     O_R   0.258650 0.745120 0.411470 -0.536802
O21   O     O_R   0.297070 0.467240 0.395960 -0.499316
O22   O     O_R   0.488830 0.252610 0.387790 -0.516988
O23   O     O_R   0.724400 0.302390 0.420980 -0.517781
O24   O     O_R   0.752100 0.501210 0.612190 -0.510251
O25   O     O_R   0.478040 0.729440 0.600970 -0.491414
O26   O     O_R   0.259530 0.747110 0.588490 -0.509103
S1    S     S_3+6 0.757592 0.096385 0.141990 -0.005234
O27   O     O_2   0.681463 0.146422 0.061282 -0.251667
O28   O     O_2   0.900540 0.969603 0.130559 -0.316760
O29   O     O_3   0.659874 0.048113 0.187719 -0.563297
H17   H     H_    0.670244 0.956854 0.158094 0.358075
C43   C     C_3   0.951139 0.111818 0.340619 -0.235057
C44   C     C_3   0.870033 0.024063 0.340356 -0.246933
C45   C     C_3   0.896174 0.961148 0.420499 -0.431530
H18   H     H_    0.011858 0.897479 0.437800 0.186284
H19   H     H_    0.850566 0.047198 0.468849 0.184246
H20   H     H_    0.843888 0.890925 0.415283 0.128015
H21   H     H_    0.753069 0.091416 0.327962 0.245816
H22   H     H_    0.904549 0.935538 0.292099 0.193679
H23   H     H_    0.059884 0.039062 0.328857 0.125235
H24   H     H_    0.967290 0.159898 0.401756 0.171372

loop_
_geom_bond_atom_site_label_1
_geom_bond_atom_site_label_2
_ccdc_geom_bond_type
C43   H24   S    
C18   C21   S    
C39   O4    A    
Cr2   O2    S    
C19   C20   S    
C1    C11   S    
Cr5   O15   S    
C3    C6    S    
C44   C45   S    
C7    C8    S    
C1    O20   A    
Cr1   O25   S    
C12   O21   A    
Cr1   O24   S    
Cr5   O16   S    
Cr3   O23   S    
C8    C42   S    
C18   C19   S    
C32   O10   A    
C5    C6    S    
C15   C16   S    
Cr6   O17   S    
C42   S1    S    
C9    C13   S    
C7    H13   S    
C4    C43   S    
C3    C23   S    
C33   O11   A    
C2    C7    S    
C28   C35   S    
C27   C39   S    
C24   H9    S    
C18   C26   S    
Cr3   O3    S    
C32   C41   S    
C15   H3    S    
C9    C10   S    
C44   H21   S    
C19   H5    S    
C11   C15   S    
C31   O7    A    
Cr1   O5    S    
C23   O23   A    
C21   C22   S    
C8    C31   S    
Cr6   O11   S    
C10   H14   S    
C17   C33   S    
C39   O24   A    
C5    H11   S    
Cr3   O5    S    
Cr6   O10   S    
C24   C25   S    
Cr5   O9    S    
C36   O16   A    
C32   O9    A    
Cr4   O14   S    
C16   C17   S    
C22   H8    S    
C25   C26   S    
C37   O13   A    
C29   C34   S    
C30   C37   S    
C12   C40   S    
C34   O26   A    
C29   C30   T    
C2    H1    S    
C6    H12   S    
S1    O28   D    
C20   C38   S    
C36   O17   A    
Cr1   O1    S    
C43   C44   S    
Cr3   O4    S    
Cr2   O5    S    
C20   C21   S    
Cr4   O7    S    
C44   H22   S    
C33   O6    A    
C9    C17   S    
C31   O8    A    
Cr5   O19   S    
C43   H23   S    
C22   C24   S    
C37   O18   A    
C25   H10   S    
Cr2   O21   S    
S1    O27   D    
Cr2   O26   S    
C21   H7    S    
C26   C36   S    
Cr1   O12   S    
C38   O2    A    
C40   C41   T    
C9    H15   S    
C1    O12   A    
C16   H4    S    
C4    C5    S    
Cr2   O20   S    
C5    C8    S    
C6    C7    S    
C45   H20   S    
C35   O14   A    
C45   H19   S    
Cr6   O19   S    
C12   O22   A    
C23   O1    A    
C2    C3    S    
C34   O25   A    
C10   C16   S    
S1    O29   S    
C11   C13   S    
C14   H2    S    
C13   H16   S    
C4    C42   S    
C2    C42   S    
Cr4   O13   S    
C35   O15   A    
Cr6   O18   S    
Cr3   O22   S    
O29   H17   S    
C19   C25   S    
Cr5   O8    S    
Cr4   O6    S    
C10   C11   S    
C18   H6    S    
Cr4   O19   S    
C38   O3    A    
C45   H18   S    
C22   C26   S    
C27   C28   T    
C14   C15   S    
C13   C14   S    
C20   C24   S    
C3    C4    S    
C14   C17   S    
