data_mof_unit_65182.cif
_audit_creation_date              2012-12-10T19:26:41-0500
_audit_creation_method            fapswitch 2.2
_symmetry_space_group_name_H-M    P1
_symmetry_Int_Tables_number       1
_space_group_crystal_system       triclinic
_cell_length_a                    17.705216
_cell_length_b                    16.518798
_cell_length_c                    11.719722
_cell_angle_alpha                 89.956376
_cell_angle_beta                  90.995507
_cell_angle_gamma                 90.316369
_cell_volume                      3427.08367352

loop_
_atom_site_label
_atom_site_type_symbol
_atom_type_description
_atom_site_fract_x
_atom_site_fract_y
_atom_site_fract_z
_atom_type_partial_charge
C1    C     C_R   0.355666 0.499866 0.499289 0.902167
C2    C     C_R   0.644334 0.500134 0.500711 0.902186
C3    C     C_R   0.767697 0.533250 0.593687 0.096203
C4    C     C_R   0.232302 0.466730 0.406326 0.096213
C5    C     C_R   0.235031 0.534495 0.591544 0.039239
C6    C     C_R   0.764968 0.465530 0.408438 0.039232
C7    C     C_R   0.726960 0.500157 0.500666 -0.099604
C8    C     C_R   0.273039 0.499843 0.499334 -0.099620
C9    C     C_R   0.885094 0.499493 0.500811 0.026441
C10   C     C_R   0.114905 0.500509 0.499190 0.026439
C11   C     C_1   0.966137 0.499810 0.500199 0.012049
C12   C     C_1   0.033862 0.500192 0.499801 0.012051
C13   C     C_R   0.499870 0.500019 0.283671 0.845719
C14   C     C_R   0.500130 0.499980 0.716329 0.845718
C15   C     C_R   0.548246 0.829782 0.573628 -0.027944
C16   C     C_R   0.451749 0.170217 0.426383 -0.027944
C17   C     C_R   0.451194 0.829137 0.426582 -0.026575
C18   C     C_R   0.548808 0.170864 0.573417 -0.026575
C19   C     C_R   0.547636 0.743348 0.572291 0.271247
C20   C     C_R   0.452361 0.256650 0.427714 0.271241
C21   C     C_R   0.452106 0.742679 0.427782 0.275315
C22   C     C_R   0.547896 0.257321 0.572215 0.275315
C23   C     C_1   0.499872 0.962853 0.499987 0.095397
C24   C     C_1   0.500126 0.037146 0.500020 0.095398
C25   C     C_1   0.499888 0.500046 0.162152 -0.174695
C26   C     C_1   0.500112 0.499954 0.837848 -0.174698
C27   C     C_1   0.499950 0.500022 0.059814 -0.006747
C28   C     C_1   0.500050 0.499978 0.940186 -0.006748
C29   C     C_R   0.499710 0.873212 0.500082 0.081698
C30   C     C_R   0.500288 0.126787 0.499924 0.081701
C31   C     C_R   0.846969 0.533020 0.593871 0.083209
C32   C     C_R   0.153030 0.466960 0.406144 0.083206
C33   C     C_R   0.155366 0.534545 0.591624 0.118608
C34   C     C_R   0.844633 0.465481 0.408359 0.118610
Cu1   Cu    Cu3+1 0.500000 0.580420 0.500000 0.997375
Cu2   Cu    Cu3+1 0.500000 0.419580 0.500000 0.997375
N1    N     N_R   0.500000 0.701220 0.500000 -0.173044
N2    N     N_R   0.500000 0.298780 0.500000 -0.173043
O1    O     O_R   0.391260 0.567930 0.500000 -0.553475
O2    O     O_R   0.608740 0.432070 0.500000 -0.553483
O3    O     O_R   0.608740 0.567930 0.500000 -0.558243
O4    O     O_R   0.391260 0.432070 0.500000 -0.558239
O5    O     O_R   0.500010 0.567910 0.337200 -0.564589
O6    O     O_R   0.499990 0.432090 0.662800 -0.564591
O7    O     O_R   0.499990 0.567910 0.662800 -0.550613
O8    O     O_R   0.500010 0.432090 0.337200 -0.550612
N3    N     N_3   0.598034 0.873792 0.649284 -0.582667
H1    H     H_    0.653720 0.858199 0.631508 0.218400
H2    H     H_    0.586485 0.857053 0.733220 0.219067
N4    N     N_3   0.401954 0.126205 0.350738 -0.582667
H3    H     H_    0.346270 0.141802 0.368522 0.218399
H4    H     H_    0.413497 0.142941 0.266799 0.219068
N5    N     N_3   0.401221 0.872485 0.351051 -0.582472
H5    H     H_    0.345633 0.855673 0.368575 0.218583
H6    H     H_    0.412979 0.856283 0.267068 0.219223
N6    N     N_3   0.598784 0.127516 0.648943 -0.582472
H7    H     H_    0.654372 0.144326 0.631409 0.218583
H8    H     H_    0.587032 0.143721 0.732927 0.219223
N7    N     N_3   0.597423 0.699245 0.646520 -0.508017
H9    H     H_    0.652867 0.716522 0.629030 0.195476
H10   H     H_    0.585821 0.714482 0.730919 0.196904
N8    N     N_3   0.402572 0.300752 0.353488 -0.508017
H11   H     H_    0.347130 0.283480 0.370990 0.195486
H12   H     H_    0.414167 0.285510 0.269091 0.196902
N9    N     N_3   0.402704 0.697821 0.353046 -0.522304
H13   H     H_    0.346898 0.713122 0.370547 0.195554
H14   H     H_    0.414148 0.713811 0.268786 0.195084
N10   N     N_3   0.597301 0.302180 0.646946 -0.522302
H15   H     H_    0.653106 0.286879 0.629443 0.195554
H16   H     H_    0.585860 0.286192 0.731208 0.195085
N11   N     N_3   0.887866 0.566789 0.689514 -0.601282
H17   H     H_    0.922465 0.613549 0.660006 0.233405
H18   H     H_    0.922370 0.521765 0.724813 0.232897
N12   N     N_3   0.112133 0.433169 0.310516 -0.601281
H19   H     H_    0.077534 0.386415 0.340045 0.233395
H20   H     H_    0.077629 0.478184 0.275195 0.232907
N13   N     N_3   0.114916 0.568793 0.684920 -0.603144
H21   H     H_    0.130249 0.629709 0.693252 0.217403
H22   H     H_    0.130387 0.538323 0.759849 0.218486
N14   N     N_3   0.885082 0.431261 0.315043 -0.603147
H23   H     H_    0.869749 0.370347 0.306678 0.217404
H24   H     H_    0.869610 0.461750 0.240133 0.218490
N15   N     N_3   0.728093 0.564637 0.689639 -0.581986
H25   H     H_    0.743411 0.530568 0.761524 0.232515
H26   H     H_    0.746108 0.624223 0.703611 0.237122
N16   N     N_3   0.271906 0.435332 0.310382 -0.581974
H27   H     H_    0.256590 0.469396 0.238489 0.232505
H28   H     H_    0.253887 0.375746 0.296417 0.237121
N17   N     N_3   0.278014 0.568268 0.685140 -0.597281
H29   H     H_    0.263866 0.629271 0.693655 0.224418
H30   H     H_    0.263721 0.537724 0.759905 0.215479
N18   N     N_3   0.721984 0.431782 0.314825 -0.597303
H31   H     H_    0.736133 0.370782 0.306275 0.224421
H32   H     H_    0.736275 0.462347 0.240078 0.215484

loop_
_geom_bond_atom_site_label_1
_geom_bond_atom_site_label_2
_ccdc_geom_bond_type
C1    C8    S    
C17   C29   A    
N5    H6    S    
Cu2   O4    S    
C2    C7    S    
C15   N3    S    
C4    C8    A    
N3    H2    S    
N5    H5    S    
C15   C19   A    
N12   H20   S    
C23   C29   S    
Cu1   N1    S    
C16   N4    S    
C3    C7    A    
C32   N12   S    
C13   O8    A    
N16   H28   S    
C4    N16   S    
C2    O3    A    
C16   C30   A    
C22   N2    A    
N6    H7    S    
N8    H12   S    
C19   N1    A    
C34   N14   S    
N3    H1    S    
N10   H15   S    
N9    H14   S    
C5    C33   A    
N4    H4    S    
C23   C24   T    
Cu2   O8    S    
C18   C30   A    
N17   H30   S    
Cu1   O5    S    
C18   N6    S    
C31   N11   S    
N7    H9    S    
C13   C25   S    
C15   C29   A    
C14   O7    A    
N13   H22   S    
N7    H10   S    
N12   H19   S    
Cu2   O2    S    
N14   H24   S    
N11   H18   S    
C9    C31   A    
N16   H27   S    
C19   N7    S    
N13   H21   S    
C17   C21   A    
C6    C34   A    
Cu1   Cu2   S    
Cu1   O1    S    
N8    H11   S    
C2    O2    A    
C20   N2    A    
N15   H25   S    
C16   C20   A    
N18   H32   S    
N4    H3    S    
C14   C26   S    
C3    C31   A    
C9    C11   S    
C22   N10   S    
C4    C32   A    
C10   C12   S    
N15   H26   S    
C3    N15   S    
C9    C34   A    
Cu2   O6    S    
Cu1   O7    S    
C17   N5    S    
C13   O5    A    
C14   O6    A    
C21   N9    S    
C18   C22   A    
N14   H23   S    
C5    C8    A    
C11   C12   T    
C6    C7    A    
C25   C27   T    
C26   C28   T    
Cu2   N2    S    
N11   H17   S    
C33   N13   S    
C6    N18   S    
N18   H31   S    
N6    H8    S    
C10   C33   A    
C20   N8    S    
Cu1   O3    S    
C24   C30   S    
C1    O1    A    
C10   C32   A    
C1    O4    A    
C21   N1    A    
N10   H16   S    
N9    H13   S    
C27   C28   S    
N17   H29   S    
C5    N17   S    
