data_mof_unit_40675.cif
_audit_creation_date              2012-10-26T21:21:33-0400
_audit_creation_method            fapswitch 2.2
_symmetry_space_group_name_H-M    P1
_symmetry_Int_Tables_number       1
_space_group_crystal_system       triclinic
_cell_length_a                    14.321325
_cell_length_b                    10.81856
_cell_length_c                    9.656742
_cell_angle_alpha                 88.132255
_cell_angle_beta                  89.012376
_cell_angle_gamma                 94.276313
_cell_volume                      1490.92977631

loop_
_atom_site_label
_atom_site_type_symbol
_atom_type_description
_atom_site_fract_x
_atom_site_fract_y
_atom_site_fract_z
_atom_type_partial_charge
C1    C     C_R   0.500577 0.261680 0.503680 0.547007
C2    C     C_R   0.534886 0.069529 0.394526 -0.180955
C3    C     C_R   0.529687 0.941909 0.387375 -0.168848
C4    C     C_R   0.331262 0.498874 0.500995 0.531599
C5    C     C_R   0.482849 0.868596 0.491987 -0.005726
C6    C     C_R   0.639751 0.641642 0.139817 -0.056911
C7    C     C_R   0.723944 0.683520 0.073810 0.092335
C8    C     C_R   0.734045 0.663104 0.934182 -0.136696
C9    C     C_R   0.654245 0.633222 0.857107 0.152531
C10   C     C_R   0.573112 0.566418 0.922876 0.107057
C11   C     C_R   0.570381 0.567711 0.071948 0.038743
C12   C     C_1   0.770601 0.493204 0.499669 -0.072018
C13   C     C_R   0.432706 0.433751 0.079109 0.248746
C14   C     C_R   0.429667 0.439160 0.930432 0.274303
C15   C     C_R   0.494023 0.736269 0.497474 0.538229
C16   C     C_R   0.668503 0.497633 0.499378 0.520934
C17   C     C_1   0.228762 0.497366 0.502675 -0.065354
C18   C     C_1   0.143159 0.495571 0.503281 -0.062821
C19   C     C_1   0.042296 0.493317 0.503370 -0.014376
C20   C     C_1   0.956715 0.491840 0.502914 -0.018059
C21   C     C_1   0.855969 0.491371 0.501620 -0.069032
C22   C     C_3   0.634051 0.837219 0.762230 -0.298803
C23   C     C_R   0.442399 0.089536 0.763203 0.276923
C24   C     C_3   0.267223 0.444574 0.865218 -0.295984
C25   C     C_3   0.581013 0.142735 0.864636 0.000712
C26   C     C_3   0.637032 0.246921 0.936634 -0.247417
C27   C     C_3   0.729399 0.204448 0.990100 -0.487787
C28   C     C_3   0.364243 0.228763 0.161628 -0.283985
C29   C     C_3   0.825247 0.723474 0.271211 -0.301708
C30   C     C_R   0.379785 0.017530 0.851572 -0.118468
C31   C     C_R   0.341894 0.902530 0.812699 -0.177682
C32   C     C_R   0.372713 0.853673 0.690620 -0.115154
C33   C     C_R   0.437340 0.923619 0.601553 -0.019772
C34   C     C_R   0.460437 0.050029 0.625892 0.015265
C35   C     C_R   0.501572 0.125925 0.512555 -0.018693
Cu1   Cu    Cu3+1 0.499990 0.499990 0.640660 0.992019
Cu2   Cu    Cu3+1 0.500010 0.500010 0.359340 0.925794
H1    H     H_    0.568050 0.124408 0.308833 0.135942
H2    H     H_    0.691543 0.881126 0.823895 0.112692
H3    H     H_    0.566388 0.842454 0.818957 0.167237
H4    H     H_    0.339920 0.286796 0.887499 0.256487
H5    H     H_    0.230802 0.431993 0.967166 0.101991
H6    H     H_    0.218690 0.405832 0.786623 0.149570
H7    H     H_    0.282627 0.545343 0.841293 0.153731
H8    H     H_    0.569150 0.061852 0.939129 0.117139
H9    H     H_    0.622607 0.115817 0.773319 0.129717
H10   H     H_    0.651875 0.326839 0.862287 0.189457
H11   H     H_    0.595301 0.277856 0.025384 0.166811
H12   H     H_    0.796509 0.704123 0.880414 0.104736
H13   H     H_    0.716145 0.126206 0.067037 0.150504
H14   H     H_    0.768400 0.282456 0.041119 0.155242
H15   H     H_    0.773053 0.174474 0.902950 0.146010
H16   H     H_    0.297403 0.396267 0.164873 0.237496
H17   H     H_    0.356972 0.192854 0.270466 0.166349
H18   H     H_    0.430823 0.199492 0.116884 0.154751
H19   H     H_    0.303840 0.187562 0.104133 0.099191
H20   H     H_    0.843771 0.805935 0.074890 0.246696
H21   H     H_    0.879969 0.792435 0.307575 0.136283
H22   H     H_    0.856686 0.633556 0.259715 0.162403
H23   H     H_    0.364357 0.047932 0.954120 0.105532
H24   H     H_    0.767909 0.715284 0.350237 0.145304
H25   H     H_    0.293676 0.847563 0.881732 0.115320
H26   H     H_    0.346103 0.760723 0.666481 0.135146
H27   H     H_    0.563472 0.900493 0.300921 0.131960
H28   H     H_    0.629313 0.671691 0.242337 0.187866
H29   H     H_    0.707534 0.704975 0.670493 0.228224
H30   H     H_    0.632661 0.891221 0.662887 0.134383
N1    N     N_R   0.500820 0.501210 0.147910 -0.239570
N2    N     N_R   0.500850 0.501290 0.852040 -0.216048
N3    N     N_2   0.649808 0.708945 0.735282 -0.431301
N4    N     N_2   0.352248 0.379734 0.862349 -0.439309
N5    N     N_2   0.362491 0.362267 0.158734 -0.464584
N6    N     N_2   0.791169 0.765296 0.139370 -0.532731
O1    O     O_R   0.499990 0.319640 0.618810 -0.416836
O2    O     O_R   0.500000 0.319660 0.381240 -0.487893
O3    O     O_R   0.376050 0.499990 0.618810 -0.465150
O4    O     O_R   0.376060 0.500010 0.381240 -0.459706
O5    O     O_R   0.500000 0.680340 0.618760 -0.461215
O6    O     O_R   0.500010 0.680360 0.381190 -0.528476
O7    O     O_R   0.623940 0.499990 0.618760 -0.470566
O8    O     O_R   0.623950 0.500010 0.381190 -0.502213
O9    O     O_3   0.494861 0.185478 0.822278 -0.554520

loop_
_geom_bond_atom_site_label_1
_geom_bond_atom_site_label_2
_ccdc_geom_bond_type
C2    C35   A    
C23   O9    S    
C24   H5    S    
C14   N4    S    
C19   C20   T    
C28   H19   S    
C7    C8    A    
C7    N6    S    
C3    H27   S    
Cu1   N2    S    
Cu2   O6    S    
C26   C27   S    
C1    O1    A    
Cu1   Cu2   S    
C34   C35   A    
C30   C31   A    
C15   O5    A    
C29   N6    S    
Cu2   N1    S    
C18   C19   S    
H20   N6    S    
Cu1   O3    S    
C6    H28   S    
C15   O6    A    
C29   H22   S    
C8    C9    A    
C30   H23   S    
C9    C10   A    
C27   H13   S    
C26   H11   S    
H4    N4    S    
Cu2   O2    S    
C13   C14   A    
C31   H25   S    
Cu2   O8    S    
C28   N5    S    
C28   H18   S    
C27   H14   S    
C17   C18   T    
C29   H24   S    
C4    O3    A    
C1    O2    A    
C23   C30   A    
C12   C16   S    
C9    N3    S    
Cu1   O7    S    
C6    C11   A    
C28   H17   S    
C11   N1    A    
C25   C26   S    
Cu2   O4    S    
C12   C21   T    
C5    C33   A    
C16   O7    A    
C2    H1    S    
C31   C32   A    
C23   C34   A    
C22   H3    S    
C33   C34   A    
C29   H21   S    
Cu1   O1    S    
C26   H10   S    
C4    C17   S    
C25   O9    S    
C24   H7    S    
C14   N2    A    
C25   H8    S    
C27   H15   S    
C1    C35   S    
C32   H26   S    
C3    C5    A    
C6    C7    A    
C13   N5    S    
C32   C33   A    
C2    C3    A    
C4    O4    A    
Cu1   O5    S    
H29   N3    S    
C22   H2    S    
C8    H12   S    
C16   O8    A    
C22   H30   S    
C5    C15   S    
C10   C11   A    
C10   N2    A    
C20   C21   S    
C24   H6    S    
H16   N5    S    
C25   H9    S    
C22   N3    S    
C24   N4    S    
C13   N1    A    
