data_mof_unit_18332.cif
_audit_creation_date              2013-03-05T16:05:01-0500
_audit_creation_method            fapswitch 2.2
_symmetry_space_group_name_H-M    P1
_symmetry_Int_Tables_number       1
_space_group_crystal_system       triclinic
_cell_length_a                    9.717367
_cell_length_b                    10.828452
_cell_length_c                    13.952451
_cell_angle_alpha                 99.669545
_cell_angle_beta                  88.134557
_cell_angle_gamma                 91.555993
_cell_volume                      1446.15791952

loop_
_atom_site_label
_atom_site_type_symbol
_atom_site_description
_atom_site_fract_x
_atom_site_fract_y
_atom_site_fract_z
_atom_type_partial_charge
O1    O     O_R   0.381260 0.680340 0.500000 -0.495295
O2    O     O_R   0.618740 0.319660 0.500000 -0.489244
O3    O     O_R   0.618830 0.680370 0.500010 -0.524979
O4    O     O_R   0.381170 0.319630 0.499990 -0.527808
C1    C     C_R   0.502222 0.735630 0.491181 0.912014
C2    C     C_R   0.497711 0.264212 0.508429 0.913064
O5    O     O_R   0.364420 0.499960 0.637840 -0.536820
O6    O     O_R   0.635580 0.500040 0.362160 -0.536233
O7    O     O_R   0.601990 0.499990 0.637850 -0.500916
O8    O     O_R   0.398010 0.500010 0.362150 -0.500456
C3    C     C_R   0.480728 0.499501 0.681949 0.863559
C4    C     C_R   0.519282 0.500155 0.318030 0.860016
Cu1   Cu    Cu3+1 0.359340 0.499980 0.500000 1.180907
Cu2   Cu    Cu3+1 0.640660 0.500020 0.500000 1.186005
C5    C     C_R   0.924935 0.578758 0.572595 0.353895
C6    C     C_R   0.074766 0.422424 0.426688 0.325629
C7    C     C_R   0.075041 0.580955 0.570476 0.356148
C8    C     C_R   0.924856 0.419589 0.429211 0.361374
C9    C     C_1   0.526509 0.500590 0.216326 0.028088
C10   C     C_1   0.473538 0.497203 0.783442 0.021878
C11   C     C_2   0.555059 0.503537 0.028759 0.268752
C12   C     C_2   0.445527 0.489986 0.970476 0.202947
C13   C     C_1   0.462550 0.494229 0.868745 0.068623
C14   C     C_1   0.537701 0.501509 0.130761 0.099709
C15   C     C_R   0.624926 0.942330 0.511102 0.219447
C16   C     C_R   0.374858 0.057396 0.487965 0.239138
C17   C     C_R   0.613270 0.071921 0.540561 0.234244
C18   C     C_R   0.386053 0.927813 0.458935 0.308795
C19   C     C_R   0.493275 0.130383 0.517601 -0.333352
C20   C     C_R   0.506416 0.869255 0.481471 -0.341961
N1    N     N_R   0.147930 0.499970 0.499980 -0.304543
N2    N     N_R   0.852070 0.500030 0.500020 -0.304747
S1    S     S_3+6 0.833372 0.659583 0.682242 0.164584
O9    O     O_2   0.697691 0.710220 0.662824 -0.270131
O10   O     O_2   0.811294 0.562760 0.747023 -0.202136
O11   O     O_3   0.905488 0.785347 0.751142 -0.370814
H1    H     H_    0.849597 0.799175 0.812515 0.401359
S2    S     S_3+6 0.165845 0.345586 0.315574 0.170325
O12   O     O_2   0.193706 0.447174 0.255924 -0.164393
O13   O     O_2   0.299137 0.290747 0.336055 -0.289371
O14   O     O_3   0.092543 0.227891 0.238187 -0.370553
H2    H     H_    0.138529 0.150045 0.246508 0.405716
S3    S     S_3+6 0.160547 0.696990 0.661015 0.131487
O15   O     O_2   0.106686 0.822098 0.648798 -0.159490
O16   O     O_2   0.118210 0.665788 0.758931 -0.254714
O17   O     O_3   0.330829 0.723490 0.669417 -0.530188
H3    H     H_    0.342273 0.793375 0.724534 0.373568
S4    S     S_3+6 0.839401 0.305746 0.337162 0.127907
O18   O     O_2   0.876249 0.344054 0.240632 -0.177372
O19   O     O_2   0.898114 0.180525 0.343669 -0.237260
O20   O     O_3   0.669571 0.275372 0.331215 -0.525556
H4    H     H_    0.657908 0.208888 0.273731 0.375703
S5    S     S_3+6 0.275626 0.465800 0.014176 0.083234
O21   O     O_2   0.269035 0.347569 0.057315 -0.163579
O22   O     O_2   0.236076 0.574372 0.091283 -0.242666
O23   O     O_3   0.164353 0.451844 0.922893 -0.437624
H5    H     H_    0.152424 0.538425 0.910868 0.379103
S6    S     S_3+6 0.725218 0.526477 0.985231 0.085871
O24   O     O_2   0.761234 0.420676 0.904779 -0.172024
O25   O     O_2   0.734493 0.648415 0.947250 -0.262698
O26   O     O_3   0.836063 0.531048 0.075975 -0.447626
H6    H     H_    0.927509 0.547786 0.046777 0.419619
N3    N     N_R   0.759055 0.889145 0.491177 0.159237
O27   O     O_R   0.845824 0.887641 0.559765 -0.218159
O28   O     O_R   0.792478 0.836481 0.402975 -0.295628
N4    N     N_R   0.240823 0.111017 0.506381 0.181660
O29   O     O_R   0.155266 0.111153 0.436879 -0.266537
O30   O     O_R   0.205786 0.164301 0.594115 -0.281300
S7    S     S_3+6 0.734400 0.154738 0.622758 0.138954
O31   O     O_2   0.670152 0.268627 0.681498 -0.246779
O32   O     O_2   0.779439 0.073944 0.693120 -0.155085
O33   O     O_3   0.872792 0.199793 0.561002 -0.447048
H7    H     H_    0.915106 0.120739 0.529250 0.414282
S8    S     S_3+6 0.261298 0.846014 0.379236 0.109131
O34   O     O_2   0.316001 0.724857 0.325337 -0.276115
O35   O     O_2   0.133395 0.820557 0.436835 -0.195150
O36   O     O_3   0.221758 0.932926 0.295240 -0.473957
H8    H     H_    0.142579 0.888261 0.260903 0.404336

loop_
_geom_bond_atom_site_label_1
_geom_bond_atom_site_label_2
_geom_bond_distance
_ccdc_geom_bond_type
N4    O30   1.301356 A    
N3    O28   1.301328 A    
C17   C19   1.412637 A    
O14   H2    0.990176 S    
S3    O15   1.503377 D    
C18   S8    1.785855 S    
C5    N2    1.406189 A    
O36   H8    0.990652 S    
C6    N1    1.408099 A    
O5    C3    1.304896 A    
S8    O35   1.502463 D    
O1    C1    1.316185 A    
O11   H1    0.990810 S    
S7    O31   1.500441 D    
S2    O12   1.500916 D    
S6    O25   1.502622 D    
S1    O11   1.679895 S    
O23   H5    0.990239 S    
C15   N3    1.439150 S    
O4    Cu1   1.970092 S    
S7    O32   1.502671 D    
S4    O20   1.675948 S    
S8    O36   1.681156 S    
C17   S7    1.786059 S    
S6    O26   1.682403 S    
S4    O19   1.503025 D    
N4    O29   1.297926 A    
C11   C12   1.350362 D    
O2    C2    1.316768 A    
C12   S5    1.769389 S    
S5    O22   1.503342 D    
C3    C10   1.419879 S    
S8    O34   1.499905 D    
O20   H4    0.990921 S    
C16   N4    1.438315 S    
S2    O14   1.684028 S    
O4    C2    1.313693 A    
S6    O24   1.503073 D    
S5    O21   1.502446 D    
S7    O33   1.679020 S    
O7    Cu2   1.947719 S    
C7    S3    1.828479 S    
O7    C3    1.311743 A    
C10   C13   1.197253 T    
O6    C4    1.304569 A    
S1    O9    1.491578 D    
S3    O16   1.503578 D    
O3    Cu2   1.970094 S    
O8    C4    1.311738 A    
S4    O18   1.504133 D    
C7    N1    1.391681 A    
C8    N2    1.390659 A    
C1    C20   1.475109 S    
S5    O23   1.682333 S    
C15   C20   1.412398 A    
C5    C7    1.457606 A    
O17   H3    0.990923 S    
O6    Cu2   1.925481 S    
Cu1   N1    2.054356 S    
Cu2   N2    2.054356 S    
O33   H7    0.988930 S    
O3    C1    1.314492 A    
O8    Cu1   1.947720 S    
C8    S4    1.827748 S    
C15   C17   1.400996 A    
C16   C18   1.399758 A    
C18   C20   1.414263 A    
C9    C14   1.196927 T    
C11   S6    1.768505 S    
S2    O13   1.494936 D    
C4    C9    1.419276 S    
S1    O10   1.501902 D    
O26   H6    0.990419 S    
O2    Cu2   1.958843 S    
S3    O17   1.676198 S    
N3    O27   1.298264 A    
O5    Cu1   1.925481 S    
C2    C19   1.475409 S    
O1    Cu1   1.958843 S    
C16   C19   1.411215 A    
C6    C8    1.455627 A    
C11   C14   1.431447 S    
C12   C13   1.431905 S    
Cu1   Cu2   2.733677 S    
C5    S1    1.844441 S    
C6    S2    1.842929 S    
