data_mof_unit_46499.cif
_audit_creation_date              2012-12-11T17:57:05-0500
_audit_creation_method            fapswitch 2.2
_symmetry_space_group_name_H-M    P1
_symmetry_Int_Tables_number       1
_space_group_crystal_system       triclinic
_cell_length_a                    8.1954
_cell_length_b                    12.782458
_cell_length_c                    17.247212
_cell_angle_alpha                 98.760282
_cell_angle_beta                  96.910314
_cell_angle_gamma                 98.807819
_cell_volume                      1745.44970087

loop_
_atom_site_label
_atom_site_type_symbol
_atom_type_description
_atom_site_fract_x
_atom_site_fract_y
_atom_site_fract_z
_atom_type_partial_charge
Ba1   Ba    Ba6+2 0.843240 0.548600 0.461650 1.681724
Ba2   Ba    Ba6+2 0.346590 0.451490 0.538360 1.675496
C1    C     C_3   0.567320 0.907892 0.251131 -0.390466
C2    C     C_3   0.394802 0.492550 0.217495 -0.012050
C3    C     C_2   0.318983 0.496134 0.133422 -0.096129
C4    C     C_3   0.102935 0.766516 0.249065 0.295853
C5    C     C_2   0.150804 0.476690 0.112327 -0.000193
C6    C     C_2   0.042907 0.452808 0.174170 -0.132837
C7    C     C_1   0.110918 0.457158 0.248686 0.070166
C8    C     C_R   0.890706 0.462044 0.863396 -0.125312
C9    C     C_R   0.825506 0.446153 0.783069 0.003178
C10   C     C_R   0.083830 0.540217 0.753647 0.002695
C11   C     C_R   0.153207 0.552322 0.834198 -0.129178
C12   C     C_3   0.597056 0.805521 0.281051 0.335412
C13   C     C_R   0.058740 0.510813 0.889746 0.023869
C14   C     C_2   0.069100 0.470656 0.029059 -0.080531
C15   C     C_2   0.138958 0.520677 0.974063 -0.080124
C16   C     C_3   0.070361 0.788389 0.164875 -0.356173
C17   C     C_R   0.924842 0.479783 0.728310 -0.254566
C18   C     C_R   0.778609 0.181514 0.527013 -0.280270
C19   C     C_R   0.412958 0.813124 0.481635 -0.230530
C20   C     C_R   0.387377 0.985839 0.446926 -0.084830
C21   C     C_R   0.318137 0.879624 0.446832 0.021765
C22   C     C_R   0.575010 0.852779 0.520904 0.021451
C23   C     C_3   0.399408 0.263433 0.296712 0.309155
C24   C     C_R   0.643045 0.964981 0.528428 -0.087187
C25   C     C_R   0.548780 0.030463 0.487298 -0.034217
C26   C     C_R   0.616858 0.139811 0.489066 0.048580
C27   C     C_R   0.874250 0.118519 0.565191 -0.064934
C28   C     C_3   0.276123 0.797792 0.766436 0.211941
C29   C     C_R   0.801711 0.014809 0.573133 -0.075688
C30   C     C_3   0.451423 0.799036 0.808127 -0.430882
C31   C     C_3   0.932083 0.210851 0.364984 0.268386
C32   C     C_3   0.953620 0.094040 0.349207 -0.344770
C33   C     C_3   0.822941 0.711826 0.694592 0.335753
C34   C     C_3   0.333982 0.214811 0.210373 -0.389185
C35   C     C_3   0.818583 0.718632 0.783319 -0.425710
C36   C     C_2   0.874500 0.976555 0.642913 0.893080
C37   C     C_2   0.254912 0.912553 0.766395 0.939280
C38   C     C_3   0.114006 0.247070 0.756161 0.429843
C39   C     C_3   0.119275 0.219964 0.839176 -0.309235
C40   C     C_3   0.637599 0.202067 0.783416 0.342376
C41   C     C_3   0.610506 0.139513 0.850487 -0.326917
C42   C     C_2   0.267589 0.502561 0.273744 -0.274217
H1    H     H_    0.729952 0.816208 0.307989 0.097576
H2    H     H_    0.950590 0.742882 0.685149 0.054262
H3    H     H_    0.783680 0.626914 0.664964 0.014887
H4    H     H_    0.591118 0.976100 0.301644 0.082452
H5    H     H_    0.822302 0.802720 0.812420 0.140589
H6    H     H_    0.925885 0.690261 0.812792 0.060083
H7    H     H_    0.705113 0.666343 0.793001 0.128905
H8    H     H_    0.515100 0.792999 0.326839 -0.031284
H9    H     H_    0.436266 0.898847 0.222453 0.126539
H10   H     H_    0.293115 0.286976 0.325303 0.032215
H11   H     H_    0.495967 0.335558 0.299403 0.032431
H12   H     H_    0.467987 0.716825 0.814977 0.131172
H13   H     H_    0.242481 0.139923 0.206945 0.134080
H14   H     H_    0.270694 0.271917 0.180759 0.062142
H15   H     H_    0.438881 0.195653 0.178731 0.118287
H16   H     H_    0.651552 0.925484 0.207156 0.125170
H17   H     H_    0.107685 0.724347 0.123059 0.086944
H18   H     H_    0.206708 0.320972 0.758387 0.078577
H19   H     H_    0.987623 0.262906 0.736528 -0.139754
H20   H     H_    0.088576 0.287254 0.880280 0.046438
H21   H     H_    0.026887 0.146537 0.838561 0.139979
H22   H     H_    0.768093 0.244506 0.797084 -0.058469
H23   H     H_    0.545866 0.833878 0.774076 0.159968
H24   H     H_    0.620247 0.145720 0.726138 0.099618
H25   H     H_    0.689174 0.076067 0.849180 0.095902
H26   H     H_    0.477863 0.101727 0.845164 0.169091
H27   H     H_    0.024536 0.688549 0.251295 0.093196
H28   H     H_    0.645332 0.194850 0.908409 0.081152
H29   H     H_    0.262076 0.569898 0.990785 0.078581
H30   H     H_    0.908878 0.429325 0.157105 0.096277
H31   H     H_    0.808680 0.435722 0.903740 0.059794
H32   H     H_    0.945303 0.422771 0.014170 0.069525
H33   H     H_    0.402099 0.506595 0.089713 0.069122
H34   H     H_    0.471176 0.848117 0.868567 0.071984
H35   H     H_    0.279738 0.593905 0.853837 0.076645
H36   H     H_    0.305443 0.544146 0.334531 0.069565
H37   H     H_    0.312202 0.032666 0.415671 0.087811
H38   H     H_    0.236378 0.760270 0.263115 -0.025218
H39   H     H_    0.832104 0.263855 0.525382 0.053085
H40   H     H_    0.359431 0.729449 0.478366 0.071371
H41   H     H_    0.935385 0.789284 0.148307 0.133067
H42   H     H_    0.143155 0.867334 0.160215 0.116024
H43   H     H_    0.184883 0.761305 0.801291 -0.044545
H44   H     H_    0.245802 0.206182 0.861093 0.146577
H45   H     H_    0.803326 0.214710 0.375653 0.007926
H46   H     H_    0.873676 0.465224 0.666087 0.064568
H47   H     H_    0.865796 0.966257 0.757889 0.329201
H48   H     H_    0.405491 0.933818 0.682911 0.286624
H49   H     H_    0.021658 0.251237 0.418425 0.066401
H50   H     H_    0.876269 0.052121 0.292740 0.126187
H51   H     H_    0.915616 0.053703 0.398305 0.088007
H52   H     H_    0.086064 0.089334 0.344256 0.127304
O1    O     O_2   0.825360 0.427200 0.308020 -0.472947
O2    O     O_2   0.217527 0.123402 0.560178 -0.442207
O3    O     O_3   0.153309 0.161145 0.704963 -0.518714
O4    O     O_3   0.099050 0.435020 0.406000 -0.501279
O5    O     O_3   0.588300 0.633530 0.539940 -0.472242
O6    O     O_2   0.332090 0.232110 0.462130 -0.477941
O7    O     O_3   0.469684 0.186572 0.332962 -0.650222
O8    O     O_2   0.499624 0.470681 0.780738 -0.493864
O9    O     O_3   0.520421 0.271343 0.779390 -0.582393
O10   O     O_3   0.623690 0.628090 0.355970 -0.498138
O11   O     O_2   0.739982 0.568122 0.222696 -0.498674
O12   O     O_3   0.716189 0.776385 0.665330 -0.615604
O13   O     O_3   0.957986 0.255434 0.297423 -0.635788
O14   O     O_3   0.559361 0.718827 0.217254 -0.606110
O15   O     O_2   0.857620 0.767930 0.537920 -0.448729
O16   O     O_3   0.055170 0.686660 0.395490 -0.486772
O17   O     O_2   0.975612 0.877590 0.442853 -0.477071
O18   O     O_2   0.004572 0.941305 0.642248 -0.553113
O19   O     O_R   0.800792 0.989641 0.711851 -0.803877
O20   O     O_2   0.168006 0.953338 0.810808 -0.634182
O21   O     O_R   0.335670 0.974404 0.717255 -0.677645
O22   O     O_3   0.061617 0.850217 0.301817 -0.620439
O23   O     O_2   0.364350 0.572830 0.692030 -0.434023
O24   O     O_3   0.090660 0.565070 0.594010 -0.475571
O25   O     O_3   0.566030 0.372000 0.644040 -0.463229
O26   O     O_3   0.251810 0.743969 0.686862 -0.623341
O27   O     O_3   0.601410 0.366560 0.460070 -0.476600
O28   O     O_3   0.134540 0.313430 0.604520 -0.502477
P1    P     P_3+3 0.996360 0.395990 0.320310 0.973583
P2    P     P_3+3 0.688190 0.753610 0.561600 1.031893
P3    P     P_3+3 0.103463 0.824836 0.398531 0.964701
P4    P     P_3+3 0.193350 0.604100 0.679700 0.997471
P5    P     P_3+3 0.094155 0.177060 0.607091 1.045959
P6    P     P_3+3 0.580812 0.599426 0.252880 0.953785
P7    P     P_3+3 0.508310 0.230043 0.435683 0.934459
P8    P     P_3+3 0.605312 0.389084 0.747630 0.959438

loop_
_geom_bond_atom_site_label_1
_geom_bond_atom_site_label_2
_ccdc_geom_bond_type
C40   H24   S    
C11   H35   S    
C41   H28   S    
C4    H38   S    
C36   O18   D    
C34   H15   S    
C33   H3    S    
C9    P8    S    
C38   O3    S    
Ba1   P2    S    
Ba2   O27   S    
C9    C17   A    
C24   C25   A    
C16   H42   S    
C38   H19   S    
C33   C35   S    
C32   H52   S    
C34   H14   S    
C8    C13   A    
Ba1   O16   S    
C35   H7    S    
Ba2   O6    S    
C1    H4    S    
C38   H18   S    
C10   C17   A    
C13   C15   S    
Ba1   Ba2   S    
O16   P3    S    
C33   O12   S    
C12   H8    S    
C28   O26   S    
C6    C7    D    
O28   P5    S    
O9    P8    S    
C40   C41   S    
Ba1   O10   S    
C1    H16   S    
Ba2   O4    S    
C24   C29   A    
C41   H25   S    
C15   H29   S    
O11   P6    D    
Ba1   O4    S    
O5    P2    S    
C12   H1    S    
C18   C27   A    
C4    H27   S    
C4    C16   S    
C27   P5    S    
C16   H41   S    
O3    P5    S    
O4    P1    S    
C20   H37   S    
C23   H11   S    
C42   H36   S    
C23   H10   S    
O1    P1    D    
C34   H13   S    
Ba1   O1    S    
C3    C5    D    
Ba2   O24   S    
C23   O7    S    
C2    P6    S    
C18   C26   A    
Ba2   O5    S    
C37   O21   S    
C7    P1    S    
Ba1   O24   S    
H48   O21   S    
Ba1   O27   S    
C31   H45   S    
O10   P6    S    
C35   H5    S    
C8    H31   S    
C19   H40   S    
O15   P2    D    
C6    H30   S    
C31   C32   S    
C32   H51   S    
C1    C12   S    
C30   H23   S    
C10   P4    S    
O13   P1    S    
C38   C39   S    
C41   H26   S    
C20   C25   A    
C11   C13   A    
C18   H39   S    
C31   O13   S    
O22   P3    S    
O25   P8    S    
C3    H33   S    
Ba1   O5    S    
C21   P3    S    
Ba2   O25   S    
C22   P2    S    
C39   H44   S    
C5    C14   S    
C7    C42   D    
O27   P7    S    
C14   H32   S    
O6    P7    D    
C32   H50   S    
C22   C24   A    
C2    C3    S    
C31   H49   S    
C39   H21   S    
Ba2   O23   S    
O24   P4    S    
C16   H17   S    
O17   P3    D    
Ba2   O28   S    
C2    C42   S    
C29   C36   S    
Ba1   P1    S    
C26   P7    S    
C19   C21   A    
C27   C29   A    
C17   H46   S    
O23   P4    D    
C28   C30   S    
C36   O19   S    
C1    H9    S    
C14   C15   D    
C12   O14   S    
O2    P5    D    
C35   H6    S    
H47   O19   S    
C28   C37   S    
O14   P6    S    
O26   P4    S    
C40   O9    S    
C5    C6    S    
C8    C9    A    
C23   C34   S    
C30   H34   S    
C10   C11   A    
C37   O20   D    
O8    P8    D    
C19   C22   A    
C25   C26   A    
C40   H22   S    
C30   H12   S    
C20   C21   A    
C39   H20   S    
O12   P2    S    
C28   H43   S    
C33   H2    S    
O7    P7    S    
C4    O22   S    
Ba1   O15   S    
Ba2   P4    S    
