data_mof_unit_18737.cif
_audit_creation_date              2012-10-26T21:00:13-0400
_audit_creation_method            fapswitch 2.2
_symmetry_space_group_name_H-M    P1
_symmetry_Int_Tables_number       1
_space_group_crystal_system       triclinic
_cell_length_a                    19.370976
_cell_length_b                    8.742189
_cell_length_c                    7.408224
_cell_angle_alpha                 102.293906
_cell_angle_beta                  94.263001
_cell_angle_gamma                 92.455761
_cell_volume                      1220.16507164

loop_
_atom_site_label
_atom_site_type_symbol
_atom_type_description
_atom_site_fract_x
_atom_site_fract_y
_atom_site_fract_z
_atom_type_partial_charge
C1    C     C_R   0.495602 0.200576 0.455421 0.559431
C2    C     C_R   0.814316 0.460439 0.338136 -0.095019
C3    C     C_R   0.145377 0.496899 0.491713 0.010135
C4    C     C_R   0.854623 0.503101 0.508287 0.010135
C5    C     C_R   0.178205 0.453990 0.325669 -0.013257
C6    C     C_R   0.821795 0.546010 0.674331 -0.013257
C7    C     C_R   0.250582 0.455883 0.335084 -0.128294
C8    C     C_R   0.749418 0.544117 0.664916 -0.128294
C9    C     C_R   0.291189 0.500298 0.505376 0.008528
C10   C     C_R   0.708811 0.499702 0.494624 0.008528
C11   C     C_R   0.930416 0.503161 0.505941 0.344488
C12   C     C_R   0.504398 0.799424 0.544578 0.559431
C13   C     C_R   0.069584 0.496839 0.494059 0.344488
C14   C     C_3   0.137862 0.401241 0.138658 -0.349731
C15   C     C_3   0.862138 0.598759 0.861342 -0.349731
C16   C     C_3   0.426142 0.954722 0.292173 -0.342146
C17   C     C_3   0.573858 0.045278 0.707827 -0.342146
C18   C     C_2   0.483096 0.035547 0.438307 -0.036765
C19   C     C_2   0.516904 0.964453 0.561693 -0.036765
C20   C     C_R   0.367366 0.500881 0.502740 0.561150
C21   C     C_R   0.632634 0.499118 0.497260 0.561149
C22   C     C_R   0.257815 0.542820 0.670583 0.216097
C23   C     C_R   0.742185 0.457180 0.329417 0.216097
C24   C     C_R   0.185684 0.539561 0.661864 -0.095019
Cl1   Cl    Cl    0.302539 0.605822 0.892303 -0.634940
Cl2   Cl    Cl    0.697461 0.394178 0.107697 -0.634940
Cu1   Cu    Cu3+1 0.507710 0.517380 0.684380 1.014068
Cu2   Cu    Cu3+1 0.492290 0.482620 0.315620 1.014068
H1    H     H_    0.160829 0.573582 0.789535 0.156199
H2    H     H_    0.827943 0.644113 0.972142 0.143618
H3    H     H_    0.888311 0.498622 0.900360 0.176162
H4    H     H_    0.901190 0.694501 0.857442 0.156433
H5    H     H_    0.395723 0.040945 0.234618 0.139522
H6    H     H_    0.448950 0.878681 0.174507 0.185112
H7    H     H_    0.388804 0.884668 0.353551 0.159852
H8    H     H_    0.604276 0.959055 0.765382 0.139522
H9    H     H_    0.611196 0.115332 0.646449 0.159852
H10   H     H_    0.551050 0.121319 0.825493 0.185112
H11   H     H_    0.839171 0.426418 0.210465 0.156199
H12   H     H_    0.275398 0.421395 0.207512 0.180271
H13   H     H_    0.724602 0.578605 0.792488 0.180271
H14   H     H_    0.445512 0.379907 0.948599 0.252169
H15   H     H_    0.554488 0.620093 0.051401 0.252169
H16   H     H_    0.172057 0.355887 0.027858 0.143618
H17   H     H_    0.098810 0.305499 0.142558 0.156433
H18   H     H_    0.111689 0.501378 0.099640 0.176162
N1    N     N_R   0.030059 0.545852 0.360972 -0.223968
N2    N     N_R   0.969941 0.454147 0.639028 -0.223968
N3    N     N_R   0.961678 0.548210 0.366210 -0.234805
N4    N     N_R   0.038321 0.451790 0.633790 -0.234805
N5    N     N_2   0.480680 0.456420 0.038530 -0.231431
N6    N     N_2   0.519320 0.543580 0.961470 -0.231431
O1    O     O_R   0.505010 0.286130 0.619770 -0.519121
O2    O     O_R   0.494990 0.713870 0.380230 -0.519121
O3    O     O_R   0.491990 0.256780 0.308370 -0.499660
O4    O     O_R   0.508010 0.743220 0.691630 -0.499660
O5    O     O_R   0.406650 0.514660 0.655750 -0.448193
O6    O     O_R   0.593350 0.485340 0.344250 -0.448193
O7    O     O_R   0.393640 0.485310 0.344340 -0.505906
O8    O     O_R   0.606360 0.514690 0.655660 -0.505906

loop_
_geom_bond_atom_site_label_1
_geom_bond_atom_site_label_2
_ccdc_geom_bond_type
C10   C21   S    
C2    C4    A    
C7    H12   S    
Cu1   O1    S    
C15   H3    S    
C11   N3    A    
C17   H8    S    
Cu2   O6    S    
C16   H5    S    
C9    C20   S    
C3    C13   S    
C14   H18   S    
H14   N5    S    
Cu1   O8    S    
C1    O1    A    
C2    C23   A    
N2    N4    A    
C1    O3    A    
C15   H4    S    
N1    N3    A    
C17   H9    S    
C8    H13   S    
C4    C11   S    
C11   N2    A    
C5    C14   S    
C12   O4    A    
C21   O8    A    
C6    C8    A    
C12   C19   S    
C14   H16   S    
C13   N1    A    
C17   C19   S    
Cu2   O3    S    
C18   C19   D    
C14   H17   S    
C5    C7    A    
C17   H10   S    
C3    C24   A    
C16   H7    S    
C10   C23   A    
Cu2   N5    S    
C22   C24   A    
H15   N6    S    
C23   Cl2   S    
C4    C6    A    
N5    N6    D    
C21   O6    A    
Cu1   N6    S    
C15   H2    S    
C16   C18   S    
C9    C22   A    
Cu1   O5    S    
Cu2   O7    S    
Cu1   Cu2   S    
C7    C9    A    
C1    C18   S    
Cu1   O4    S    
Cu2   O2    S    
C16   H6    S    
C6    C15   S    
C24   H1    S    
C20   O5    A    
C2    H11   S    
C8    C10   A    
C12   O2    A    
C13   N4    A    
C20   O7    A    
C3    C5    A    
C22   Cl1   S    
