data_mof_unit_51879.cif
_audit_creation_date              2012-12-10T17:52:03-0500
_audit_creation_method            fapswitch 2.2
_symmetry_space_group_name_H-M    P1
_symmetry_Int_Tables_number       1
_space_group_crystal_system       triclinic
_cell_length_a                    14.682212
_cell_length_b                    14.714663
_cell_length_c                    19.311114
_cell_angle_alpha                 76.287322
_cell_angle_beta                  103.031563
_cell_angle_gamma                 115.444922
_cell_volume                      3623.43819905

loop_
_atom_site_label
_atom_site_type_symbol
_atom_type_description
_atom_site_fract_x
_atom_site_fract_y
_atom_site_fract_z
_atom_type_partial_charge
C1    C     C_R   0.879864 0.311778 0.512009 0.773681
C2    C     C_R   0.120159 0.688026 0.488981 0.806795
C3    C     C_R   0.812141 0.203022 0.524347 -0.074589
C4    C     C_R   0.188353 0.795212 0.492196 -0.051351
C5    C     C_R   0.786082 0.025631 0.562765 -0.181730
C6    C     C_R   0.217661 0.965491 0.505118 -0.179411
C7    C     C_R   0.851496 0.127626 0.547461 -0.187139
C8    C     C_R   0.150474 0.867535 0.492895 -0.183777
C9    C     C_R   0.706972 0.174874 0.516825 -0.207557
C10   C     C_R   0.293643 0.822536 0.502769 -0.240574
C11   C     C_R   0.640907 0.074063 0.539153 0.102477
C12   C     C_R   0.362034 0.916645 0.523080 0.085317
C13   C     C_R   0.681081 0.998283 0.558261 0.094586
C14   C     C_R   0.323028 0.990637 0.519837 0.134875
C15   C     C_R   0.535406 0.045971 0.539717 0.027491
C16   C     C_R   0.468515 0.941133 0.542493 -0.030533
C17   C     C_R   0.511551 0.866241 0.567103 0.145374
C18   C     C_R   0.494580 0.117292 0.541629 0.137245
C19   C     C_R   0.616627 0.896288 0.574317 -0.194291
C20   C     C_R   0.389343 0.088528 0.532072 -0.260965
C21   C     C_R   0.710640 0.659232 0.372859 -0.288894
C22   C     C_R   0.295491 0.351204 0.632384 -0.303658
C23   C     C_R   0.000365 0.500773 0.632240 0.842205
C24   C     C_R   0.999123 0.498301 0.367763 0.791137
C25   C     C_R   0.793591 0.631943 0.394338 0.079026
C26   C     C_R   0.208083 0.370424 0.606919 0.029579
C27   C     C_R   0.717799 0.515379 0.493570 0.029776
C28   C     C_R   0.284629 0.489639 0.508834 0.033067
C29   C     C_R   0.631731 0.541522 0.475659 -0.061139
C30   C     C_R   0.376181 0.473313 0.531613 -0.056039
C31   C     C_R   0.628590 0.613886 0.412771 0.061872
C32   C     C_R   0.380402 0.402674 0.595355 0.073561
C33   C     C_R   0.549060 0.497742 0.517155 0.016043
C34   C     C_R   0.462191 0.523143 0.493115 0.010853
C35   C     C_R   0.464094 0.597585 0.431490 -0.319302
C36   C     C_R   0.551497 0.431100 0.582731 -0.328282
C37   C     C_R   0.543866 0.639988 0.390192 0.465322
C38   C     C_R   0.469603 0.385254 0.621908 0.418470
C39   C     C_R   0.092599 0.539059 0.753802 0.440862
C40   C     C_R   0.902038 0.457660 0.246344 0.453905
C41   C     C_R   0.090606 0.535297 0.826637 -0.241212
C42   C     C_R   0.902581 0.455954 0.174381 -0.227432
C43   C     C_R   0.997666 0.491535 0.854414 -0.003047
C44   C     C_R   0.994363 0.482616 0.148551 -0.010454
C45   C     C_R   0.906112 0.453514 0.807974 -0.159268
C46   C     C_R   0.086227 0.511104 0.195902 -0.163783
C47   C     C_R   0.907439 0.458434 0.735296 -0.266226
C48   C     C_R   0.086734 0.515031 0.267246 -0.257351
C49   C     C_R   0.000250 0.500382 0.708019 -0.110010
C50   C     C_R   0.995550 0.490794 0.292717 -0.130007
C51   C     C_R   0.994764 0.482696 0.072259 0.437303
C52   C     C_R   0.996402 0.487476 0.931216 0.436748
Cu1   Cu    Cu3+1 0.081740 0.475680 0.518680 0.935398
Cu2   Cu    Cu3+1 0.918260 0.524320 0.481320 0.944649
H1    H     H_    0.274545 0.542033 0.461478 0.116347
H2    H     H_    0.724928 0.458557 0.538622 0.129945
H3    H     H_    0.143484 0.332221 0.636272 0.127735
H4    H     H_    0.856770 0.667260 0.363627 0.135089
H5    H     H_    0.711117 0.715548 0.325115 0.180413
H6    H     H_    0.296561 0.296959 0.681191 0.180282
H7    H     H_    0.405149 0.626366 0.414188 0.133500
H8    H     H_    0.616787 0.413143 0.606052 0.148779
H9    H     H_    0.161841 0.568355 0.860905 0.158963
H10   H     H_    0.830745 0.433615 0.138894 0.166663
H11   H     H_    0.833317 0.419667 0.827697 0.157711
H12   H     H_    0.158180 0.531617 0.177756 0.158058
H13   H     H_    0.835935 0.427938 0.700512 0.157596
H14   H     H_    0.158956 0.539065 0.302270 0.154988
H15   H     H_    0.648166 0.838813 0.593287 0.157915
H16   H     H_    0.359613 0.143894 0.533541 0.155556
H17   H     H_    0.321288 0.769669 0.494258 0.151250
H18   H     H_    0.677450 0.232220 0.491532 0.176472
H19   H     H_    0.069255 0.848187 0.484856 0.155152
H20   H     H_    0.932589 0.147273 0.553366 0.155196
H21   H     H_    0.817740 0.968201 0.579024 0.136042
H22   H     H_    0.187217 0.021133 0.504228 0.135135
N1    N     N_R   0.907043 0.454030 0.957304 -0.248856
N2    N     N_R   0.084022 0.515635 0.046203 -0.246176
N3    N     N_R   0.906245 0.451784 0.026448 -0.246258
N4    N     N_R   0.084827 0.517987 0.977097 -0.246858
N5    N     N_R   0.795420 0.560800 0.453240 -0.179551
N6    N     N_R   0.204580 0.439200 0.546760 -0.173650
O1    O     O_R   0.977910 0.338110 0.524620 -0.582932
O2    O     O_R   0.022090 0.661890 0.475380 -0.587561
O3    O     O_R   0.839850 0.379180 0.493080 -0.594739
O4    O     O_R   0.160150 0.620820 0.506920 -0.582601
O5    O     O_R   0.069040 0.479450 0.615630 -0.570716
O6    O     O_R   0.930960 0.520550 0.384370 -0.551908
O7    O     O_R   0.930990 0.520520 0.584090 -0.586329
O8    O     O_R   0.069010 0.479480 0.415910 -0.590022
O9    O     O_3   0.183085 0.592484 0.725113 -0.612611
C53   C     C_3   0.248671 0.540048 0.748986 0.058583
H23   H     H_    0.261476 0.520658 0.700789 0.187499
H24   H     H_    0.217964 0.466984 0.786696 0.112705
C54   C     C_3   0.350877 0.610313 0.784863 -0.322645
H25   H     H_    0.377865 0.686080 0.750152 0.241517
H26   H     H_    0.341021 0.621109 0.837314 0.209841
C55   C     C_3   0.431361 0.566377 0.797265 -0.925252
H27   H     H_    0.405536 0.489442 0.830522 0.250847
H28   H     H_    0.503409 0.617077 0.825767 0.264239
H29   H     H_    0.446418 0.561188 0.744796 0.256549
O10   O     O_3   0.809880 0.432903 0.268880 -0.608387
C56   C     C_3   0.778933 0.335713 0.312732 0.091531
H30   H     H_    0.738454 0.337884 0.354088 0.180874
H31   H     H_    0.843348 0.314562 0.342635 0.101276
C57   C     C_3   0.705223 0.253316 0.267858 -0.385151
H32   H     H_    0.640980 0.274394 0.238373 0.233725
H33   H     H_    0.745547 0.247546 0.227861 0.217418
C58   C     C_3   0.662946 0.149831 0.315541 -0.882655
H34   H     H_    0.725908 0.127065 0.345502 0.261567
H35   H     H_    0.610853 0.091278 0.281587 0.262413
H36   H     H_    0.619617 0.152993 0.354610 0.253263
O11   O     O_3   0.543301 0.714052 0.330391 -0.618075
C59   C     C_3   0.465052 0.671373 0.274789 0.042541
H37   H     H_    0.448744 0.734856 0.238080 0.174404
H38   H     H_    0.391846 0.617088 0.294507 0.124630
C60   C     C_3   0.499522 0.619947 0.231395 -0.366995
H39   H     H_    0.570637 0.675959 0.209919 0.227290
H40   H     H_    0.515481 0.555480 0.266885 0.218314
C61   C     C_3   0.417833 0.579203 0.168835 -0.884135
H41   H     H_    0.346565 0.521604 0.189259 0.252647
H42   H     H_    0.444918 0.542550 0.138450 0.261016
H43   H     H_    0.401550 0.642392 0.131669 0.257944
O12   O     O_3   0.475051 0.317549 0.684548 -0.624777
C62   C     C_3   0.530741 0.373741 0.741216 0.033930
H44   H     H_    0.491732 0.420128 0.748987 0.148298
H45   H     H_    0.609714 0.424901 0.730055 0.144607
C63   C     C_3   0.537251 0.299884 0.810733 -0.327348
H46   H     H_    0.459077 0.246923 0.822042 0.224944
H47   H     H_    0.577686 0.254254 0.804165 0.225681
C64   C     C_3   0.593986 0.356692 0.874385 -0.896689
H48   H     H_    0.672602 0.409853 0.864481 0.261001
H49   H     H_    0.598509 0.301126 0.923840 0.262607
H50   H     H_    0.553149 0.400540 0.883155 0.256106
N7    N     N_3   0.454995 0.762709 0.597583 -0.601771
H51   H     H_    0.391462 0.755556 0.617659 0.243685
H52   H     H_    0.434755 0.715015 0.559393 0.220016
N8    N     N_3   0.558584 0.215282 0.561766 -0.616059
H53   H     H_    0.538899 0.218578 0.609590 0.262025
H54   H     H_    0.543333 0.270525 0.521511 0.216792

loop_
_geom_bond_atom_site_label_1
_geom_bond_atom_site_label_2
_ccdc_geom_bond_type
C15   C18   A    
Cu2   O6    S    
C27   C29   A    
C2    O2    A    
C54   H25   S    
C9    H18   S    
C4    C8    A    
C64   H50   S    
C63   H46   S    
Cu2   O2    S    
C59   H37   S    
C54   C55   S    
N7    H51   S    
C39   C41   A    
Cu1   Cu2   S    
C21   C31   A    
C22   C32   A    
C35   C37   A    
C21   H5    S    
C3    C7    A    
C58   H35   S    
C22   H6    S    
N2    N4    A    
C43   C52   S    
C23   C49   S    
C37   O11   S    
C57   H32   S    
C15   C16   A    
C29   C33   A    
C33   C36   A    
C34   C35   A    
C47   H13   S    
C18   N8    S    
C53   H23   S    
C11   C15   A    
C56   H31   S    
C12   C16   A    
C44   C46   A    
C16   C17   A    
C17   N7    S    
C62   C63   S    
C23   O7    A    
Cu1   O4    S    
C32   C38   A    
C5    C13   A    
C61   H43   S    
C10   H17   S    
C40   C42   A    
C26   N6    A    
C23   O5    A    
C25   N5    A    
C41   C43   A    
C20   H16   S    
C42   C44   A    
C36   H8    S    
C39   O9    S    
C28   H1    S    
C61   H42   S    
C7    H20   S    
C45   C47   A    
C24   C50   S    
C46   C48   A    
C30   C34   A    
C28   N6    A    
C14   C20   A    
C27   N5    A    
Cu2   O7    S    
C47   C49   A    
C58   H36   S    
O9    C53   S    
C5    C7    A    
C13   C19   A    
C27   H2    S    
C6    C8    A    
C53   C54   S    
C31   C37   A    
C63   H47   S    
Cu1   N6    S    
C1    C3    S    
C5    H21   S    
C2    C4    S    
C3    C9    A    
C6    C14   A    
C24   O6    A    
C53   H24   S    
C33   C34   A    
N1    N3    A    
Cu1   O5    S    
C48   H14   S    
C43   C45   A    
C10   C12   A    
C44   C51   S    
C39   C49   A    
C12   C14   A    
C55   H28   S    
C9    C11   A    
C45   H11   S    
C62   H44   S    
C60   C61   S    
C1    O3    A    
C25   H4    S    
C41   H9    S    
C4    C10   A    
C52   N1    A    
C63   C64   S    
C42   H10   S    
C56   H30   S    
C61   H41   S    
O11   C59   S    
N7    H52   S    
C21   C25   A    
C64   H49   S    
C24   O8    A    
Cu2   O3    S    
C59   H38   S    
C54   H26   S    
C46   H12   S    
C6    H22   S    
N8    H54   S    
C1    O1    A    
C55   H29   S    
Cu1   O1    S    
C60   H40   S    
C51   N2    A    
C28   C30   A    
C29   C31   A    
C52   N4    A    
C60   H39   S    
C36   C38   A    
C30   C32   A    
C11   C13   A    
C57   H33   S    
C35   H7    S    
C40   C50   A    
C48   C50   A    
C8    H19   S    
C17   C19   A    
C2    O4    A    
C56   C57   S    
C18   C20   A    
O10   C56   S    
C26   H3    S    
C51   N3    A    
C59   C60   S    
C19   H15   S    
N8    H53   S    
C40   O10   S    
C55   H27   S    
C22   C26   A    
Cu1   O8    S    
C62   H45   S    
C58   H34   S    
Cu2   N5    S    
C38   O12   S    
C64   H48   S    
O12   C62   S    
C57   C58   S    
