data_mof_unit_37496.cif
_audit_creation_date              2013-03-05T16:15:05-0500
_audit_creation_method            fapswitch 2.2
_symmetry_space_group_name_H-M    P1
_symmetry_Int_Tables_number       1
_space_group_crystal_system       triclinic
_cell_length_a                    8.278635
_cell_length_b                    17.445677
_cell_length_c                    18.736998
_cell_angle_alpha                 103.340271
_cell_angle_beta                  91.443224
_cell_angle_gamma                 98.284122
_cell_volume                      2600.82115017

loop_
_atom_site_label
_atom_site_type_symbol
_atom_site_description
_atom_site_fract_x
_atom_site_fract_y
_atom_site_fract_z
_atom_type_partial_charge
P1    P     P_3+3 0.038810 0.422920 0.331160 0.481708
O1    O     O_2   0.871520 0.445720 0.321500 -0.370065
O2    O     O_3   0.121030 0.451930 0.411150 -0.385140
O3    O     O_3   0.662190 0.593100 0.375060 -0.374728
O4    O     O_2   0.765600 0.532799 0.244673 -0.403957
O5    O     O_3   0.007351 0.319512 0.297897 -0.572946
O6    O     O_3   0.700961 0.677197 0.264129 -0.535671
H1    H     H_    0.638286 0.735397 0.367812 0.127313
C1    C     C_3   0.668299 0.814241 0.294475 -0.748847
H2    H     H_    0.801560 0.833370 0.310631 0.286181
H3    H     H_    0.646531 0.813149 0.235057 0.242138
P2    P     P_3+3 0.678260 0.686080 0.568600 0.477796
P3    P     P_3+3 0.133633 0.739147 0.427771 0.469443
O7    O     O_2   0.853880 0.696450 0.547730 -0.367026
O8    O     O_3   0.085100 0.636210 0.413950 -0.407410
O9    O     O_2   0.978528 0.774629 0.454305 -0.354602
O10   O     O_3   0.726527 0.717909 0.664128 -0.505383
O11   O     O_3   0.161609 0.762766 0.342383 -0.521907
C2    C     C_3   0.120276 0.692983 0.286356 0.465006
H4    H     H_    0.993842 0.663957 0.290625 0.180943
H5    H     H_    0.206525 0.650599 0.289453 0.030272
C3    C     C_3   0.130164 0.713750 0.211924 -0.930828
H6    H     H_    0.094243 0.658918 0.167546 0.223861
H7    H     H_    0.045694 0.756840 0.207685 0.283984
C4    C     C_3   0.198633 0.717265 0.636005 0.241888
H8    H     H_    0.314830 0.711247 0.609599 -0.021982
H9    H     H_    0.100475 0.688706 0.594232 0.149620
C5    C     C_3   0.188079 0.806490 0.662946 -0.072125
H10   H     H_    0.298162 0.837277 0.698492 0.098322
H11   H     H_    0.185321 0.834144 0.615280 0.084573
Ba1   Ba    Ba6+2 0.853800 0.535410 0.467450 1.579384
C6    C     C_3   0.948928 0.278294 0.349767 0.074707
H12   H     H_    0.838496 0.300685 0.373150 0.067700
H13   H     H_    0.044841 0.284907 0.394128 0.148195
C7    C     C_3   0.903835 0.190289 0.308174 0.330408
H14   H     H_    0.792848 0.185872 0.271630 0.090632
C8    C     C_3   0.600828 0.692853 0.706649 0.328979
H15   H     H_    0.638590 0.645777 0.731861 0.043267
H16   H     H_    0.484684 0.670653 0.674634 0.131310
C9    C     C_3   0.578747 0.762371 0.769870 -0.795202
H17   H     H_    0.700134 0.791308 0.798289 0.290785
H18   H     H_    0.498233 0.739891 0.810283 0.203742
H19   H     H_    0.521587 0.807981 0.749029 0.232628
P4    P     P_3+3 0.150900 0.577150 0.668860 0.485297
O12   O     O_2   0.318180 0.554310 0.678550 -0.410669
O13   O     O_3   0.068680 0.548140 0.588860 -0.386194
O14   O     O_3   0.527520 0.406960 0.624950 -0.391044
O15   O     O_3   0.194918 0.681808 0.695908 -0.559068
P5    P     P_3+3 0.068114 0.261314 0.581375 0.500611
O16   O     O_3   0.608500 0.402060 0.457050 -0.399221
O17   O     O_3   0.104610 0.363860 0.586060 -0.373655
O18   O     O_2   0.192027 0.220821 0.531068 -0.369651
O19   O     O_3   0.105454 0.239765 0.667351 -0.600261
Ba2   Ba    Ba6+2 0.336030 0.464660 0.532560 1.593869
P6    P     P_3+3 0.637510 0.583122 0.280712 0.419666
C10   C     C_3   0.613023 0.731794 0.307941 0.329390
H20   H     H_    0.478698 0.714745 0.292989 0.060567
H21   H     H_    0.597987 0.857772 0.328057 0.235985
O20   O     O_3   0.581210 0.598010 0.542960 -0.414641
C11   C     C_3   0.462675 0.333828 0.304418 0.444320
H22   H     H_    0.342080 0.348293 0.323065 0.101764
H23   H     H_    0.556936 0.387833 0.321288 0.102951
C12   C     C_3   0.451339 0.308549 0.220925 -0.909415
H24   H     H_    0.355933 0.255431 0.201729 0.306827
H25   H     H_    0.418738 0.357760 0.197716 0.202479
H26   H     H_    0.570941 0.293936 0.200824 0.248312
P7    P     P_3+3 0.517206 0.301228 0.428970 0.484069
O21   O     O_2   0.335820 0.303580 0.452320 -0.347761
O22   O     O_3   0.505334 0.271197 0.332898 -0.528195
H27   H     H_    0.257212 0.740494 0.204722 0.255940
C13   C     C_3   0.083062 0.304103 0.725559 0.787951
H28   H     H_    0.154952 0.360270 0.718845 0.083387
C14   C     C_3   0.143943 0.289978 0.798762 -0.938225
H29   H     H_    0.277648 0.291699 0.801634 0.261772
H30   H     H_    0.115161 0.337587 0.845153 0.234290
H31   H     H_    0.084923 0.231080 0.805882 0.278975
P8    P     P_3+3 0.545599 0.421159 0.720596 0.468748
C15   C     C_3   0.493525 0.266962 0.674007 0.534403
H32   H     H_    0.599170 0.268858 0.639397 0.101099
O23   O     O_2   0.396736 0.457960 0.752728 -0.447138
O24   O     O_3   0.521259 0.326418 0.740034 -0.509030
H33   H     H_    0.387308 0.274984 0.641768 0.132150
H34   H     H_    0.574436 0.172786 0.717522 0.284080
C16   C     C_3   0.463238 0.184652 0.690268 -0.906296
H35   H     H_    0.432367 0.138610 0.638124 0.220000
H36   H     H_    0.359909 0.179750 0.726251 0.277292
C17   C     C_R   0.988661 0.464280 0.045885 0.035406
C18   C     C_R   0.895874 0.421955 0.090833 -0.180776
C19   C     C_R   0.759638 0.444205 0.951471 -0.182839
C20   C     C_R   0.925614 0.470435 0.975874 0.047837
C21   C     C_R   0.699971 0.449155 0.882805 -0.060616
C22   C     C_R   0.802418 0.480184 0.834428 -0.011985
C23   C     C_R   0.968356 0.509881 0.858048 -0.006180
C24   C     C_R   0.029688 0.506287 0.929469 0.041372
C25   C     C_R   0.742502 0.482905 0.763484 0.232508
C26   C     C_R   0.847341 0.518468 0.717793 -0.260829
C27   C     C_R   0.016098 0.540768 0.737485 0.248708
C28   C     C_R   0.073498 0.542765 0.810312 -0.073075
C29   C     C_R   0.151496 0.499359 0.071318 0.035653
C30   C     C_R   0.210607 0.498893 0.143910 0.001870
C31   C     C_R   0.107816 0.462827 0.190674 -0.052231
C32   C     C_R   0.955081 0.420320 0.160731 -0.027261
H37   H     H_    0.570801 0.429465 0.868848 0.163386
H38   H     H_    0.877453 0.385669 0.190994 0.163622
C33   C     C_R   0.231079 0.579881 0.838140 -0.019392
C34   C     C_R   0.290424 0.577734 0.907563 -0.201895
C35   C     C_R   0.194369 0.538994 0.953987 0.042225
C36   C     C_R   0.255902 0.534900 0.024839 0.057992
C37   C     C_R   0.420310 0.563993 0.050592 -0.203739
C38   C     C_R   0.373275 0.533748 0.169332 -0.010188
C39   C     C_R   0.476874 0.563678 0.120916 -0.148131
C40   C     C_R   0.428179 0.537320 0.242317 0.167824
C41   C     C_R   0.321035 0.507517 0.289457 -0.537997
C42   C     C_R   0.162390 0.469448 0.265185 0.268416
H39   H     H_    0.311248 0.612528 0.807298 0.148456
H40   H     H_    0.604023 0.587273 0.136404 0.184585
H41   H     H_    0.364022 0.511616 0.345432 0.179668
H42   H     H_    0.670343 0.421484 0.985322 0.131293
H43   H     H_    0.776830 0.387779 0.072941 0.131386
H44   H     H_    0.412702 0.608669 0.923439 0.119231
H45   H     H_    0.510666 0.587057 0.017485 0.132213
C43   C     C_2   0.439719 0.724746 0.487827 -0.453837
C44   C     C_3   0.314079 0.780380 0.493639 0.168688
C45   C     C_2   0.393871 0.861742 0.487450 -0.214355
C46   C     C_2   0.555123 0.886154 0.507877 -0.097397
C47   C     C_2   0.651446 0.827571 0.529988 -0.152918
C48   C     C_1   0.582684 0.752863 0.524274 0.269085
C49   C     C_R   0.789253 0.144765 0.545174 -0.160658
C50   C     C_R   0.860604 0.221134 0.542343 0.345192
C51   C     C_R   0.618019 0.237905 0.476383 0.209989
C52   C     C_R   0.547235 0.159836 0.476840 -0.158888
C53   C     C_R   0.634217 0.112140 0.510304 0.133160
C54   C     C_2   0.640105 0.966706 0.504077 0.378168
C55   C     C_2   0.558095 0.030038 0.511370 -0.314851
C56   C     C_R   0.773788 0.268143 0.509719 -0.458738
H46   H     H_    0.427969 0.022516 0.519432 0.149844
H47   H     H_    0.777259 0.845995 0.551199 0.223596
H48   H     H_    0.854386 0.112010 0.575528 0.184698
H49   H     H_    0.318896 0.899785 0.468143 0.183807
H50   H     H_    0.427034 0.135912 0.450171 0.197468
H51   H     H_    0.414265 0.664035 0.454366 0.167258
H52   H     H_    0.829230 0.327963 0.508752 0.178745
N1    N     N_R   0.043036 0.819993 0.704025 0.301359
O25   O     O_R   0.942834 0.863471 0.684200 -0.351903
O26   O     O_R   0.027805 0.800538 0.766884 -0.349249
N2    N     N_R   0.866897 0.137993 0.357972 0.206058
O27   O     O_R   0.730014 0.088630 0.347403 -0.363431
O28   O     O_R   0.981354 0.129377 0.403011 -0.329539
N3    N     N_R   0.036175 0.164316 0.262594 0.266587
O29   O     O_R   0.179689 0.164166 0.292537 -0.319093
O30   O     O_R   0.012056 0.143035 0.191338 -0.360794
N4    N     N_R   0.911180 0.313023 0.727600 0.195606
O31   O     O_R   0.851695 0.348583 0.681778 -0.503516
O32   O     O_R   0.818668 0.288745 0.775673 -0.400799
N5    N     N_3   0.784096 0.531052 0.649846 -0.122163
H53   H     H_    0.831175 0.589206 0.648027 0.154588
H54   H     H_    0.660320 0.535152 0.651991 0.160067
N6    N     N_R   0.810365 0.974574 0.488689 0.241484
O33   O     O_R   0.921577 0.974189 0.539083 -0.401888
O34   O     O_R   0.852652 0.973904 0.422091 -0.300644

loop_
_geom_bond_atom_site_label_1
_geom_bond_atom_site_label_2
_geom_bond_distance
_ccdc_geom_bond_type
O5    C6    1.393396 S    
C17   C18   1.414465 A    
C12   H25   1.110024 S    
C47   H47   1.081586 S    
C30   C38   1.417113 A    
C47   C48   1.323986 D    
P6    C40   1.852603 S    
N5    H54   1.038563 S    
C14   H29   1.102582 S    
C45   H49   1.083882 S    
C33   C34   1.389394 A    
C25   C26   1.413691 A    
O6    P6    1.749621 S    
O7    Ba1   2.864422 S    
C49   C50   1.390741 A    
H1    C10   1.121585 S    
C27   C28   1.424674 A    
C44   C45   1.508033 S    
P2    C48   1.830928 S    
C10   H20   1.119865 S    
C4    C5    1.537603 S    
C29   C36   1.422192 A    
O16   Ba2   2.905189 S    
C28   C33   1.399833 A    
P3    O11   1.754580 S    
C11   C12   1.520846 S    
C5    H10   1.107199 S    
C2    H5    1.108956 S    
C16   H36   1.108246 S    
O11   C2    1.404749 S    
C8    C9    1.522937 S    
N3    O30   1.302585 A    
P3    C44   1.860102 S    
O2    Ba2   2.800244 S    
C26   N5    1.439333 S    
Ba2   O21   2.864632 S    
C34   C35   1.413150 A    
N1    O25   1.302796 A    
P1    Ba1   3.386578 S    
C36   C37   1.413437 A    
C11   H23   1.111220 S    
P1    O1    1.512730 D    
Ba1   O20   2.906025 S    
C43   C48   1.321055 D    
C49   H48   1.078938 S    
C38   C39   1.399958 A    
C22   C23   1.417716 A    
C52   H50   1.083121 S    
C50   C56   1.393502 A    
P2    O20   1.587821 S    
C56   H52   1.082225 S    
C51   C56   1.393810 A    
P5    O17   1.752104 S    
Ba1   O13   2.799645 S    
P2    O10   1.764419 S    
C35   C36   1.430785 A    
C39   H40   1.079957 S    
C19   C21   1.392244 A    
C1    H2    1.118284 S    
N2    O28   1.300742 A    
C9    H18   1.121875 S    
C12   H26   1.111050 S    
N6    O34   1.302412 A    
C31   C42   1.430149 A    
C14   H30   1.111977 S    
O6    C10   1.407203 S    
C49   C53   1.404921 A    
C40   C41   1.398493 A    
P4    O13   1.570218 S    
C20   C24   1.422321 A    
C17   C29   1.419220 A    
Ba2   O20   2.824908 S    
C9    H19   1.118984 S    
C24   C35   1.420784 A    
P7    O21   1.578152 D    
C31   C32   1.401975 A    
C2    C3    1.520972 S    
C16   H35   1.109590 S    
C41   C42   1.397144 A    
C19   C20   1.413190 A    
C21   C22   1.402437 A    
C5    N1    1.460880 S    
C15   H32   1.103033 S    
C55   H46   1.084963 S    
C4    H8    1.100130 S    
P5    C50   1.824980 S    
P8    C25   1.868656 S    
C22   C25   1.420558 A    
P1    O5    1.745943 S    
C11   H22   1.109932 S    
P1    O2    1.570057 S    
C7    H14   1.114709 S    
C6    H13   1.109413 S    
C32   H38   1.079136 S    
C6    C7    1.540092 S    
C8    H15   1.113981 S    
C15   C16   1.523038 S    
C54   C55   1.360713 D    
P4    C27   1.883187 S    
C15   H33   1.097918 S    
H34   C16   1.109544 S    
P8    O24   1.758007 S    
P5    O18   1.546005 D    
C26   C27   1.410848 A    
O13   Ba2   2.910321 S    
C1    C10   1.524964 S    
O10   C8    1.407165 S    
C19   H42   1.077537 S    
C18   H43   1.077456 S    
O2    Ba1   2.909486 S    
C1    H3    1.118669 S    
C4    O15   1.400005 S    
O14   Ba2   2.765657 S    
C41   H41   1.082121 S    
C53   C55   1.484187 S    
C9    H17   1.118509 S    
N4    O32   1.301778 A    
O12   Ba2   2.839568 S    
P3    O8    1.739431 S    
O3    P6    1.739738 S    
C46   C47   1.505203 S    
C14   H31   1.110936 S    
C3    H7    1.112054 S    
C17   C20   1.432267 A    
P7    C51   1.840478 S    
P1    C42   1.876470 S    
O14   P8    1.751114 S    
Ba1   O16   2.825503 S    
C52   C53   1.412353 A    
O19   C13   1.410291 S    
P4    O12   1.513035 D    
C13   C14   1.533944 S    
N2    O27   1.301451 A    
O16   P7    1.764140 S    
P8    O23   1.542866 D    
C46   C54   1.496212 S    
N1    O26   1.303027 A    
C1    H21   1.112121 S    
C34   H44   1.076012 S    
O4    P6    1.543356 D    
C21   H37   1.080973 S    
C18   C32   1.394724 A    
O8    Ba1   2.775562 S    
C4    H9    1.092028 S    
C23   C24   1.437440 A    
C29   C30   1.436058 A    
C33   H39   1.077548 S    
O17   Ba2   2.776166 S    
C6    H12   1.106553 S    
C2    H4    1.108406 S    
C37   C39   1.388720 A    
C51   C52   1.405011 A    
P2    O7    1.511602 D    
C13   H28   1.105804 S    
P2    Ba1   3.399065 S    
N3    O29   1.301677 A    
C15   O24   1.408555 S    
C37   H45   1.076135 S    
N6    O33   1.303915 A    
C11   O22   1.405026 S    
P5    O19   1.766320 S    
C5    H11   1.109914 S    
C30   C31   1.423203 A    
C3    H27   1.112169 S    
Ba1   Ba2   4.562779 S    
C54   N6    1.439338 S    
C38   C40   1.414848 A    
O3    Ba1   2.766159 S    
C12   H24   1.110358 S    
P4    Ba2   3.387245 S    
N4    O31   1.294997 A    
C8    H16   1.091221 S    
P3    O9    1.548650 D    
N5    H53   1.041633 S    
C13   N4    1.454055 S    
C3    H6    1.110590 S    
O1    Ba1   2.839007 S    
C7    N3    1.465134 S    
C43   H51   1.087141 S    
P7    O22   1.750865 S    
C43   C44   1.511151 S    
C23   C28   1.420860 A    
C7    N2    1.457152 S    
P4    O15   1.759331 S    
C45   C46   1.358368 D    
