data_mof_unit_12489.cif
_audit_creation_date              2012-12-10T17:15:10-0500
_audit_creation_method            fapswitch 2.2
_symmetry_space_group_name_H-M    P1
_symmetry_Int_Tables_number       1
_space_group_crystal_system       triclinic
_cell_length_a                    10.100633
_cell_length_b                    10.828819
_cell_length_c                    12.826603
_cell_angle_alpha                 92.705801
_cell_angle_beta                  91.032362
_cell_angle_gamma                 94.920014
_cell_volume                      1395.87631899

loop_
_atom_site_label
_atom_site_type_symbol
_atom_type_description
_atom_site_fract_x
_atom_site_fract_y
_atom_site_fract_z
_atom_type_partial_charge
C1    C     C_R   0.444260 0.267736 0.497339 0.990905
C2    C     C_R   0.665299 0.573364 0.048561 -0.120502
C3    C     C_R   0.342263 0.452365 0.847307 -0.267326
C4    C     C_R   0.657391 0.551348 0.153191 -0.260377
C5    C     C_R   0.556684 0.571847 0.876945 0.309280
C6    C     C_R   0.444118 0.430628 0.122582 0.392155
C7    C     C_R   0.556006 0.538668 0.981333 -0.008974
C8    C     C_R   0.444234 0.465410 0.018754 -0.007194
C9    C     C_2   0.411276 0.136399 0.504301 -0.358299
C10   C     C_2   0.584210 0.865033 0.522091 -0.274253
C11   C     C_2   0.507026 0.067362 0.533497 -0.126524
C12   C     C_R   0.554789 0.732708 0.508427 0.965201
C13   C     C_2   0.482632 0.935344 0.529621 -0.121749
C14   C     C_2   0.071264 0.490526 0.508423 -0.088488
C15   C     C_2   0.928751 0.509569 0.491665 -0.073582
C16   C     C_R   0.474613 0.508649 0.698676 0.944886
C17   C     C_R   0.525437 0.491517 0.301288 0.974584
C18   C     C_R   0.544442 0.486524 0.190649 -0.160765
C19   C     C_R   0.455969 0.515333 0.809317 -0.142196
C20   C     C_R   0.334382 0.431391 0.952030 -0.087763
H1    H     H_    0.737653 0.589182 0.205665 0.177591
H2    H     H_    0.099870 0.425055 0.564445 0.154386
H3    H     H_    0.867628 0.388177 0.595284 0.171175
H4    H     H_    0.132360 0.611822 0.404720 0.176574
H5    H     H_    0.328949 0.171137 0.280958 0.380715
H6    H     H_    0.828962 0.564753 0.843618 0.328254
H7    H     H_    0.261592 0.414671 0.795161 0.175923
H8    H     H_    0.242829 0.385870 0.978882 0.216929
H9    H     H_    0.756681 0.619662 0.022378 0.199557
H10   H     H_    0.379733 0.895966 0.526249 0.189797
H11   H     H_    0.607332 0.107286 0.553561 0.192919
H12   H     H_    0.686849 0.904864 0.525532 0.158264
H13   H     H_    0.311342 0.095949 0.483958 0.154656
H14   H     H_    0.900152 0.575080 0.435675 0.153526
N1    N     N_2   0.162330 0.550370 0.457540 -0.180859
N2    N     N_2   0.837670 0.449630 0.542460 -0.179329
O1    O     O_R   0.567930 0.307680 0.508550 -0.617839
O2    O     O_2   0.298158 0.211952 0.079251 -0.291987
O3    O     O_3   0.394704 0.241225 0.266774 -0.568903
O4    O     O_2   0.614270 0.751244 0.741761 -0.282048
O5    O     O_2   0.710515 0.788555 0.916325 -0.267789
O6    O     O_3   0.811918 0.626838 0.791859 -0.509698
O7    O     O_R   0.432070 0.692320 0.491450 -0.629529
O8    O     O_R   0.351090 0.340020 0.481290 -0.593254
O9    O     O_R   0.648910 0.659980 0.518710 -0.583022
O10   O     O_R   0.590490 0.486480 0.665020 -0.574244
O11   O     O_R   0.409510 0.513520 0.334980 -0.567649
O12   O     O_R   0.373660 0.518820 0.637760 -0.631414
O13   O     O_R   0.626340 0.481180 0.362240 -0.628241
O14   O     O_2   0.203233 0.363595 0.198011 -0.297948
S1    S     S_3+6 0.329255 0.309671 0.165491 0.024211
S2    S     S_3+6 0.673883 0.689985 0.831803 0.048219
Zn1   Zn    Zn3+2 0.644780 0.478400 0.518200 1.014678
Zn2   Zn    Zn3+2 0.355220 0.521600 0.481800 1.007358

loop_
_geom_bond_atom_site_label_1
_geom_bond_atom_site_label_2
_ccdc_geom_bond_type
O3    S1    S    
O1    Zn1   S    
C5    S2    S    
C3    C19   A    
C5    C19   A    
N2    Zn1   S    
C10   H12   S    
C6    S1    S    
C9    C11   D    
C13   H10   S    
C1    O8    A    
C2    C4    A    
C2    C7    A    
O5    S2    D    
C1    O1    A    
C4    C18   A    
C14   H2    S    
C3    H7    S    
O14   S1    D    
C11   H11   S    
C3    C20   A    
H5    O3    S    
N1    Zn2   S    
O12   Zn2   S    
C4    H1    S    
C11   C13   S    
C16   O12   A    
C8    C20   A    
C10   C12   S    
C9    H13   S    
C2    H9    S    
O13   Zn1   S    
O10   Zn1   S    
C17   C18   S    
C12   O7    A    
O11   Zn2   S    
C16   C19   S    
C6    C18   A    
O7    Zn2   S    
H4    N1    S    
C16   O10   A    
C20   H8    S    
O8    Zn2   S    
C15   N2    D    
C7    C8    A    
C1    C9    S    
H6    O6    S    
H3    N2    S    
C17   O13   A    
C14   N1    D    
C5    C7    A    
C14   C15   S    
C6    C8    A    
O2    S1    D    
C15   H14   S    
O4    S2    D    
O9    Zn1   S    
C17   O11   A    
O6    S2    S    
C12   O9    A    
C10   C13   D    
