data_mof_unit_49970.cif
_audit_creation_date              2012-12-10T17:59:17-0500
_audit_creation_method            fapswitch 2.2
_symmetry_space_group_name_H-M    P1
_symmetry_Int_Tables_number       1
_space_group_crystal_system       triclinic
_cell_length_a                    10.921365
_cell_length_b                    9.541588
_cell_length_c                    10.822017
_cell_angle_alpha                 90.833133
_cell_angle_beta                  90.270656
_cell_angle_gamma                 90.658657
_cell_volume                      1127.52449475

loop_
_atom_site_label
_atom_site_type_symbol
_atom_type_description
_atom_site_fract_x
_atom_site_fract_y
_atom_site_fract_z
_atom_type_partial_charge
C1    C     C_R   0.262229 0.499708 0.493262 0.887652
C2    C     C_3   0.619117 0.576865 0.932528 0.803742
C3    C     C_R   0.061640 0.378437 0.453978 0.370242
C4    C     C_R   0.065952 0.628062 0.510267 0.349484
C5    C     C_R   0.933357 0.381982 0.448003 0.347525
C6    C     C_R   0.938850 0.625180 0.523859 0.354691
C7    C     C_R   0.871962 0.501949 0.492155 -0.373770
C8    C     C_R   0.127941 0.501196 0.487069 -0.385916
C9    C     C_R   0.429669 0.072030 0.417765 -0.080985
C10   C     C_R   0.429325 0.923422 0.418098 -0.008386
C11   C     C_R   0.571009 0.928064 0.581402 -0.039499
C12   C     C_R   0.570827 0.076574 0.581774 -0.062049
C13   C     C_R   0.500294 0.498944 0.260262 0.879153
C14   C     C_R   0.737834 0.500696 0.496810 0.913594
C15   C     C_R   0.499400 0.500101 0.740769 0.885587
C16   C     C_3   0.377926 0.558538 0.075321 0.206309
C17   C     C_3   0.515420 0.343855 0.071418 0.206841
C18   C     C_3   0.376909 0.562123 0.932002 0.231658
C19   C     C_3   0.503856 0.341602 0.927816 0.280858
C20   C     C_3   0.609712 0.587342 0.077099 -0.428708
C21   C     C_3   0.500583 0.497274 0.122935 -0.188257
C22   C     C_3   0.499311 0.498099 0.880042 -0.219633
Cu1   Cu    Cu3+1 0.500020 0.640660 0.500000 0.976311
Cu2   Cu    Cu3+1 0.500020 0.359340 0.500000 0.975493
N1    N     N_R   0.500030 0.852070 0.500030 -0.164709
N2    N     N_R   0.500030 0.147930 0.500030 -0.159230
O1    O     O_R   0.319660 0.618740 0.499990 -0.558503
O2    O     O_R   0.319660 0.381260 0.499990 -0.561447
O3    O     O_R   0.499990 0.618790 0.317690 -0.560708
O4    O     O_R   0.499990 0.381210 0.317690 -0.585110
O5    O     O_R   0.680370 0.618830 0.500010 -0.549738
O6    O     O_R   0.680370 0.381170 0.500010 -0.571839
O7    O     O_R   0.500030 0.618780 0.682310 -0.599684
O8    O     O_R   0.500030 0.381220 0.682310 -0.565622
O9    O     O_3   0.360881 0.696163 0.124003 -0.603040
C23   C     C_3   0.237150 0.717450 0.155511 -0.314073
H1    H     H_    0.224749 0.829716 0.179768 0.186701
H2    H     H_    0.212085 0.654632 0.237571 0.191249
H3    H     H_    0.174553 0.691697 0.076967 0.162248
O10   O     O_3   0.633008 0.295630 0.107754 -0.548064
C24   C     C_3   0.632275 0.150443 0.129239 -0.239769
H4    H     H_    0.621610 0.091507 0.041285 0.121839
H5    H     H_    0.560865 0.119319 0.196543 0.150189
H6    H     H_    0.722174 0.121904 0.169049 0.206779
H7    H     H_    0.627774 0.874109 0.646352 0.159598
H8    H     H_    0.628295 0.134150 0.646949 0.117236
H9    H     H_    0.304822 0.484195 0.107292 0.133217
H10   H     H_    0.439397 0.279206 0.110659 0.116093
O11   O     O_3   0.273694 0.481203 0.891053 -0.519840
C25   C     C_3   0.197943 0.556010 0.811364 -0.332833
H11   H     H_    0.251564 0.595990 0.732548 0.167445
H12   H     H_    0.152417 0.642508 0.862443 0.131494
H13   H     H_    0.125823 0.484138 0.774057 0.178423
O12   O     O_3   0.395933 0.267245 0.889751 -0.511672
C26   C     C_3   0.413250 0.121489 0.882647 -0.313294
H14   H     H_    0.419810 0.076477 0.976299 0.147253
H15   H     H_    0.493616 0.094470 0.825439 0.132631
H16   H     H_    0.331903 0.072821 0.836826 0.187856
H17   H     H_    0.369505 0.672727 0.903323 0.114393
H18   H     H_    0.586331 0.290610 0.887560 0.154891
H19   H     H_    0.604245 0.696043 0.113193 0.186450
H20   H     H_    0.694090 0.549264 0.122438 0.199941
O13   O     O_3   0.643575 0.708230 0.874760 -0.598815
C27   C     C_3   0.563639 0.820265 0.898469 -0.483083
H21   H     H_    0.513822 0.818135 0.986553 0.202148
H22   H     H_    0.497034 0.829589 0.821756 0.195498
H23   H     H_    0.619986 0.917198 0.898640 0.181820
O14   O     O_3   0.719060 0.487737 0.900830 -0.606630
C28   C     C_3   0.835909 0.539923 0.937964 -0.290314
H24   H     H_    0.839112 0.653970 0.960733 0.175405
H25   H     H_    0.901691 0.519216 0.862378 0.156823
H26   H     H_    0.868251 0.480964 0.019289 0.200417
O15   O     O_3   0.121990 0.264399 0.404159 -0.539554
C29   C     C_3   0.131656 0.158688 0.493632 -0.296587
H27   H     H_    0.220155 0.165899 0.543488 0.201262
H28   H     H_    0.129314 0.056421 0.443896 0.198304
H29   H     H_    0.058014 0.159206 0.564400 0.112540
O16   O     O_3   0.126537 0.755384 0.493220 -0.548598
C30   C     C_3   0.132951 0.836572 0.603116 -0.261745
H30   H     H_    0.219834 0.897887 0.603314 0.160654
H31   H     H_    0.132933 0.774823 0.687987 0.114300
H32   H     H_    0.056202 0.911240 0.606872 0.184841
O17   O     O_3   0.870778 0.285177 0.373385 -0.533175
C31   C     C_3   0.844718 0.160614 0.437554 -0.163168
H33   H     H_    0.842558 0.173950 0.540081 0.110202
H34   H     H_    0.910176 0.078094 0.410243 0.180006
H35   H     H_    0.753166 0.121759 0.407554 0.180649
O18   O     O_3   0.880370 0.748433 0.554712 -0.553297
C32   C     C_3   0.857109 0.748421 0.682828 -0.295596
H36   H     H_    0.939150 0.722928 0.738744 0.110471
H37   H     H_    0.783034 0.672655 0.703902 0.239851
H38   H     H_    0.828238 0.854713 0.712257 0.175966
H39   H     H_    0.373168 0.126023 0.351769 0.149903
H40   H     H_    0.372187 0.865835 0.352937 0.170817

loop_
_geom_bond_atom_site_label_1
_geom_bond_atom_site_label_2
_ccdc_geom_bond_type
C26   H14   S    
C16   C21   S    
C1    C8    S    
O15   C29   S    
O9    C23   S    
C17   H10   S    
C14   O5    A    
C4    C8    A    
C29   H28   S    
Cu1   O3    S    
C13   O3    A    
C23   H1    S    
Cu2   N2    S    
C2    O14   S    
C16   O9    S    
C5    O17   S    
C10   H40   S    
C6    O18   S    
C24   H4    S    
C20   H19   S    
C28   H25   S    
C15   C22   S    
O14   C28   S    
Cu1   O7    S    
C29   H29   S    
Cu2   O8    S    
C2    C22   S    
C1    O2    A    
C25   H12   S    
Cu1   Cu2   S    
C31   H35   S    
Cu1   O1    S    
C32   H37   S    
C9    C10   A    
C15   O8    A    
C24   H5    S    
C16   H9    S    
C9    N2    A    
C7    C14   S    
C25   H13   S    
C29   H27   S    
C2    C20   S    
C27   H23   S    
C13   O4    A    
C19   C22   S    
C31   H33   S    
C12   H8    S    
C3    C8    A    
C14   O6    A    
C5    C7    A    
O16   C30   S    
C17   C21   S    
C30   H30   S    
C12   N2    A    
C17   O10   S    
C27   H22   S    
C28   H26   S    
Cu2   O6    S    
C4    O16   S    
O17   C31   S    
C25   H11   S    
C13   C21   S    
C20   C21   S    
C32   H38   S    
C10   N1    A    
C4    C6    A    
O10   C24   S    
C26   H15   S    
C24   H6    S    
C11   H7    S    
C9    H39   S    
C2    O13   S    
C19   O12   S    
C30   H31   S    
O12   C26   S    
C18   C22   S    
C23   H3    S    
Cu2   O2    S    
C31   H34   S    
C3    C5    A    
C30   H32   S    
C11   C12   A    
C6    C7    A    
C19   H18   S    
C27   H21   S    
C23   H2    S    
C17   C19   S    
Cu1   N1    S    
C20   H20   S    
C28   H24   S    
C3    O15   S    
Cu2   O4    S    
O13   C27   S    
C18   H17   S    
O18   C32   S    
C16   C18   S    
O11   C25   S    
C26   H16   S    
C1    O1    A    
C11   N1    A    
C32   H36   S    
C15   O7    A    
C18   O11   S    
Cu1   O5    S    
