data_mof_unit_60954.cif
_audit_creation_date              2012-12-10T17:11:12-0500
_audit_creation_method            fapswitch 2.2
_symmetry_space_group_name_H-M    P1
_symmetry_Int_Tables_number       1
_space_group_crystal_system       triclinic
_cell_length_a                    10.074554
_cell_length_b                    10.757078
_cell_length_c                    16.437746
_cell_angle_alpha                 90.741695
_cell_angle_beta                  84.527062
_cell_angle_gamma                 90.363539
_cell_volume                      1773.11122544

loop_
_atom_site_label
_atom_site_type_symbol
_atom_type_description
_atom_site_fract_x
_atom_site_fract_y
_atom_site_fract_z
_atom_type_partial_charge
C1    C     C_R   0.500737 0.737008 0.501844 0.919937
C2    C     C_R   0.534476 0.533804 0.260977 -0.142546
C3    C     C_2   0.597236 0.065719 0.519077 0.071489
C4    C     C_R   0.480652 0.502876 0.653598 0.917446
C5    C     C_2   0.503345 0.132209 0.486807 -0.058726
C6    C     C_2   0.609253 0.936979 0.498090 0.200308
C7    C     C_2   0.502104 0.866476 0.518602 -0.387668
C8    C     C_2   0.074812 0.402796 0.487086 0.642577
C9    C     C_2   0.934064 0.414926 0.466742 0.131048
C10   C     C_R   0.499801 0.262821 0.499696 0.919775
C11   C     C_R   0.519428 0.501169 0.346387 0.907187
C12   C     C_R   0.391944 0.470144 0.798186 0.057083
C13   C     C_R   0.466499 0.540429 0.738705 -0.207202
C14   C     C_R   0.518151 0.656947 0.758472 -0.213265
C15   C     C_R   0.501157 0.702322 0.838180 0.177872
C16   C     C_R   0.434305 0.628619 0.899158 -0.154342
C17   C     C_R   0.376585 0.514479 0.878630 0.661011
C18   C     C_R   0.537274 0.698474 0.162406 0.197828
C19   C     C_R   0.520759 0.659246 0.242685 -0.207507
C20   C     C_R   0.568982 0.445575 0.199126 0.094022
C21   C     C_R   0.585666 0.484331 0.117460 0.192457
C22   C     C_R   0.567691 0.610943 0.099569 -0.051621
C23   C     C_2   0.443731 0.656251 0.985549 0.557943
C24   C     C_2   0.563193 0.646877 0.014751 0.481699
F1    F     F_    0.129603 0.287804 0.485594 -0.588373
F2    F     F_    0.676915 0.636498 0.963225 -0.618518
F3    F     F_    0.312564 0.442948 0.937768 -0.568422
F4    F     F_    0.329911 0.653184 0.037447 -0.593844
H1    H     H_    0.570361 0.713501 0.711403 0.187669
H2    H     H_    0.412605 0.906173 0.551029 0.175632
H3    H     H_    0.109511 0.583232 0.484869 0.143333
H4    H     H_    0.496967 0.726946 0.291266 0.170996
I1    I     I_    0.629371 0.351416 0.020459 -0.019296
I2    I     I_    0.577553 0.882158 0.862363 -0.101303
I3    I     I_    0.717991 0.128989 0.611744 -0.153172
I4    I     I_    0.373964 0.062685 0.399815 -0.141846
I5    I     I_    0.788037 0.883658 0.425873 -0.151719
I6    I     I_    0.873536 0.286995 0.378907 -0.082876
I7    I     I_    0.895150 0.601312 0.603058 -0.161502
I8    I     I_    0.588755 0.255107 0.229854 -0.138515
I9    I     I_    0.513171 0.890482 0.139775 -0.096870
I10   I     I_    0.310337 0.293644 0.770220 -0.084818
N1    N     N_2   0.147950 0.498670 0.499150 -0.232702
N2    N     N_2   0.852290 0.498640 0.499130 -0.098227
O1    O     O_R   0.386960 0.680940 0.500010 -0.610496
O2    O     O_R   0.613100 0.680900 0.499990 -0.581460
O3    O     O_R   0.373570 0.500040 0.615810 -0.592624
O4    O     O_R   0.599710 0.500000 0.615790 -0.578184
O5    O     O_R   0.386900 0.319100 0.500010 -0.525946
O6    O     O_R   0.613040 0.319060 0.499990 -0.599063
O7    O     O_R   0.400290 0.500000 0.384210 -0.591140
O8    O     O_R   0.626430 0.499960 0.384190 -0.592075
Zn1   Zn    Zn3+2 0.349000 0.500030 0.500020 1.061432
Zn2   Zn    Zn3+2 0.651000 0.499970 0.499980 1.057124

loop_
_geom_bond_atom_site_label_1
_geom_bond_atom_site_label_2
_ccdc_geom_bond_type
C12   C17   A    
C23   C24   D    
C6    C7    D    
C15   I2    S    
C8    N1    D    
C3    I3    S    
O3    Zn1   S    
C3    C6    S    
O2    Zn2   S    
C6    I5    S    
O1    Zn1   S    
C5    C10   S    
C7    H2    S    
C1    C7    S    
C13   C14   A    
C20   C21   A    
O4    Zn2   S    
C8    F1    S    
C1    O1    A    
O6    Zn2   S    
H3    N1    S    
O5    Zn1   S    
C2    C11   S    
C21   C22   A    
C9    I6    S    
O8    Zn2   S    
C16   C23   S    
C20   I8    S    
C22   C24   S    
C1    O2    A    
C11   O7    A    
C23   F4    S    
C19   H4    S    
I7    N2    S    
C2    C20   A    
C15   C16   A    
C17   F3    S    
C5    I4    S    
N2    Zn2   S    
C21   I1    S    
C12   C13   A    
C18   C19   A    
C4    O4    A    
C18   I9    S    
C4    C13   S    
C14   C15   A    
C16   C17   A    
C9    N2    D    
C12   I10   S    
C11   O8    A    
C14   H1    S    
O7    Zn1   S    
C2    C19   A    
C18   C22   A    
C10   O5    A    
N1    Zn1   S    
C24   F2    S    
C8    C9    S    
C3    C5    D    
C4    O3    A    
C10   O6    A    
