data_mof_unit_43701.cif
_audit_creation_date              2012-12-10T20:27:51-0500
_audit_creation_method            fapswitch 2.2
_symmetry_space_group_name_H-M    P1
_symmetry_Int_Tables_number       1
_space_group_crystal_system       triclinic
_cell_length_a                    12.837325
_cell_length_b                    10.668915
_cell_length_c                    9.855316
_cell_angle_alpha                 89.984959
_cell_angle_beta                  97.252902
_cell_angle_gamma                 89.954168
_cell_volume                      1338.98655895

loop_
_atom_site_label
_atom_site_type_symbol
_atom_type_description
_atom_site_fract_x
_atom_site_fract_y
_atom_site_fract_z
_atom_type_partial_charge
C1    C     C_R   0.496369 0.259933 0.499474 0.880514
C2    C     C_R   0.028637 0.528983 0.560438 0.082217
C3    C     C_R   0.972225 0.467247 0.446804 0.132006
C4    C     C_R   0.865383 0.453353 0.440748 -0.286318
C5    C     C_R   0.868551 0.561032 0.658695 -0.327004
C6    C     C_R   0.977616 0.572935 0.669513 0.471488
C7    C     C_R   0.478445 0.063921 0.619861 0.132033
C8    C     C_R   0.478613 0.128689 0.497246 -0.104616
C9    C     C_R   0.458040 0.064936 0.372276 -0.229361
C10   C     C_R   0.458299 0.935306 0.372261 -0.225902
C11   C     C_R   0.479013 0.871442 0.497209 -0.104615
C12   C     C_R   0.298182 0.500167 0.473139 0.880932
C13   C     C_R   0.478676 0.936094 0.619843 0.147510
C14   C     C_3   0.552772 0.928994 0.749519 -0.495645
C15   C     C_3   0.552474 0.071122 0.749560 -0.478585
C16   C     C_R   0.447538 0.408977 0.062737 0.219973
C17   C     C_R   0.559721 0.582575 0.081813 -0.131350
C18   C     C_R   0.559769 0.582548 0.937750 -0.139242
C19   C     C_R   0.447502 0.408994 0.920142 0.216701
C20   C     C_3   0.332557 0.382853 0.895774 -0.498951
C21   C     C_3   0.332688 0.382951 0.049834 -0.537496
C22   C     C_R   0.496587 0.740108 0.499435 0.880103
C23   C     C_R   0.701787 0.499806 0.527009 0.916098
C24   C     C_R   0.813885 0.502376 0.544520 -0.110208
C25   C     C_R   0.186091 0.496587 0.457227 -0.064649
C26   C     C_R   0.023077 0.422113 0.339307 -0.197546
C27   C     C_R   0.130397 0.437221 0.344300 -0.218140
C28   C     C_R   0.135613 0.544114 0.563221 -0.242926
H1    H     H_    0.821737 0.406998 0.353366 0.163695
H2    H     H_    0.630115 0.887754 0.734528 0.198262
H3    H     H_    0.514674 0.112096 0.834878 0.201890
H4    H     H_    0.629657 0.112649 0.734599 0.204616
H5    H     H_    0.606283 0.650844 0.143848 0.151401
H6    H     H_    0.606425 0.650705 0.890960 0.142364
H7    H     H_    0.286650 0.461628 0.844197 0.224368
H8    H     H_    0.315506 0.289292 0.848564 0.200511
H9    H     H_    0.287257 0.462042 0.086597 0.215609
H10   H     H_    0.315623 0.289497 0.091733 0.195727
H11   H     H_    0.825873 0.601683 0.735789 0.160708
H12   H     H_    0.980035 0.375127 0.252146 0.137703
H13   H     H_    0.170080 0.399223 0.262790 0.151539
H14   H     H_    0.180608 0.590884 0.649091 0.192844
H15   H     H_    0.449477 0.114046 0.275250 0.168056
H16   H     H_    0.449925 0.886301 0.275228 0.172391
H17   H     H_    0.515197 0.887809 0.834881 0.205684
N1    N     N_R   0.499290 0.499140 0.142710 -0.107192
N2    N     N_R   0.499290 0.499180 0.857070 -0.105590
O1    O     O_R   0.500010 0.316790 0.614690 -0.616261
O2    O     O_R   0.500000 0.316760 0.385350 -0.624475
O3    O     O_R   0.346360 0.499990 0.595720 -0.625668
O4    O     O_R   0.346350 0.499960 0.366370 -0.623241
O5    O     O_R   0.500000 0.683240 0.614650 -0.619460
O6    O     O_R   0.499990 0.683210 0.385310 -0.625313
O7    O     O_R   0.653650 0.500040 0.633630 -0.625905
O8    O     O_R   0.653640 0.500010 0.404280 -0.620373
Zn1   Zn    Zn3+2 0.500010 0.500020 0.653130 0.940702
Zn2   Zn    Zn3+2 0.499990 0.499980 0.346870 0.939856
O9    O     O_3   0.033949 0.640174 0.775417 -0.661133
C29   C     C_3   0.012294 0.600150 0.906156 0.073792
H18   H     H_    0.088470 0.576381 0.967408 0.160932
H19   H     H_    0.963003 0.513918 0.905132 0.122752
C30   C     C_3   0.961625 0.707711 0.977312 -0.340306
H20   H     H_    0.013961 0.790994 0.982532 0.234720
H21   H     H_    0.885562 0.733914 0.917588 0.210016
C31   C     C_3   0.942577 0.671844 0.121974 -0.950349
H22   H     H_    0.891247 0.587895 0.119877 0.262240
H23   H     H_    0.903353 0.750567 0.169052 0.265931
H24   H     H_    0.018470 0.652271 0.185710 0.279934

loop_
_geom_bond_atom_site_label_1
_geom_bond_atom_site_label_2
_ccdc_geom_bond_type
C12   O3    A    
C23   C24   S    
C1    O1    A    
C23   O8    A    
C30   H20   S    
O4    Zn2   S    
C22   O6    A    
C1    C8    S    
C11   C13   A    
C9    C10   A    
C27   H13   S    
C11   C22   S    
C30   H21   S    
C4    H1    S    
C7    C13   A    
C12   C25   S    
C31   H24   S    
C18   N2    A    
C7    C15   S    
C17   C18   A    
C21   H9    S    
C7    C8    A    
C13   C14   S    
C17   N1    A    
C25   C28   A    
C15   H3    S    
C18   H6    S    
C26   H12   S    
C26   C27   A    
C2    C6    A    
C5    C24   A    
C17   H5    S    
C14   H2    S    
C16   C19   A    
C28   H14   S    
O6    Zn2   S    
C2    C3    A    
C14   H17   S    
O7    Zn1   S    
O8    Zn2   S    
N1    Zn2   S    
C5    C6    A    
C4    C24   A    
C19   N2    A    
C9    H15   S    
C29   H19   S    
C10   C11   A    
C10   H16   S    
C3    C4    A    
C20   H8    S    
O5    Zn1   S    
C29   H18   S    
C12   O4    A    
O2    Zn2   S    
C20   C21   S    
C23   O7    A    
C22   O5    A    
C31   H22   S    
C1    O2    A    
C16   N1    A    
O1    Zn1   S    
C5    H11   S    
C6    O9    S    
C14   C15   S    
N2    Zn1   S    
C29   C30   S    
C2    C28   A    
C30   C31   S    
O9    C29   S    
C20   H7    S    
C16   C21   S    
C3    C26   A    
O3    Zn1   S    
C21   H10   S    
C19   C20   S    
C8    C9    A    
C31   H23   S    
C25   C27   A    
C15   H4    S    
