data_mof_unit_39783.cif
_audit_creation_date              2012-12-10T19:46:38-0500
_audit_creation_method            fapswitch 2.2
_symmetry_space_group_name_H-M    P1
_symmetry_Int_Tables_number       1
_space_group_crystal_system       triclinic
_cell_length_a                    13.056548
_cell_length_b                    14.977892
_cell_length_c                    14.188541
_cell_angle_alpha                 91.952682
_cell_angle_beta                  95.639787
_cell_angle_gamma                 89.644354
_cell_volume                      2759.65882563

loop_
_atom_site_label
_atom_site_type_symbol
_atom_type_description
_atom_site_fract_x
_atom_site_fract_y
_atom_site_fract_z
_atom_type_partial_charge
C1    C     C_R   0.502063 0.327497 0.498809 0.874666
C2    C     C_R   0.501924 0.950849 0.497219 0.044895
C3    C     C_R   0.453322 0.443002 0.091734 -0.363520
C4    C     C_R   0.483941 0.568185 0.903181 -0.334103
C5    C     C_R   0.434533 0.450974 0.187823 0.319884
C6    C     C_R   0.469560 0.570618 0.803522 0.296951
C7    C     C_R   0.573402 0.551266 0.218422 -0.112865
C8    C     C_R   0.542954 0.426662 0.791213 -0.089657
C9    C     C_R   0.587998 0.551784 0.120274 0.096390
C10   C     C_R   0.555600 0.420528 0.891556 0.094022
C11   C     C_R   0.529020 0.493084 0.055732 0.097782
C12   C     C_R   0.500981 0.671979 0.501450 0.866907
C13   C     C_R   0.528302 0.494587 0.949182 0.094279
C14   C     C_R   0.298322 0.499944 0.483359 0.883872
C15   C     C_R   0.701765 0.500536 0.516927 0.883339
C16   C     C_R   0.813386 0.497408 0.525002 -0.076747
C17   C     C_R   0.187106 0.493158 0.477336 -0.065001
C18   C     C_R   0.030709 0.451857 0.383172 -0.235574
C19   C     C_R   0.971074 0.495423 0.628053 -0.239895
C20   C     C_R   0.136376 0.454507 0.394829 -0.268583
C21   C     C_R   0.865176 0.491557 0.615925 -0.242271
C22   C     C_R   0.131081 0.518065 0.555472 0.122441
C23   C     C_R   0.506703 0.231082 0.496404 -0.071875
C24   C     C_R   0.869729 0.497476 0.443992 0.101322
C25   C     C_R   0.026612 0.496366 0.548595 0.117052
C26   C     C_R   0.974923 0.479915 0.457944 0.118571
C27   C     C_R   0.528221 0.094272 0.579350 -0.193199
C28   C     C_R   0.582278 0.902260 0.461852 -0.186239
C29   C     C_R   0.527518 0.186276 0.581037 -0.203074
C30   C     C_R   0.581866 0.810307 0.463375 -0.212140
C31   C     C_3   0.827743 0.536993 0.349771 -0.380871
C32   C     C_3   0.805286 0.636653 0.363802 -0.870529
C33   C     C_3   0.173779 0.582968 0.634974 -0.411805
C34   C     C_R   0.503637 0.767401 0.504091 -0.040582
C35   C     C_3   0.195108 0.673645 0.595098 -0.897755
C36   C     C_3   0.663240 0.617664 0.087212 -0.412014
C37   C     C_3   0.760096 0.571829 0.057473 -0.868251
C38   C     C_3   0.594353 0.333516 0.933635 -0.417279
C39   C     C_3   0.702453 0.342022 0.984526 -0.865628
C40   C     C_3   0.458837 0.041873 0.312885 -0.438709
C41   C     C_3   0.545709 0.046983 0.248681 -0.867494
C42   C     C_3   0.328753 0.957455 0.570030 -0.427307
C43   C     C_3   0.327250 0.955775 0.677389 -0.878093
C44   C     C_3   0.328844 0.422084 0.208367 -0.377148
C45   C     C_R   0.489535 0.183381 0.409834 -0.228927
C46   C     C_3   0.326261 0.329435 0.249135 -0.868866
C47   C     C_3   0.419671 0.653316 0.763210 -0.410346
C48   C     C_3   0.495592 0.731165 0.771785 -0.835629
C49   C     C_R   0.424917 0.815497 0.542156 -0.240637
C50   C     C_R   0.486806 0.090590 0.407243 0.195089
C51   C     C_R   0.421353 0.907975 0.537348 0.198065
C52   C     C_R   0.505678 0.046654 0.493602 0.052680
H1    H     H_    0.741931 0.647560 0.409293 0.254311
H2    H     H_    0.241600 0.555144 0.676779 0.218451
H3    H     H_    0.618745 0.594779 0.267866 0.164427
H4    H     H_    0.568489 0.371823 0.747915 0.146046
H5    H     H_    0.794109 0.528124 0.114136 0.251688
H6    H     H_    0.742185 0.531937 0.990714 0.271731
H7    H     H_    0.817701 0.623132 0.044661 0.247271
H8    H     H_    0.626237 0.656063 0.027565 0.209906
H9    H     H_    0.686652 0.667736 0.144656 0.192596
H10   H     H_    0.755655 0.370795 0.937215 0.255247
H11   H     H_    0.701648 0.384302 0.050097 0.270423
H12   H     H_    0.875067 0.671517 0.397523 0.259518
H13   H     H_    0.731384 0.274859 0.005025 0.245979
H14   H     H_    0.540780 0.309788 0.983387 0.211211
H15   H     H_    0.596318 0.280470 0.877061 0.192620
H16   H     H_    0.824041 0.489056 0.678480 0.177307
H17   H     H_    0.177502 0.428604 0.337904 0.176742
H18   H     H_    0.993239 0.425775 0.316524 0.140135
H19   H     H_    0.008643 0.494888 0.699473 0.139598
H20   H     H_    0.544392 0.059890 0.645168 0.148232
H21   H     H_    0.644412 0.935712 0.432125 0.149943
H22   H     H_    0.543020 0.222112 0.648484 0.149800
H23   H     H_    0.783618 0.666857 0.294410 0.234991
H24   H     H_    0.642607 0.772847 0.433476 0.135278
H25   H     H_    0.475858 0.218089 0.344326 0.165572
H26   H     H_    0.364672 0.781001 0.572679 0.146764
H27   H     H_    0.560410 0.117400 0.232042 0.256623
H28   H     H_    0.617410 0.017535 0.283367 0.256722
H29   H     H_    0.523810 0.009026 0.181197 0.248465
H30   H     H_    0.440490 0.970587 0.321547 0.217045
H31   H     H_    0.388195 0.072452 0.277160 0.202024
H32   H     H_    0.313857 0.886862 0.699687 0.251828
H33   H     H_    0.401058 0.981125 0.713783 0.257221
H34   H     H_    0.883772 0.533896 0.296085 0.195193
H35   H     H_    0.263711 0.998911 0.699315 0.252993
H36   H     H_    0.326283 0.028049 0.548656 0.215437
H37   H     H_    0.257302 0.925806 0.535409 0.204190
H38   H     H_    0.401471 0.403887 0.042291 0.150192
H39   H     H_    0.457298 0.623731 0.945466 0.150627
H40   H     H_    0.380566 0.283668 0.215859 0.248965
H41   H     H_    0.343419 0.333067 0.326816 0.281600
H42   H     H_    0.247629 0.301210 0.234358 0.229090
H43   H     H_    0.293738 0.474496 0.250652 0.216617
H44   H     H_    0.276220 0.419860 0.141650 0.170427
H45   H     H_    0.761181 0.499152 0.315164 0.225069
H46   H     H_    0.519898 0.748093 0.847466 0.238712
H47   H     H_    0.565018 0.714106 0.735477 0.280070
H48   H     H_    0.458501 0.790962 0.739521 0.250383
H49   H     H_    0.387207 0.641170 0.689776 0.256515
H50   H     H_    0.352665 0.671871 0.802569 0.173570
H51   H     H_    0.223666 0.721012 0.653540 0.240236
H52   H     H_    0.123097 0.701504 0.559068 0.266941
H53   H     H_    0.252941 0.667317 0.543174 0.248534
H54   H     H_    0.119023 0.597533 0.688204 0.200578
N1    N     N_R   0.500000 0.499980 0.252470 -0.112151
N2    N     N_R   0.500000 0.500020 0.747530 -0.120750
O1    O     O_R   0.500010 0.369070 0.579480 -0.633693
O2    O     O_R   0.499990 0.630930 0.420520 -0.621928
O3    O     O_R   0.500010 0.369060 0.420520 -0.618339
O4    O     O_R   0.499990 0.630940 0.579480 -0.623612
O5    O     O_R   0.346360 0.499990 0.566340 -0.629571
O6    O     O_R   0.653640 0.500010 0.433660 -0.625196
O7    O     O_R   0.346360 0.499980 0.407390 -0.630719
O8    O     O_R   0.653640 0.500020 0.592610 -0.622793
Zn1   Zn    Zn3+2 0.500000 0.500010 0.606140 0.932284
Zn2   Zn    Zn3+2 0.500000 0.499990 0.393860 0.939218

loop_
_geom_bond_atom_site_label_1
_geom_bond_atom_site_label_2
_ccdc_geom_bond_type
C18   H18   S    
C16   C21   A    
C47   H49   S    
C27   C29   A    
C19   H19   S    
C18   C26   A    
C7    H3    S    
O2    Zn2   S    
C41   H28   S    
C12   O2    A    
O1    Zn1   S    
O8    Zn1   S    
C3    H38   S    
C23   C45   A    
C23   C29   A    
C36   C37   S    
C19   C21   A    
C24   C26   A    
C35   H51   S    
C38   C39   S    
C46   H40   S    
C15   C16   S    
C17   C20   A    
C49   H26   S    
C4    C13   A    
C39   H10   S    
C1    O1    A    
C38   H14   S    
C49   C51   A    
C22   C25   A    
C9    C36   S    
C50   C52   A    
N1    Zn2   S    
C37   H6    S    
C42   C51   S    
C4    H39   S    
C16   C24   A    
C47   H50   S    
C43   H32   S    
C39   H13   S    
C14   C17   S    
C40   H31   S    
C32   H23   S    
C28   H21   S    
C8    N2    A    
C44   C46   S    
C48   H48   S    
C6    C47   S    
C30   C34   A    
C43   H33   S    
C40   H30   S    
C32   H12   S    
C4    C6    A    
C35   H52   S    
C8    H4    S    
C29   H22   S    
C3    C5    A    
C25   C26   A    
C35   H53   S    
C30   H24   S    
C47   C48   S    
C46   H42   S    
O7    Zn2   S    
C41   H29   S    
C15   O6    A    
O6    Zn2   S    
C9    C11   A    
C37   H7    S    
C2    C52   S    
O5    Zn1   S    
C40   C41   S    
C5    C44   S    
C1    C23   S    
O3    Zn2   S    
C21   H16   S    
C7    N1    A    
C20   H17   S    
C42   H36   S    
C42   C43   S    
C12   C34   S    
C36   H9    S    
C32   H1    S    
C12   O4    A    
C48   H46   S    
C27   C52   A    
C5    N1    A    
C33   H2    S    
C7    C9    A    
C48   H47   S    
C34   C49   A    
C44   H44   S    
N2    Zn1   S    
C31   C32   S    
C33   H54   S    
C36   H8    S    
C10   C13   A    
C41   H27   S    
C45   H25   S    
C14   O5    A    
C39   H11   S    
C17   C22   A    
C10   C38   S    
C42   H37   S    
C43   H35   S    
C28   C30   A    
C24   C31   S    
C44   H43   S    
C1    O3    A    
C11   C13   S    
O4    Zn1   S    
C46   H41   S    
C45   C50   A    
C40   C50   S    
C33   C35   S    
C18   C20   A    
C31   H45   S    
C19   C25   A    
C3    C11   A    
C2    C51   A    
C38   H15   S    
C8    C10   A    
C31   H34   S    
C6    N2    A    
C15   O8    A    
C2    C28   A    
C37   H5    S    
C27   H20   S    
C14   O7    A    
C22   C33   S    
