data_mof_unit_61927.cif
_audit_creation_date              2012-12-10T17:52:05-0500
_audit_creation_method            fapswitch 2.2
_symmetry_space_group_name_H-M    P1
_symmetry_Int_Tables_number       1
_space_group_crystal_system       triclinic
_cell_length_a                    27.779032
_cell_length_b                    27.768888
_cell_length_c                    22.777166
_cell_angle_alpha                 90.000851
_cell_angle_beta                  127.458973
_cell_angle_gamma                 89.999078
_cell_volume                      13946.986623

loop_
_atom_site_label
_atom_site_type_symbol
_atom_type_description
_atom_site_fract_x
_atom_site_fract_y
_atom_site_fract_z
_atom_type_partial_charge
C1    C     C_R   0.400191 0.749999 0.300209 0.507077
C2    C     C_3   0.230672 0.283138 0.026390 -0.159343
C3    C     C_1   0.639174 0.249970 0.778968 0.005420
C4    C     C_1   0.139487 0.250457 0.778951 0.003530
C5    C     C_1   0.860557 0.749595 0.220992 0.002057
C6    C     C_1   0.860501 0.250464 0.221050 0.003581
C7    C     C_1   0.139408 0.749624 0.779007 0.001870
C8    C     C_3   0.640053 0.685467 0.996572 0.012478
C9    C     C_3   0.590608 0.647181 0.965064 -0.249438
C10   C     C_3   0.580601 0.632251 0.021389 -0.490954
C11   C     C_3   0.373100 0.280582 0.999627 0.017196
C12   C     C_3   0.411491 0.239854 0.002363 -0.264261
C13   C     C_3   0.221327 0.731620 0.026784 -0.146250
C14   C     C_3   0.417380 0.244687 0.940221 -0.488933
C15   C     C_3   0.359002 0.684192 0.003252 0.012313
C16   C     C_3   0.407870 0.645415 0.034645 -0.249462
C17   C     C_3   0.417612 0.630017 0.978250 -0.490961
C18   C     C_3   0.626572 0.279296 0.000373 0.017174
C19   C     C_3   0.588458 0.238266 0.997500 -0.264155
C20   C     C_3   0.582462 0.242741 0.059592 -0.489054
C21   C     C_3   0.126802 0.224731 0.000383 0.015618
C22   C     C_3   0.089309 0.180124 0.987662 -0.252157
C23   C     C_3   0.083867 0.173391 0.049917 -0.489140
C24   C     C_3   0.768959 0.283530 0.973629 -0.159422
C25   C     C_3   0.856723 0.819489 0.001379 0.015862
C26   C     C_3   0.906460 0.793404 0.003898 -0.262858
C27   C     C_3   0.910730 0.812124 0.944195 -0.488610
C28   C     C_3   0.873507 0.226190 0.999681 0.015660
C29   C     C_3   0.911403 0.181900 0.012261 -0.252234
C30   C     C_3   0.917124 0.175762 0.950150 -0.489137
C31   C     C_3   0.144353 0.821097 0.998805 0.015850
C32   C     C_3   0.094242 0.795973 0.996548 -0.262969
C33   C     C_3   0.090371 0.815558 0.056181 -0.488380
C34   C     C_R   0.243742 0.155478 0.040589 0.048282
C35   C     C_3   0.269741 0.218822 0.973621 -0.149720
C36   C     C_R   0.222235 0.119048 0.987224 -0.081736
C37   C     C_R   0.214481 0.072109 0.002372 -0.124623
C38   C     C_R   0.227523 0.061253 0.070573 -0.114201
C39   C     C_R   0.248215 0.097346 0.123639 -0.114794
C40   C     C_R   0.256144 0.144310 0.108756 -0.097224
C41   C     C_R   0.723383 0.849498 0.963181 0.033278
C42   C     C_R   0.749307 0.881632 0.022932 -0.076427
C43   C     C_R   0.739220 0.931171 0.010485 -0.118846
C44   C     C_R   0.703150 0.949059 0.938305 -0.110109
C45   C     C_R   0.677446 0.917458 0.878544 -0.112598
C46   C     C_3   0.721716 0.768934 0.026578 -0.154580
C47   C     C_R   0.687468 0.867879 0.890771 -0.100613
C48   C     C_R   0.757271 0.155819 0.959363 0.048369
C49   C     C_R   0.779043 0.119298 0.012645 -0.081666
C50   C     C_R   0.787301 0.072535 0.997467 -0.124679
C51   C     C_R   0.774497 0.061953 0.929319 -0.114290
C52   C     C_R   0.753546 0.098146 0.876338 -0.114815
C53   C     C_R   0.745117 0.144935 0.891254 -0.097247
C54   C     C_R   0.277812 0.849444 0.036811 0.032958
C55   C     C_R   0.252138 0.881536 0.977048 -0.076700
C56   C     C_R   0.262793 0.931027 0.989483 -0.118989
C57   C     C_3   0.730580 0.218487 0.026361 -0.149758
C58   C     C_R   0.299195 0.948909 0.061664 -0.110224
C59   C     C_R   0.324673 0.917351 0.121440 -0.112694
C60   C     C_R   0.314081 0.867819 0.109224 -0.100706
C61   C     C_R   0.776985 0.650496 0.036526 0.034945
C62   C     C_R   0.749736 0.618325 0.976653 -0.074693
C63   C     C_R   0.760176 0.568813 0.988974 -0.119295
C64   C     C_R   0.798009 0.550997 0.061139 -0.109329
C65   C     C_R   0.825047 0.582632 0.121036 -0.113444
C66   C     C_R   0.814649 0.632185 0.108938 -0.100638
C67   C     C_R   0.257237 0.347078 0.961629 0.035952
C68   C     C_3   0.278422 0.768474 0.973374 -0.154284
C69   C     C_R   0.292282 0.379482 0.020718 -0.076247
C70   C     C_R   0.300126 0.426978 0.007645 -0.120481
C71   C     C_R   0.273294 0.442482 0.935528 -0.114476
C72   C     C_R   0.238332 0.410581 0.876402 -0.115558
C73   C     C_R   0.230312 0.363054 0.889246 -0.100844
C74   C     C_R   0.221682 0.650671 0.963450 0.034400
C75   C     C_R   0.249245 0.618439 0.023277 -0.074994
C76   C     C_R   0.238207 0.568982 0.010916 -0.119661
C77   C     C_R   0.199404 0.551287 0.938758 -0.109435
C78   C     C_R   0.171970 0.582987 0.878902 -0.113465
C79   C     C_3   0.713417 0.752327 0.926388 0.005385
C80   C     C_R   0.182986 0.632482 0.891037 -0.100630
C81   C     C_R   0.741674 0.346795 0.038407 0.036000
C82   C     C_R   0.706292 0.379148 0.979334 -0.076299
C83   C     C_R   0.697880 0.426465 0.992420 -0.120580
C84   C     C_R   0.724475 0.441835 0.064534 -0.114600
C85   C     C_R   0.759773 0.409984 0.123645 -0.115621
C86   C     C_R   0.768361 0.362636 0.110788 -0.100857
C87   C     C_3   0.286338 0.249284 0.073571 0.001607
C88   C     C_3   0.286597 0.752380 0.073612 0.005370
C89   C     C_R   0.599764 0.250045 0.699795 0.506498
C90   C     C_3   0.713664 0.249328 0.926430 0.001617
C91   C     C_3   0.214068 0.252661 0.926362 0.005069
C92   C     C_3   0.786804 0.747647 0.073500 0.004177
C93   C     C_3   0.785883 0.252669 0.073640 0.005060
C94   C     C_3   0.213075 0.747705 0.926500 0.004259
C95   C     C_1   0.672795 0.751231 0.845495 -0.033839
C96   C     C_1   0.327480 0.249680 0.154478 -0.030572
C97   C     C_1   0.327219 0.751264 0.154505 -0.033963
C98   C     C_1   0.672519 0.249705 0.845522 -0.030516
C99   C     C_1   0.172984 0.251376 0.845491 -0.031418
C100  C     C_R   0.599810 0.749998 0.699791 0.507058
C101  C     C_1   0.827342 0.748764 0.154425 -0.034820
C102  C     C_1   0.826986 0.251385 0.154510 -0.031346
C103  C     C_1   0.172582 0.748814 0.845574 -0.035131
C104  C     C_1   0.318928 0.750061 0.500061 0.010687
C105  C     C_1   0.681071 0.249939 0.499937 0.010512
C106  C     C_1   0.681072 0.750060 0.499941 0.010650
C107  C     C_1   0.318928 0.249940 0.500061 0.010538
C108  C     C_1   0.818929 0.250060 0.500062 0.010611
C109  C     C_1   0.181068 0.749942 0.499933 0.010852
C110  C     C_1   0.181072 0.250059 0.499939 0.010638
C111  C     C_R   0.400236 0.250044 0.300204 0.506513
C112  C     C_1   0.818931 0.749942 0.500066 0.010804
C113  C     C_1   0.275465 0.750030 0.500028 -0.034595
C114  C     C_1   0.724532 0.249970 0.499967 -0.034867
C115  C     C_1   0.724535 0.750030 0.499973 -0.034635
C116  C     C_1   0.275467 0.249970 0.500032 -0.034840
C117  C     C_1   0.775467 0.250028 0.500031 -0.034827
C118  C     C_1   0.224530 0.749973 0.499962 -0.034527
C119  C     C_1   0.224533 0.250027 0.499969 -0.034800
C120  C     C_1   0.775470 0.749973 0.500037 -0.034572
C121  C     C_1   0.500000 0.931112 0.500000 0.006699
C122  C     C_R   0.900229 0.249969 0.300209 0.506485
C123  C     C_1   0.500000 0.068888 0.499999 0.008328
C124  C     C_1   1.000000 0.431112 0.500001 0.007406
C125  C     C_1   1.000000 0.568888 0.499999 0.006399
C126  C     C_1   0.500000 0.974555 0.500000 -0.038746
C127  C     C_1   0.500000 0.025445 0.499999 -0.037916
C128  C     C_1   1.000000 0.474555 0.500000 -0.038743
C129  C     C_1   1.000000 0.525445 0.500000 -0.039273
C130  C     C_R   0.629353 0.750037 0.499985 0.506488
C131  C     C_R   0.370646 0.249962 0.500015 0.506147
C132  C     C_R   0.370647 0.750038 0.500016 0.506491
C133  C     C_R   0.099809 0.750003 0.699810 0.507544
C134  C     C_R   0.629353 0.249962 0.499984 0.506160
C135  C     C_R   0.129354 0.250037 0.499985 0.506355
C136  C     C_R   0.870647 0.749964 0.500017 0.506701
C137  C     C_R   0.870646 0.250038 0.500016 0.506362
C138  C     C_R   0.129352 0.749963 0.499982 0.506710
C139  C     C_R   0.500000 0.879384 0.500000 0.503556
C140  C     C_R   0.500000 0.120615 0.500000 0.503703
C141  C     C_R   1.000000 0.379385 0.500000 0.503314
C142  C     C_R   1.000000 0.620615 0.500000 0.503602
C143  C     C_R   0.500000 0.620659 0.500000 0.507431
C144  C     C_R   0.099770 0.249968 0.699791 0.506515
C145  C     C_R   0.500000 0.379341 0.500000 0.507341
C146  C     C_R   0.000000 0.120659 0.500000 0.507476
C147  C     C_R   1.000000 0.879341 0.500000 0.507793
C148  C     C_1   0.500001 0.568911 0.500001 0.010689
C149  C     C_1   0.499999 0.431089 0.499999 0.010418
C150  C     C_1   0.000001 0.068911 0.500001 0.010592
C151  C     C_1   0.999999 0.931089 0.499999 0.011183
C152  C     C_1   0.500000 0.525455 0.500000 -0.035030
C153  C     C_1   0.499999 0.474545 0.499999 -0.035149
C154  C     C_1   0.000000 0.025455 0.500000 -0.034865
C155  C     C_R   0.900188 0.750001 0.300189 0.507477
C156  C     C_1   1.000000 0.974545 0.499999 -0.034600
C157  C     C_3   0.249460 0.206235 0.022002 -0.015121
C158  C     C_3   0.735346 0.796300 0.978755 -0.020401
C159  C     C_3   0.751005 0.206399 0.977986 -0.015035
C160  C     C_3   0.265183 0.796301 0.021245 -0.020559
C161  C     C_3   0.764827 0.703685 0.021076 -0.019422
C162  C     C_3   0.250942 0.295812 0.977995 -0.021541
C163  C     C_3   0.234537 0.703797 0.978926 -0.019504
C164  C     C_3   0.748548 0.295703 0.022022 -0.021543
C165  C     C_3   0.700427 0.725085 0.974032 0.279891
C166  C     C_3   0.778427 0.731048 0.973263 -0.146588
C167  C     C_3   0.305955 0.262049 0.025353 0.289665
C168  C     C_3   0.299200 0.724690 0.025919 0.279710
C169  C     C_3   0.693905 0.261604 0.974644 0.289635
C170  C     C_3   0.194482 0.239874 0.974608 0.288515
C171  C     C_3   0.799739 0.774868 0.025773 0.288028
C172  C     C_3   0.805614 0.240373 0.025398 0.288545
C173  C     C_3   0.200526 0.775376 0.974271 0.287850
C174  C     C_1   0.639490 0.750417 0.778951 0.002106
C175  C     C_1   0.360824 0.249961 0.221031 0.005382
C176  C     C_1   0.360513 0.750430 0.221050 0.002046
H1    H     H_    0.214077 0.308788 0.047846 0.104283
H2    H     H_    0.682857 0.670414 0.046806 0.133010
H3    H     H_    0.685010 0.367625 0.923055 0.127070
H4    H     H_    0.670594 0.451175 0.946631 0.108260
H5    H     H_    0.717749 0.478416 0.074614 0.112134
H6    H     H_    0.780321 0.421933 0.179509 0.111763
H7    H     H_    0.795219 0.338771 0.157450 0.110609
H8    H     H_    0.547426 0.661526 0.914907 0.177562
H9    H     H_    0.603901 0.614991 0.948903 0.173667
H10   H     H_    0.623051 0.617255 0.071727 0.150036
H11   H     H_    0.544826 0.604173 0.996898 0.145397
H12   H     H_    0.565795 0.663660 0.036992 0.149156
H13   H     H_    0.397119 0.315260 0.010305 0.154015
H14   H     H_    0.329380 0.283197 0.942668 0.120742
H15   H     H_    0.457418 0.240572 0.056530 0.175389
H16   H     H_    0.390233 0.204608 0.996947 0.167367
H17   H     H_    0.801370 0.715992 0.951001 0.104499
H18   H     H_    0.371920 0.243625 0.885523 0.154445
H19   H     H_    0.444733 0.214353 0.943018 0.151234
H20   H     H_    0.440191 0.279088 0.945671 0.148341
H21   H     H_    0.373186 0.716052 0.987521 0.134533
H22   H     H_    0.315964 0.669425 0.953006 0.133103
H23   H     H_    0.451275 0.659461 0.084818 0.177576
H24   H     H_    0.394113 0.613508 0.050752 0.173463
H25   H     H_    0.374921 0.615329 0.927879 0.150036
H26   H     H_    0.452946 0.601576 0.002638 0.145312
H27   H     H_    0.432891 0.661124 0.962721 0.149042
H28   H     H_    0.785275 0.309485 0.952186 0.104236
H29   H     H_    0.602311 0.313831 0.989780 0.154023
H30   H     H_    0.670262 0.281962 0.057353 0.120731
H31   H     H_    0.542550 0.238876 0.943303 0.175425
H32   H     H_    0.609993 0.203173 0.002879 0.167470
H33   H     H_    0.627900 0.241668 0.114318 0.154521
H34   H     H_    0.555178 0.212263 0.056577 0.151186
H35   H     H_    0.559526 0.277036 0.054287 0.148460
H36   H     H_    0.102197 0.257435 0.997081 0.143031
H37   H     H_    0.170289 0.222858 0.057615 0.117267
H38   H     H_    0.043235 0.183620 0.934151 0.170411
H39   H     H_    0.198184 0.717012 0.049039 0.104855
H40   H     H_    0.111344 0.147713 0.984901 0.189107
H41   H     H_    0.129504 0.169104 0.103768 0.152305
H42   H     H_    0.057048 0.140474 0.039475 0.146611
H43   H     H_    0.060735 0.204862 0.052874 0.148816
H44   H     H_    0.868551 0.858309 0.013028 0.153156
H45   H     H_    0.813082 0.817401 0.944270 0.119473
H46   H     H_    0.950802 0.798752 0.059069 0.175954
H47   H     H_    0.896649 0.754192 0.995519 0.165723
H48   H     H_    0.866702 0.807393 0.888544 0.152102
H49   H     H_    0.945924 0.791644 0.946006 0.149378
H50   H     H_    0.698562 0.784037 0.048569 0.102168
H51   H     H_    0.923261 0.850870 0.953408 0.147747
H52   H     H_    0.897839 0.259135 0.003155 0.143262
H53   H     H_    0.830062 0.224251 0.942418 0.117161
H54   H     H_    0.957384 0.185457 0.065894 0.170524
H55   H     H_    0.889559 0.149222 0.014684 0.189016
H56   H     H_    0.871586 0.171498 0.896155 0.152273
H57   H     H_    0.944150 0.143019 0.960414 0.146908
H58   H     H_    0.940171 0.207481 0.947621 0.148765
H59   H     H_    0.133248 0.860018 0.987088 0.153197
H60   H     H_    0.187997 0.818745 0.055876 0.119497
H61   H     H_    0.285864 0.193092 0.951734 0.099605
H62   H     H_    0.049959 0.801490 0.941370 0.176193
H63   H     H_    0.103434 0.756683 0.005209 0.165427
H64   H     H_    0.134321 0.810594 0.111842 0.151916
H65   H     H_    0.054805 0.795839 0.054506 0.149488
H66   H     H_    0.078591 0.854448 0.046783 0.147677
H67   H     H_    0.211116 0.127008 0.933702 0.114376
H68   H     H_    0.198094 0.044188 0.961098 0.107343
H69   H     H_    0.221300 0.024940 0.082148 0.111601
H70   H     H_    0.257688 0.089017 0.176171 0.110020
H71   H     H_    0.270593 0.171792 0.149932 0.100184
H72   H     H_    0.301729 0.783152 0.951345 0.102203
H73   H     H_    0.777365 0.868266 0.079216 0.131763
H74   H     H_    0.759289 0.955681 0.056799 0.108013
H75   H     H_    0.695056 0.987372 0.928657 0.120794
H76   H     H_    0.649659 0.931388 0.822632 0.116943
H77   H     H_    0.667138 0.844466 0.843521 0.115933
H78   H     H_    0.789980 0.127051 0.066127 0.114266
H79   H     H_    0.803888 0.044540 0.038676 0.107260
H80   H     H_    0.781102 0.025777 0.917718 0.111439
H81   H     H_    0.744256 0.090035 0.823849 0.110030
H82   H     H_    0.730474 0.172515 0.850150 0.100146
H83   H     H_    0.714704 0.192469 0.048214 0.099646
H84   H     H_    0.223819 0.868175 0.920762 0.131907
H85   H     H_    0.242899 0.955505 0.943159 0.108083
H86   H     H_    0.307715 0.987185 0.071300 0.120811
H87   H     H_    0.352722 0.931277 0.177354 0.117057
H88   H     H_    0.334252 0.844437 0.156485 0.116183
H89   H     H_    0.720409 0.631638 0.920360 0.133812
H90   H     H_    0.739065 0.544277 0.942556 0.109921
H91   H     H_    0.806472 0.512713 0.070664 0.122584
H92   H     H_    0.854227 0.568759 0.176957 0.116446
H93   H     H_    0.836231 0.655647 0.156302 0.117059
H94   H     H_    0.626319 0.717614 0.012340 0.134473
H95   H     H_    0.313735 0.367862 0.076999 0.127137
H96   H     H_    0.327153 0.451725 0.053446 0.108137
H97   H     H_    0.279585 0.479202 0.925459 0.112402
H98   H     H_    0.217602 0.422635 0.820536 0.111850
H99   H     H_    0.203694 0.339165 0.842571 0.110712
H100  H     H_    0.279315 0.631662 0.079557 0.134860
H101  H     H_    0.259604 0.544391 0.057287 0.109866
H102  H     H_    0.190489 0.513046 0.929210 0.122489
H103  H     H_    0.141994 0.569206 0.822994 0.116737
H104  H     H_    0.161015 0.656004 0.843716 0.117844
O1    O     O_3   0.500000 0.750010 0.500000 -0.436766
O2    O     O_R   0.110060 0.777860 0.664410 -0.535899
O3    O     O_R   0.110060 0.222140 0.664410 -0.538882
O4    O     O_R   0.889940 0.777860 0.335590 -0.536043
O5    O     O_R   0.584730 0.777880 0.456910 -0.532876
O6    O     O_R   0.415270 0.222120 0.543090 -0.532764
O7    O     O_R   0.415270 0.777880 0.543090 -0.532856
O8    O     O_R   0.584730 0.222120 0.456910 -0.532768
O9    O     O_R   0.084730 0.277880 0.456910 -0.532390
O10   O     O_R   0.915270 0.722120 0.543090 -0.533073
O11   O     O_R   0.915270 0.277880 0.543090 -0.532411
O12   O     O_3   0.500000 0.249990 0.500000 -0.437422
O13   O     O_R   0.084730 0.722120 0.456910 -0.533012
O14   O     O_R   0.506320 0.856290 0.456920 -0.536395
O15   O     O_R   0.493680 0.143710 0.543080 -0.535430
O16   O     O_R   0.493680 0.856290 0.543080 -0.536328
O17   O     O_R   0.506320 0.143710 0.456920 -0.535496
O18   O     O_R   0.006320 0.356290 0.456920 -0.535796
O19   O     O_R   0.993680 0.643710 0.543080 -0.536581
O20   O     O_R   0.993680 0.356290 0.543080 -0.535884
O21   O     O_R   0.006320 0.643710 0.456920 -0.536471
O22   O     O_R   0.450590 0.643730 0.456890 -0.533744
O23   O     O_3   1.000000 0.250010 0.500000 -0.437223
O24   O     O_R   0.549410 0.356270 0.543110 -0.533859
O25   O     O_R   0.549410 0.643730 0.543110 -0.533766
O26   O     O_R   0.450590 0.356270 0.456890 -0.533842
O27   O     O_R   0.950590 0.143730 0.456890 -0.533866
O28   O     O_R   0.049410 0.856270 0.543110 -0.533635
O29   O     O_R   0.049410 0.143730 0.543110 -0.533858
O30   O     O_R   0.950590 0.856270 0.456890 -0.533645
O31   O     O_R   0.627830 0.722150 0.543110 -0.535343
O32   O     O_R   0.372170 0.277850 0.456890 -0.535685
O33   O     O_R   0.372170 0.722150 0.456890 -0.535328
O34   O     O_3   1.000000 0.749990 0.500000 -0.436777
O35   O     O_R   0.627830 0.277850 0.543110 -0.535684
O36   O     O_R   0.127830 0.222150 0.543110 -0.535861
O37   O     O_R   0.872170 0.777850 0.456890 -0.535157
O38   O     O_R   0.872170 0.222150 0.456890 -0.535852
O39   O     O_R   0.127830 0.777850 0.543110 -0.535164
O40   O     O_R   0.445670 0.777870 0.335600 -0.535997
O41   O     O_R   0.554330 0.222130 0.664400 -0.530310
O42   O     O_R   0.554330 0.777870 0.664400 -0.535822
O43   O     O_R   0.445670 0.222130 0.335600 -0.530422
O44   O     O_R   0.945670 0.277870 0.335600 -0.531729
O45   O     O_R   0.389940 0.722140 0.335590 -0.536304
O46   O     O_R   0.054330 0.722130 0.664400 -0.536517
O47   O     O_R   0.054330 0.277870 0.664400 -0.531859
O48   O     O_R   0.945670 0.722130 0.335600 -0.536239
O49   O     O_3   0.646619 0.698290 0.941852 -0.561084
O50   O     O_3   0.366503 0.273867 0.056030 -0.558439
O51   O     O_3   0.352675 0.697442 0.058037 -0.561477
O52   O     O_3   0.633232 0.272929 0.943967 -0.558412
O53   O     O_3   0.134223 0.227338 0.944241 -0.554723
O54   O     O_3   0.853900 0.801054 0.057171 -0.560705
O55   O     O_3   0.866009 0.228318 0.055782 -0.554680
O56   O     O_R   0.610060 0.277860 0.664410 -0.539942
O57   O     O_3   0.146676 0.801998 0.942941 -0.560786
O58   O     O_R   0.610060 0.722140 0.664410 -0.536416
O59   O     O_R   0.389940 0.277860 0.335590 -0.539856
O60   O     O_R   0.889940 0.222140 0.335590 -0.538966
Zn1   Zn    Zn3+2 0.570600 0.710200 0.561580 0.951271
Zn2   Zn    Zn3+2 0.490980 0.210180 0.561570 0.953203
Zn3   Zn    Zn3+2 0.490980 0.789820 0.561570 0.949949
Zn4   Zn    Zn3+2 0.509020 0.210180 0.438430 0.953116
Zn5   Zn    Zn3+2 0.009020 0.289820 0.438430 0.952442
Zn6   Zn    Zn3+2 0.990980 0.710180 0.561570 0.949466
Zn7   Zn    Zn3+2 0.990980 0.289820 0.561570 0.952320
Zn8   Zn    Zn3+2 0.009020 0.710180 0.438430 0.949726
Zn9   Zn    Zn3+2 0.429400 0.289800 0.438420 0.949230
Zn10  Zn    Zn3+2 0.429400 0.710200 0.438420 0.951347
Zn11  Zn    Zn3+2 0.570600 0.289800 0.561580 0.949183
Zn12  Zn    Zn3+2 0.070600 0.210200 0.561580 0.949581
Zn13  Zn    Zn3+2 0.929400 0.789800 0.438420 0.952004
Zn14  Zn    Zn3+2 0.929400 0.210200 0.438420 0.949537
Zn15  Zn    Zn3+2 0.070600 0.789800 0.561580 0.952083
Zn16  Zn    Zn3+2 0.509020 0.789820 0.438430 0.949796

loop_
_geom_bond_atom_site_label_1
_geom_bond_atom_site_label_2
_ccdc_geom_bond_type
C145  O26   A    
C1    C176  S    
C85   H6    S    
O24   Zn11  S    
C19   C20   S    
C166  H17   S    
C55   C56   A    
C28   H52   S    
C164  C169  S    
C13   C173  S    
O43   Zn4   S    
C126  C127  S    
C83   H4    S    
C173  O57   S    
O16   Zn3   S    
C29   H54   S    
C7    C133  S    
C45   H76   S    
C15   H21   S    
O1    Zn3   S    
C55   H84   S    
C149  C153  T    
C18   O52   S    
C50   H79   S    
O38   Zn14  S    
C141  O20   A    
C87   C167  S    
C88   C168  S    
C134  O8    A    
C2    H1    S    
C20   H34   S    
O6    Zn2   S    
C81   C86   A    
C145  O24   A    
O27   Zn14  S    
C14   H18   S    
C59   C60   A    
C37   H68   S    
C21   C22   S    
O29   Zn12  S    
O23   Zn5   S    
O3    Zn12  S    
C24   C164  S    
C51   H80   S    
C8    O49   S    
C109  C118  T    
C13   C163  S    
C45   C47   A    
C12   H16   S    
C23   H43   S    
O19   Zn6   S    
C159  C172  S    
C51   C52   A    
O25   Zn1   S    
O45   Zn10  S    
C167  O50   S    
O42   Zn3   S    
C112  C120  T    
C5    C155  S    
C38   H69   S    
C75   C76   A    
C35   C157  S    
C37   C38   A    
O44   Zn5   S    
C17   H25   S    
C135  O9    A    
O20   Zn7   S    
O36   Zn12  S    
C146  O27   A    
C142  O21   A    
C86   H7    S    
C91   C170  S    
C106  C130  S    
C53   H82   S    
C36   H67   S    
O37   Zn13  S    
O34   Zn15  S    
C72   C73   A    
C64   H91   S    
C24   C90   S    
C4    C144  S    
C106  C115  T    
C11   H14   S    
C13   H39   S    
C56   H85   S    
C62   H89   S    
C9    H8    S    
C32   C33   S    
C67   C162  S    
C27   H51   S    
C147  O30   A    
C71   H97   S    
C6    C102  T    
C30   H57   S    
C69   C70   A    
C41   C158  S    
C125  C129  T    
C22   C23   S    
C25   H44   S    
C68   C160  S    
C65   H92   S    
C94   C163  S    
C161  C165  S    
C92   C161  S    
C23   H41   S    
C93   C172  S    
C96   C175  T    
C160  C173  S    
C33   H65   S    
C35   H61   S    
C128  C129  S    
C2    C162  S    
C79   C158  S    
C85   C86   A    
C68   H72   S    
C169  O52   S    
O23   Zn14  S    
C100  O58   A    
C36   C37   A    
C143  O25   A    
C108  C137  S    
C78   C80   A    
O59   Zn9   S    
C90   C159  S    
C17   H27   S    
C8    H94   S    
C31   C32   S    
C42   H73   S    
C142  O19   A    
C26   H46   S    
C10   H12   S    
C91   C162  S    
C9    C10   S    
C125  C142  S    
C16   H24   S    
C88   C160  S    
C146  C150  S    
O46   Zn6   S    
O34   Zn13  S    
O35   Zn11  S    
C112  C136  S    
C48   C53   A    
O7    Zn3   S    
C110  C135  S    
O14   Zn16  S    
C39   C40   A    
C27   H49   S    
C25   C26   S    
C31   H59   S    
C147  O28   A    
C57   H83   S    
C68   C94   S    
C87   C157  S    
C109  C138  S    
C77   H102  S    
C147  C151  S    
O10   Zn6   S    
C29   C30   S    
C39   H70   S    
C44   H75   S    
C123  C127  T    
C83   C84   A    
C144  O3    A    
C41   C47   A    
C2    C87   S    
C79   C165  S    
C68   C168  S    
C100  C174  S    
C19   H32   S    
C81   C164  S    
C21   H37   S    
C124  C141  S    
C40   H71   S    
C52   C53   A    
C54   C55   A    
C108  C117  T    
C148  C152  T    
C110  C119  T    
C139  O14   A    
O26   Zn9   S    
C140  O17   A    
C32   H63   S    
O58   Zn1   S    
O28   Zn15  S    
C21   H36   S    
O18   Zn5   S    
O60   Zn14  S    
C121  C139  S    
C163  C168  S    
C88   C97   S    
C71   C72   A    
C33   H64   S    
C136  O10   A    
C49   H78   S    
C90   C169  S    
C10   H10   S    
C56   C58   A    
C34   C36   A    
C57   C159  S    
C61   C62   A    
C24   C172  S    
C145  C149  S    
C107  C116  T    
C114  C117  S    
C94   C173  S    
C63   C64   A    
C34   C157  S    
O1    Zn10  S    
C152  C153  S    
C49   C50   A    
C4    C99   T    
C91   C99   S    
C134  O35   A    
O11   Zn7   S    
C14   H19   S    
C100  O42   A    
C41   C42   A    
C60   H88   S    
C140  O15   A    
C77   C78   A    
C26   C27   S    
C76   H101  S    
C18   H29   S    
C72   H98   S    
C28   C29   S    
C46   C165  S    
C78   H103  S    
C132  O7    A    
C46   C92   S    
C133  O2    A    
O8    Zn4   S    
C170  O53   S    
C18   C19   S    
O17   Zn4   S    
O39   Zn15  S    
C143  O22   A    
C155  O48   A    
C16   C17   S    
C11   O50   S    
C82   H3    S    
C70   C71   A    
C67   C73   A    
C154  C156  S    
C31   O57   S    
C124  C128  T    
C74   C80   A    
C58   H86   S    
C171  O54   S    
C138  O13   A    
C5    C101  T    
C89   O56   A    
C38   C39   A    
C84   C85   A    
C29   H55   S    
C21   O53   S    
C15   H22   S    
C146  O29   A    
O12   Zn2   S    
C58   C59   A    
C11   H13   S    
C132  O33   A    
C15   O51   S    
C79   C95   S    
C62   C63   A    
C157  C170  S    
O1    Zn16  S    
O22   Zn10  S    
C50   C51   A    
C20   H33   S    
C30   H58   S    
O56   Zn11  S    
C92   C101  S    
C2    C170  S    
C48   C49   A    
C94   C103  S    
O33   Zn10  S    
C111  C175  S    
C42   C43   A    
C44   C45   A    
C59   H87   S    
C12   H15   S    
O13   Zn8   S    
C111  O43   A    
C93   C102  S    
C131  O6    A    
C131  O32   A    
C3    C89   S    
C64   C65   A    
C66   H93   S    
C139  O16   A    
C32   H62   S    
C52   H81   S    
C17   H26   S    
C63   H90   S    
C54   C160  S    
C25   O54   S    
C135  O36   A    
C82   C83   A    
C104  C132  S    
C26   H47   S    
C80   H104  S    
C165  O49   S    
C28   H53   S    
C3    C98   T    
C122  O44   A    
C105  C134  S    
C46   C158  S    
O4    Zn13  S    
C22   H40   S    
C75   H100  S    
O12   Zn11  S    
C168  O51   S    
C43   C44   A    
C81   C82   A    
O41   Zn2   S    
C54   C60   A    
O12   Zn4   S    
C27   H48   S    
C61   C161  S    
C84   H5    S    
C95   C174  T    
C47   H77   S    
C9    H9    S    
C74   C163  S    
O48   Zn8   S    
C158  C171  S    
C92   C171  S    
C15   C16   S    
C1    O40   A    
C162  C167  S    
C20   H35   S    
C30   H56   S    
C155  O4    A    
C137  O11   A    
O21   Zn8   S    
C61   C66   A    
C8    C9    S    
C35   C167  S    
O23   Zn12  S    
O30   Zn13  S    
C25   H45   S    
C138  O39   A    
O2    Zn15  S    
C23   H42   S    
C166  C171  S    
C97   C176  T    
C57   C93   S    
C19   H31   S    
C33   H66   S    
C130  O5    A    
O12   Zn9   S    
C57   C169  S    
C130  O31   A    
C48   C159  S    
C74   C75   A    
C105  C114  T    
C76   C77   A    
C107  C131  S    
C93   C164  S    
C151  C156  T    
C123  C140  S    
C104  C113  T    
C67   C69   A    
O31   Zn1   S    
O9    Zn5   S    
O32   Zn9   S    
C69   H95   S    
O34   Zn6   S    
C70   H96   S    
C136  O37   A    
C87   C96   S    
O1    Zn1   S    
C10   H11   S    
C46   H50   S    
C144  O47   A    
C16   H23   S    
C141  O18   A    
C12   C14   S    
C65   C66   A    
C22   H38   S    
C111  O59   A    
C6    C122  S    
C137  O38   A    
C28   O55   S    
C14   H20   S    
C24   H28   S    
O5    Zn16  S    
O23   Zn7   S    
C161  C166  S    
C11   C12   S    
C133  O46   A    
C31   H60   S    
C116  C119  S    
C18   H30   S    
C89   O41   A    
C121  C126  T    
C43   H74   S    
C73   H99   S    
C13   C88   S    
C79   C166  S    
C122  O60   A    
C143  C148  S    
C113  C118  S    
C8    H2    S    
O40   Zn16  S    
O47   Zn7   S    
C115  C120  S    
C150  C154  T    
C34   C40   A    
C7    C103  T    
O15   Zn2   S    
O34   Zn8   S    
C90   C98   S    
C172  O55   S    
C1    O45   A    
C35   C91   S    
