data_mof_unit_67598.cif
_audit_creation_date              2013-03-05T16:06:41-0500
_audit_creation_method            fapswitch 2.2
_symmetry_space_group_name_H-M    P1
_symmetry_Int_Tables_number       1
_space_group_crystal_system       triclinic
_cell_length_a                    10.990036
_cell_length_b                    9.557057
_cell_length_c                    15.640409
_cell_angle_alpha                 90.834913
_cell_angle_beta                  91.813197
_cell_angle_gamma                 90.121534
_cell_volume                      1641.74737273

loop_
_atom_site_label
_atom_site_type_symbol
_atom_site_description
_atom_site_fract_x
_atom_site_fract_y
_atom_site_fract_z
_atom_type_partial_charge
O1    O     O_R   0.319640 0.618740 0.499990 -0.505410
O2    O     O_R   0.680360 0.381260 0.500010 -0.562437
O3    O     O_R   0.680360 0.618740 0.500010 -0.526193
O4    O     O_R   0.319640 0.381260 0.499990 -0.533189
N1    N     N_R   0.500000 0.852070 0.500000 -0.331601
N2    N     N_R   0.500000 0.147930 0.500000 -0.325573
C1    C     C_R   0.262413 0.500627 0.499060 0.841395
C2    C     C_R   0.738182 0.500164 0.499679 0.847747
O5    O     O_R   0.499990 0.618780 0.371460 -0.571358
O6    O     O_R   0.500010 0.381220 0.628540 -0.508982
O7    O     O_R   0.500010 0.618780 0.628540 -0.543147
O8    O     O_R   0.499990 0.381220 0.371460 -0.537177
C3    C     C_R   0.500997 0.498652 0.329830 0.827369
C4    C     C_R   0.503130 0.500589 0.669656 0.827047
Cu1   Cu    Cu3+1 0.500000 0.640660 0.500000 1.034451
Cu2   Cu    Cu3+1 0.500000 0.359340 0.500000 1.043124
C5    C     C_R   0.419597 0.073018 0.448828 0.502155
C6    C     C_R   0.578547 0.927539 0.551736 0.504399
C7    C     C_R   0.572031 0.075290 0.556475 0.468642
C8    C     C_R   0.415837 0.924824 0.451950 0.416177
C9    C     C_R   0.063049 0.385286 0.468292 0.356711
C10   C     C_R   0.938086 0.629044 0.507395 0.315553
C11   C     C_R   0.938965 0.376919 0.482547 0.304635
C12   C     C_R   0.064676 0.626639 0.517171 0.310934
C13   C     C_R   0.582065 0.591705 0.102975 0.354278
C14   C     C_R   0.515482 0.362725 0.895917 0.364975
C15   C     C_R   0.541849 0.613996 0.904299 0.349847
C16   C     C_R   0.482162 0.368376 0.096295 0.372473
C17   C     C_R   0.535459 0.613159 0.184984 0.304058
C18   C     C_R   0.478386 0.376228 0.809335 0.341335
C19   C     C_R   0.549630 0.614515 0.814727 0.292585
C20   C     C_R   0.491890 0.365957 0.186637 0.319051
C21   C     C_R   0.507019 0.493640 0.233407 -0.418805
C22   C     C_R   0.508450 0.498821 0.765338 -0.407413
C23   C     C_R   0.536172 0.479097 0.049681 -0.213327
C24   C     C_R   0.533196 0.484761 0.949991 -0.222205
C25   C     C_R   0.872733 0.501298 0.498474 -0.404466
C26   C     C_R   0.128855 0.503450 0.497001 -0.400077
F1    F     F_    0.339133 0.140889 0.396998 -0.599070
F2    F     F_    0.662635 0.860462 0.599740 -0.641261
F3    F     F_    0.633427 0.144082 0.620532 -0.649809
F4    F     F_    0.322133 0.855725 0.411855 -0.629662
O9    O     O_3   0.665951 0.688512 0.076943 -0.540665
C27   C     C_3   0.778831 0.622778 0.064458 0.089950
H1    H     H_    0.774265 0.559897 0.004062 0.139850
H2    H     H_    0.805122 0.553363 0.118720 0.117304
C28   C     C_3   0.875625 0.737083 0.058260 -0.289453
H3    H     H_    0.839869 0.820550 0.015957 0.228770
H4    H     H_    0.892422 0.786479 0.122172 0.202479
C29   C     C_3   0.995546 0.682285 0.023721 -0.971193
H5    H     H_    0.988801 0.571666 0.001136 0.252904
H6    H     H_    0.069262 0.690591 0.073663 0.265537
H7    H     H_    0.021936 0.747534 0.969305 0.268747
O10   O     O_3   0.529414 0.227490 0.924341 -0.531033
C30   C     C_3   0.653471 0.198721 0.942433 0.084202
H8    H     H_    0.655869 0.123301 0.995244 0.196870
H9    H     H_    0.708095 0.291965 0.964178 0.107000
C31   C     C_3   0.712099 0.126659 0.866197 -0.299413
H10   H     H_    0.660543 0.029454 0.849051 0.273092
H11   H     H_    0.709120 0.196796 0.810114 0.241909
C32   C     C_3   0.844351 0.089117 0.888497 -0.975077
H12   H     H_    0.901389 0.185121 0.891866 0.264577
H13   H     H_    0.879915 0.016626 0.839490 0.268061
H14   H     H_    0.851742 0.036199 0.951008 0.255555
O11   O     O_3   0.556311 0.743260 0.943431 -0.539849
C33   C     C_3   0.447613 0.785536 0.981244 0.137442
H15   H     H_    0.474773 0.863778 0.030973 0.198479
H16   H     H_    0.398917 0.697839 0.011129 0.094706
C34   C     C_3   0.360714 0.853893 0.917435 -0.368188
H17   H     H_    0.410893 0.931968 0.880045 0.288978
H18   H     H_    0.321218 0.769904 0.875555 0.204862
C35   C     C_3   0.257064 0.925840 0.962650 -0.955886
H19   H     H_    0.206200 0.848955 0.999740 0.261345
H20   H     H_    0.193760 0.975090 0.915456 0.255361
H21   H     H_    0.294199 0.006546 0.007483 0.293616
O12   O     O_3   0.422929 0.257464 0.056550 -0.553810
C36   C     C_3   0.301890 0.295233 0.035026 0.084469
H22   H     H_    0.276204 0.235304 0.976677 0.191017
H23   H     H_    0.289615 0.408195 0.019516 0.092720
C37   C     C_3   0.217561 0.253023 0.105736 -0.357074
H24   H     H_    0.252640 0.157447 0.136794 0.266860
H25   H     H_    0.218897 0.337735 0.154578 0.212142
C38   C     C_3   0.087781 0.225208 0.071519 -0.977689
H26   H     H_    0.052617 0.316203 0.035037 0.256940
H27   H     H_    0.027784 0.205469 0.125827 0.270106
H28   H     H_    0.085235 0.131474 0.028776 0.273631
O13   O     O_3   0.538338 0.748684 0.218102 -0.603614
C39   C     C_3   0.421627 0.793314 0.244418 0.156545
H29   H     H_    0.439481 0.879103 0.290914 0.212720
H30   H     H_    0.366941 0.710351 0.273954 0.184759
C40   C     C_3   0.340172 0.853611 0.173899 -0.474680
H31   H     H_    0.386019 0.943930 0.145042 0.244863
H32   H     H_    0.318487 0.769889 0.126622 0.201300
C41   C     C_3   0.219339 0.902943 0.209332 -0.843098
H33   H     H_    0.173585 0.816583 0.242521 0.270151
H34   H     H_    0.157739 0.937167 0.156086 0.246520
H35   H     H_    0.234584 0.991674 0.255101 0.316420
O14   O     O_3   0.422476 0.262148 0.768033 -0.539656
C42   C     C_3   0.301743 0.296916 0.740091 0.129506
H36   H     H_    0.268587 0.213981 0.694645 0.162525
H37   H     H_    0.296785 0.396017 0.703992 0.102175
C43   C     C_3   0.214892 0.305237 0.814560 -0.403912
H38   H     H_    0.206923 0.200123 0.843014 0.228624
H39   H     H_    0.250904 0.381866 0.862952 0.199788
C44   C     C_3   0.088783 0.354797 0.786028 -0.965550
H40   H     H_    0.095587 0.450879 0.747516 0.251678
H41   H     H_    0.034204 0.377453 0.843093 0.262466
H42   H     H_    0.041416 0.272693 0.747572 0.277735
O15   O     O_3   0.592377 0.734968 0.777820 -0.554312
C45   C     C_3   0.714566 0.716843 0.752776 0.207492
H43   H     H_    0.747419 0.821121 0.733582 0.232642
H44   H     H_    0.719169 0.644956 0.696455 0.165012
C46   C     C_3   0.803967 0.668720 0.823790 -0.446296
H45   H     H_    0.793804 0.736601 0.881008 0.270634
H46   H     H_    0.785100 0.558294 0.840487 0.201188
C47   C     C_3   0.934443 0.678576 0.794030 -0.965955
H47   H     H_    0.942557 0.624478 0.731154 0.254577
H48   H     H_    0.997361 0.628294 0.840802 0.275782
H49   H     H_    0.961721 0.789791 0.788219 0.256479
O16   O     O_3   0.469912 0.240586 0.226818 -0.552373
C48   C     C_3   0.582145 0.179674 0.254213 0.173674
H50   H     H_    0.561751 0.106046 0.306025 0.119725
H51   H     H_    0.647090 0.257182 0.284183 0.141131
C49   C     C_3   0.642693 0.095239 0.182839 -0.371208
H52   H     H_    0.669355 0.990924 0.207461 0.230627
H53   H     H_    0.577678 0.076715 0.128192 0.261088
C50   C     C_3   0.757420 0.167996 0.152737 -0.952243
H54   H     H_    0.734309 0.269879 0.123319 0.247054
H55   H     H_    0.803313 0.100298 0.105441 0.257644
H56   H     H_    0.822395 0.187074 0.207245 0.256257
O17   O     O_3   0.110874 0.288955 0.411563 -0.520736
C51   C     C_3   0.131552 0.353462 0.331511 0.203737
H57   H     H_    0.153161 0.268522 0.285497 0.178722
H58   H     H_    0.213643 0.421462 0.336906 0.132516
C52   C     C_3   0.021192 0.436526 0.293625 -0.434198
H59   H     H_    0.945493 0.363603 0.275976 0.226095
H60   H     H_    0.986706 0.512968 0.340641 0.205236
C53   C     C_3   0.053640 0.523988 0.216912 -0.968230
H61   H     H_    0.993588 0.617078 0.213959 0.267627
H62   H     H_    0.037747 0.463552 0.156986 0.286278
H63   H     H_    0.149395 0.561373 0.221567 0.250466
O18   O     O_3   0.880880 0.757913 0.509228 -0.547484
C54   C     C_3   0.850412 0.799910 0.424470 0.135646
H64   H     H_    0.777889 0.880146 0.429207 0.157862
H65   H     H_    0.810788 0.713409 0.383769 0.117639
C55   C     C_3   0.959518 0.863050 0.379573 -0.315894
H66   H     H_    0.014881 0.928607 0.424609 0.287913
H67   H     H_    0.018424 0.777745 0.355582 0.218995
C56   C     C_3   0.917240 0.953438 0.304976 -0.922614
H68   H     H_    0.863546 0.889485 0.257575 0.251325
H69   H     H_    0.996826 0.998957 0.273485 0.277202
H70   H     H_    0.860129 0.040717 0.328529 0.278431
O19   O     O_3   0.882884 0.250269 0.464554 -0.593550
C57   C     C_3   0.865663 0.180017 0.542095 0.159405
H71   H     H_    0.806693 0.088640 0.526472 0.200442
H72   H     H_    0.820028 0.248460 0.589376 0.197667
C58   C     C_3   0.982806 0.124909 0.584694 -0.385445
H73   H     H_    0.032370 0.058018 0.539569 0.262552
H74   H     H_    0.043336 0.213145 0.604803 0.191748
C59   C     C_3   0.951113 0.041454 0.663407 -0.904046
H75   H     H_    0.887936 0.102230 0.703422 0.275992
H76   H     H_    0.034372 0.019795 0.702672 0.241840
H77   H     H_    0.906172 0.941464 0.643882 0.316344
O20   O     O_3   0.124796 0.751629 0.532281 -0.531728
C60   C     C_3   0.156334 0.763162 0.620040 0.122033
H78   H     H_    0.199224 0.665551 0.645174 0.100212
H79   H     H_    0.074279 0.785988 0.656909 0.143624
C61   C     C_3   0.247455 0.882547 0.631515 -0.302663
H80   H     H_    0.325901 0.857952 0.592846 0.257671
H81   H     H_    0.207966 0.982882 0.609768 0.215758
C62   C     C_3   0.294809 0.897055 0.722565 -0.948784
H82   H     H_    0.218249 0.913895 0.766043 0.252375
H83   H     H_    0.358847 0.986780 0.728433 0.303321
H84   H     H_    0.345626 0.800533 0.738997 0.284885

loop_
_geom_bond_atom_site_label_1
_geom_bond_atom_site_label_2
_geom_bond_distance
_ccdc_geom_bond_type
C52   C53   1.523311 S    
C33   H16   1.110266 S    
C62   H82   1.108985 S    
C60   H78   1.117047 S    
C54   C55   1.535445 S    
C23   C24   1.560231 S    
C30   H8    1.103869 S    
C13   O9    1.379412 S    
C52   H59   1.109697 S    
C28   H4    1.109216 S    
N1    C8    1.370310 A    
C12   O20   1.377630 S    
C36   H22   1.099249 S    
C27   H1    1.111895 S    
C17   O13   1.387844 S    
N2    C7    1.365563 A    
C62   H83   1.109098 S    
C58   H73   1.102799 S    
O20   C60   1.407686 S    
C55   H66   1.103309 S    
C34   H17   1.110972 S    
C56   H69   1.108489 S    
O7    C4    1.307886 A    
C33   C34   1.515311 S    
C31   H11   1.111401 S    
Cu1   Cu2   2.688591 S    
O14   C42   1.425263 S    
C17   C21   1.419405 A    
C5    C8    1.418407 A    
C47   H47   1.110531 S    
C43   C44   1.521223 S    
C32   H13   1.106744 S    
C6    C7    1.415017 A    
C5    F1    1.353601 S    
C34   H18   1.107692 S    
O5    C3    1.311811 A    
C45   H43   1.108025 S    
C9    O17   1.385214 S    
C48   C49   1.537244 S    
C6    F2    1.342129 S    
O7    Cu1   2.024289 S    
C61   C62   1.505006 S    
C9    C26   1.400421 A    
O8    Cu2   2.024289 S    
C16   C23   1.432051 A    
C51   H57   1.108119 S    
C42   C43   1.530339 S    
C28   H3    1.108497 S    
C12   C26   1.410621 A    
O1    Cu1   1.992755 S    
O2    Cu2   1.992754 S    
C57   H72   1.112212 S    
C27   C28   1.529398 S    
C46   C47   1.524683 S    
C31   C32   1.528617 S    
C61   H81   1.107004 S    
C33   H15   1.104807 S    
C60   H79   1.106074 S    
C52   H60   1.105099 S    
C32   H12   1.109777 S    
C20   O16   1.385359 S    
C37   C38   1.528830 S    
C14   O10   1.380136 S    
C44   H42   1.101429 S    
C27   H2    1.116048 S    
C28   C29   1.530609 S    
C55   H67   1.110516 S    
C36   H23   1.117469 S    
C9    C11   1.391066 A    
C13   C17   1.408536 A    
C62   H84   1.108563 S    
C29   H7    1.108002 S    
C48   H51   1.115499 S    
C18   C22   1.411266 A    
C15   C19   1.406336 A    
C59   H77   1.109201 S    
C16   C20   1.414180 A    
O12   C36   1.410794 S    
C57   C58   1.528898 S    
C35   H20   1.108794 S    
O3    C2    1.300445 A    
O6    C4    1.301242 A    
C56   H70   1.110551 S    
C40   H31   1.107507 S    
C37   H24   1.105214 S    
N1    C6    1.362460 A    
C41   H35   1.110742 S    
O4    C1    1.303890 A    
C31   H10   1.112153 S    
C11   C25   1.418235 A    
C10   C25   1.418050 A    
C59   H76   1.107339 S    
O4    Cu2   1.993640 S    
C32   H14   1.108069 S    
C41   H34   1.109968 S    
O9    C27   1.409550 S    
C50   H55   1.109608 S    
C3    C21   1.511697 S    
C15   O11   1.377321 S    
C40   H32   1.102080 S    
C55   C56   1.523204 S    
C44   H41   1.109987 S    
C29   H6    1.109337 S    
C38   H26   1.110467 S    
C39   C40   1.519257 S    
C10   O18   1.384316 S    
C29   H5    1.111336 S    
C19   O15   1.383238 S    
C19   C22   1.405324 A    
C41   H33   1.109386 S    
C39   H29   1.101129 S    
C43   H39   1.108818 S    
C45   C46   1.535654 S    
C57   H71   1.106223 S    
C48   H50   1.108842 S    
C53   H62   1.102740 S    
C13   C23   1.432597 A    
C49   C50   1.529155 S    
C37   H25   1.104731 S    
C61   H80   1.092698 S    
C42   H37   1.110241 S    
C39   H30   1.108832 S    
C14   C18   1.409618 A    
C58   C59   1.525655 S    
C11   O19   1.378423 S    
C10   C12   1.395064 A    
C2    C25   1.479453 S    
O17   C51   1.428013 S    
C16   O12   1.373332 S    
C34   C35   1.520068 S    
O3    Cu1   1.993639 S    
O16   C48   1.421528 S    
C49   H53   1.108521 S    
C46   H45   1.106319 S    
C36   C37   1.523498 S    
C14   C24   1.439906 A    
C54   H65   1.115295 S    
N2    C5    1.367411 A    
O10   C30   1.412078 S    
C38   H27   1.109685 S    
O1    C1    1.290705 A    
O2    C2    1.300963 A    
C35   H19   1.104592 S    
C53   H63   1.110491 S    
C4    C22   1.496133 S    
C8    F4    1.354278 S    
C47   H49   1.109529 S    
C15   C24   1.440396 A    
C60   C61   1.521412 S    
C44   H40   1.109189 S    
C18   O14   1.391052 S    
C42   H36   1.110046 S    
C59   H75   1.108951 S    
C30   H9    1.116307 S    
C54   H64   1.110599 S    
O5    Cu1   2.018227 S    
C50   H56   1.107400 S    
O6    Cu2   2.018227 S    
C56   H68   1.108606 S    
C20   C21   1.420303 A    
C40   C41   1.527912 S    
C35   H21   1.103616 S    
C51   C52   1.557133 S    
C51   H58   1.111082 S    
C1    C26   1.467451 S    
C47   H48   1.106265 S    
C43   H38   1.109069 S    
C45   H44   1.111686 S    
N1    Cu1   2.020457 S    
C53   H61   1.109491 S    
N2    Cu2   2.020458 S    
C7    F3    1.351821 S    
C38   H28   1.109706 S    
O8    C3    1.305889 A    
O13   C39   1.423778 S    
C58   H74   1.108700 S    
O11   C33   1.407076 S    
C30   C31   1.528972 S    
O18   C54   1.420759 S    
O19   C57   1.412488 S    
O15   C45   1.420921 S    
C50   H54   1.109506 S    
C49   H52   1.110563 S    
C46   H46   1.111520 S    
