data_mof_unit_18215.cif
_audit_creation_date              2013-03-05T16:07:04-0500
_audit_creation_method            fapswitch 2.2
_symmetry_space_group_name_H-M    P1
_symmetry_Int_Tables_number       1
_space_group_crystal_system       triclinic
_cell_length_a                    10.809174
_cell_length_b                    9.532558
_cell_length_c                    9.078517
_cell_angle_alpha                 89.948499
_cell_angle_beta                  90.29277
_cell_angle_gamma                 89.8982
_cell_volume                      935.427947813

loop_
_atom_site_label
_atom_site_type_symbol
_atom_site_description
_atom_site_fract_x
_atom_site_fract_y
_atom_site_fract_z
_atom_type_partial_charge
O1    O     O_R   0.319640 0.618740 0.499990 -0.561572
O2    O     O_R   0.680360 0.381260 0.500010 -0.561569
O3    O     O_R   0.680360 0.618740 0.500010 -0.567163
O4    O     O_R   0.319640 0.381260 0.499990 -0.567165
C1    C     C_R   0.262408 0.500182 0.499234 0.937569
C2    C     C_R   0.737592 0.499818 0.500766 0.937572
O5    O     O_R   0.500000 0.618760 0.288390 -0.594821
O6    O     O_R   0.500000 0.381240 0.711610 -0.594822
O7    O     O_R   0.500000 0.618760 0.711610 -0.560206
O8    O     O_R   0.500000 0.381240 0.288390 -0.560208
C3    C     C_R   0.500113 0.500043 0.220620 0.897157
C4    C     C_R   0.499887 0.499957 0.779380 0.897164
Cu1   Cu    Cu3+1 0.500000 0.640660 0.500000 1.054755
Cu2   Cu    Cu3+1 0.500000 0.359340 0.500000 1.054755
C5    C     C_1   0.500044 0.500058 0.065532 -0.057365
C6    C     C_1   0.499955 0.499942 0.934468 -0.057362
C7    C     C_R   0.063901 0.413389 0.399431 0.236192
C8    C     C_R   0.936099 0.586610 0.600573 0.236194
C9    C     C_R   0.934794 0.412243 0.401908 0.237014
C10   C     C_R   0.065207 0.587756 0.598095 0.237012
C11   C     C_R   0.871528 0.499130 0.501768 -0.341515
C12   C     C_R   0.128472 0.500870 0.498234 -0.341514
C13   C     C_R   0.423033 0.074594 0.408327 0.039846
C14   C     C_R   0.576967 0.925405 0.591673 0.039846
C15   C     C_R   0.577046 0.074129 0.591599 0.041888
C16   C     C_R   0.422954 0.925871 0.408401 0.041884
N1    N     N_R   0.500000 0.852070 0.500000 -0.187583
N2    N     N_R   0.500000 0.147930 0.500000 -0.187582
N3    N     N_R   0.128800 0.332963 0.290349 0.154577
O9    O     O_R   0.109017 0.199005 0.277015 -0.280372
O10   O     O_R   0.205937 0.394255 0.201637 -0.355028
N4    N     N_R   0.871200 0.667034 0.709656 0.154585
O11   O     O_R   0.890979 0.800990 0.722989 -0.280371
O12   O     O_R   0.794055 0.605745 0.798358 -0.355037
N5    N     N_R   0.867847 0.331110 0.295223 0.173896
O13   O     O_R   0.809729 0.393775 0.187895 -0.330290
O14   O     O_R   0.851865 0.197334 0.315995 -0.269509
N6    N     N_R   0.132154 0.668887 0.704781 0.173892
O15   O     O_R   0.190278 0.606220 0.812103 -0.330296
O16   O     O_R   0.148123 0.802664 0.684023 -0.269502
H1    H     H_    0.361518 0.130734 0.334675 0.179692
H2    H     H_    0.638482 0.869266 0.665326 0.179694
H3    H     H_    0.638829 0.129885 0.665019 0.152835
H4    H     H_    0.361171 0.870115 0.334981 0.152835

loop_
_geom_bond_atom_site_label_1
_geom_bond_atom_site_label_2
_geom_bond_distance
_ccdc_geom_bond_type
N6    O16   1.300860 A    
N3    O9    1.300770 A    
C8    C11   1.408607 A    
C14   H2    1.081281 S    
C7    C12   1.408603 A    
O3    Cu1   1.960339 S    
C14   N1    1.367308 A    
O6    C4    1.288597 A    
O3    C2    1.290476 A    
Cu2   N2    2.015279 S    
N4    O11   1.300746 A    
C15   H3    1.081723 S    
C16   H4    1.081723 S    
N3    O10   1.301129 A    
C9    N5    1.433892 S    
Cu1   Cu2   2.681699 S    
C15   N2    1.367405 A    
O5    C3    1.288597 A    
C16   N1    1.367407 A    
O2    C2    1.289370 A    
C8    N4    1.437752 S    
O1    C1    1.289370 A    
N5    O14   1.300877 A    
C10   C12   1.407562 A    
C8    C10   1.395906 A    
O4    Cu2   1.960339 S    
N6    O15   1.300873 A    
O2    Cu2   1.961077 S    
O7    C4    1.288346 A    
O1    Cu1   1.961077 S    
O8    C3    1.288345 A    
C5    C6    1.189866 T    
C7    N3    1.437751 S    
O5    Cu1   1.932602 S    
C10   N6    1.433891 S    
C14   C15   1.417716 A    
O8    Cu2   1.932229 S    
C13   C16   1.417716 A    
O7    Cu1   1.932227 S    
Cu1   N1    2.015278 S    
O6    Cu2   1.932600 S    
C7    C9    1.395902 A    
C13   N2    1.367310 A    
C2    C11   1.447713 S    
C3    C5    1.407968 S    
C1    C12   1.447713 S    
C4    C6    1.407968 S    
N4    O12   1.301117 A    
O4    C1    1.290476 A    
C9    C11   1.407561 A    
N5    O13   1.300873 A    
C13   H1    1.081280 S    
