data_mof_unit_30824.cif
_audit_creation_date              2012-12-10T20:52:13-0500
_audit_creation_method            fapswitch 2.2
_symmetry_space_group_name_H-M    P1
_symmetry_Int_Tables_number       1
_space_group_crystal_system       triclinic
_cell_length_a                    10.95039
_cell_length_b                    8.969769
_cell_length_c                    8.309297
_cell_angle_alpha                 90.766718
_cell_angle_beta                  92.408708
_cell_angle_gamma                 88.38763
_cell_volume                      815.054881897

loop_
_atom_site_label
_atom_site_type_symbol
_atom_type_description
_atom_site_fract_x
_atom_site_fract_y
_atom_site_fract_z
_atom_type_partial_charge
C1    C     C_R   0.500872 0.218727 0.499281 0.911825
C2    C     C_R   0.499739 0.781258 0.500669 0.920154
C3    C     C_R   0.872244 0.525443 0.508711 -0.094669
C4    C     C_R   0.126189 0.510986 0.492742 -0.088951
C5    C     C_R   0.946225 0.480389 0.641349 0.022924
C6    C     C_R   0.053379 0.568343 0.363518 0.020968
C7    C     C_1   0.500639 0.065244 0.498820 -0.223092
C8    C     C_1   0.500191 0.934696 0.500848 -0.212435
C9    C     C_R   0.259605 0.502822 0.496696 0.842453
C10   C     C_R   0.739801 0.508863 0.503140 0.862073
C11   C     C_R   0.209609 0.760213 0.040780 -0.261261
C12   C     C_R   0.833315 0.277327 0.987201 -0.273110
C13   C     C_R   0.135295 0.740355 0.169264 -0.158952
C14   C     C_R   0.892474 0.305343 0.848322 -0.178591
C15   C     C_R   0.104262 0.596329 0.209478 0.095919
C16   C     C_R   0.897990 0.451515 0.796108 0.101367
C17   C     C_R   0.142494 0.472547 0.119362 -0.229793
C18   C     C_R   0.848201 0.570409 0.884312 -0.232295
C19   C     C_R   0.222228 0.489950 0.993919 0.531533
C20   C     C_R   0.771380 0.540393 0.009222 0.523238
C21   C     C_R   0.252307 0.636903 0.953812 -0.146122
C22   C     C_R   0.766564 0.391104 0.060354 -0.139462
C23   C     C_R   0.927808 0.579032 0.374424 -0.249775
C24   C     C_R   0.070248 0.468025 0.629389 -0.266877
H1    H     H_    0.314161 0.658838 0.860504 0.182609
H2    H     H_    0.707649 0.356307 0.150896 0.183848
H3    H     H_    0.108202 0.835307 0.242787 0.133060
H4    H     H_    0.931959 0.213709 0.780519 0.142242
H5    H     H_    0.121406 0.362941 0.161704 0.115600
H6    H     H_    0.861086 0.683843 0.846539 0.121325
H7    H     H_    0.874554 0.627311 0.277163 0.212243
H8    H     H_    0.122791 0.423235 0.727584 0.200921
N1    N     N_1   0.500020 0.500030 0.073640 -0.026773
N2    N     N_1   0.499980 0.499970 0.926360 -0.041217
O1    O     O_R   0.499990 0.285340 0.636850 -0.602325
O2    O     O_R   0.500010 0.714660 0.363150 -0.592648
O3    O     O_R   0.500010 0.285350 0.363100 -0.622696
O4    O     O_R   0.499990 0.714650 0.636900 -0.666363
O5    O     O_R   0.316750 0.500000 0.636870 -0.608481
O6    O     O_R   0.683250 0.500000 0.363130 -0.605259
O7    O     O_R   0.316770 0.500020 0.363120 -0.611148
O8    O     O_R   0.683230 0.499980 0.636880 -0.628455
Zn1   Zn    Zn3+2 0.499990 0.499990 0.682780 0.963244
Zn2   Zn    Zn3+2 0.500010 0.500010 0.317220 0.990981
H9    H     H_    0.240136 0.870386 0.014330 0.160683
H10   H     H_    0.833998 0.166290 0.033940 0.163889
O9    O     O_3   0.283118 0.370015 0.919265 -0.625012
C25   C     C_3   0.224291 0.231325 0.926020 0.027609
H11   H     H_    0.123526 0.245491 0.921778 0.138537
H12   H     H_    0.253346 0.173686 0.039516 0.136535
C26   C     C_3   0.260431 0.133464 0.781385 -0.284774
H13   H     H_    0.281163 0.205107 0.678915 0.253555
H14   H     H_    0.344199 0.066355 0.814352 0.208643
C27   C     C_3   0.159197 0.029648 0.721808 -1.019242
H15   H     H_    0.111465 0.981736 0.823333 0.268412
H16   H     H_    0.198893 0.937329 0.648503 0.271278
H17   H     H_    0.091083 0.092292 0.644362 0.262700
O10   O     O_3   0.711096 0.653399 0.094105 -0.658273
C28   C     C_3   0.650015 0.762048 0.994897 0.115652
H18   H     H_    0.550797 0.756977 0.013930 0.177013
H19   H     H_    0.661693 0.747087 0.863434 0.142102
C29   C     C_3   0.687264 0.917345 0.048295 -0.410149
H20   H     H_    0.690188 0.925685 0.182090 0.248282
H21   H     H_    0.779933 0.935542 0.004984 0.197541
C30   C     C_3   0.595364 0.034542 0.980386 -0.881498
H22   H     H_    0.599053 0.038459 0.847155 0.271520
H23   H     H_    0.615159 0.145712 0.031881 0.267726
H24   H     H_    0.501249 0.008852 0.014087 0.249494

loop_
_geom_bond_atom_site_label_1
_geom_bond_atom_site_label_2
_ccdc_geom_bond_type
C29   H21   S    
C24   H8    S    
C27   H16   S    
C29   H20   S    
C18   H6    S    
C1    O3    A    
C10   O8    A    
C17   H5    S    
C2    O4    A    
C3    C23   A    
O9    C25   S    
O6    Zn2   S    
C30   H24   S    
C14   H4    S    
C16   C18   A    
C26   C27   S    
O3    Zn2   S    
C25   H12   S    
N1    N2    T    
C4    C9    S    
C7    C8    T    
C3    C10   S    
C11   C13   A    
N1    Zn2   S    
C5    C24   A    
C25   C26   S    
C6    C23   A    
C10   O6    A    
C25   H11   S    
C19   C21   A    
C12   C14   A    
C19   O9    S    
C13   C15   A    
C4    C24   A    
O7    Zn2   S    
C14   C16   A    
O2    Zn2   S    
C4    C6    A    
C11   H9    S    
O8    Zn1   S    
N2    Zn1   S    
C26   H14   S    
C20   O10   S    
C26   H13   S    
C12   C22   A    
C28   H18   S    
O1    Zn1   S    
C1    O1    A    
C18   C20   A    
C12   H10   S    
C30   H22   S    
C22   H2    S    
C28   H19   S    
C2    O2    A    
C15   C17   A    
C21   H1    S    
C27   H15   S    
C13   H3    S    
C5    C16   S    
O5    Zn1   S    
C28   C29   S    
C29   C30   S    
C17   C19   A    
C6    C15   S    
C1    C7    S    
O10   C28   S    
C9    O7    A    
C11   C21   A    
C9    O5    A    
C2    C8    S    
O4    Zn1   S    
C30   H23   S    
C20   C22   A    
C3    C5    A    
C27   H17   S    
C23   H7    S    
