data_mof_unit_59545.cif
_audit_creation_date              2012-10-26T21:01:01-0400
_audit_creation_method            fapswitch 2.2
_symmetry_space_group_name_H-M    P1
_symmetry_Int_Tables_number       1
_space_group_crystal_system       triclinic
_cell_length_a                    10.919318
_cell_length_b                    10.837652
_cell_length_c                    9.569376
_cell_angle_alpha                 89.043126
_cell_angle_beta                  88.125372
_cell_angle_gamma                 92.108984
_cell_volume                      1130.8832667

loop_
_atom_site_label
_atom_site_type_symbol
_atom_type_description
_atom_site_fract_x
_atom_site_fract_y
_atom_site_fract_z
_atom_type_partial_charge
C1    C     C_R   0.507723 0.262960 0.500755 0.535258
C2    C     C_R   0.425007 0.420888 0.078674 -0.010289
C3    C     C_R   0.424934 0.420938 0.929832 -0.029093
C4    C     C_R   0.265193 0.498798 0.502493 0.559004
C5    C     C_R   0.564782 0.589301 0.922571 0.153990
C6    C     C_3   0.699694 0.617140 0.912513 -0.286395
C7    C     C_3   0.698018 0.620608 0.071265 -0.281287
C8    C     C_R   0.498916 0.737696 0.498590 0.550032
C9    C     C_R   0.734429 0.499833 0.497806 0.537372
C10   C     C_2   0.941907 0.557864 0.409992 -0.041958
C11   C     C_2   0.865205 0.485744 0.491227 -0.126009
C12   C     C_R   0.520871 0.129678 0.501903 -0.013127
C13   C     C_2   0.069530 0.522447 0.396196 -0.168447
C14   C     C_2   0.133262 0.506349 0.510904 -0.134379
C15   C     C_R   0.477111 0.060793 0.618169 0.004553
C16   C     C_R   0.914221 0.684323 0.359208 0.058155
C17   C     C_R   0.851550 0.765838 0.447228 -0.079769
C18   C     C_R   0.853257 0.892236 0.415416 -0.121322
C19   C     C_R   0.919537 0.938879 0.297657 -0.108864
C20   C     C_R   0.979956 0.859074 0.208668 -0.124463
C21   C     C_R   0.974639 0.732407 0.236759 -0.100393
C22   C     C_R   0.663166 0.059149 0.781594 0.036596
C23   C     C_R   0.560982 0.067545 0.381009 -0.044858
C24   C     C_R   0.717668 0.982211 0.880513 -0.095570
C25   C     C_R   0.844531 0.982875 0.892151 -0.110337
C26   C     C_R   0.919489 0.065647 0.812416 -0.102143
C27   C     C_R   0.867000 0.148890 0.721651 -0.131447
C28   C     C_R   0.739882 0.146830 0.707259 -0.100487
C29   C     C_R   0.634749 0.135138 0.269823 0.057012
C30   C     C_R   0.587052 0.155873 0.137681 -0.080136
C31   C     C_R   0.651088 0.234455 0.040842 -0.083645
C32   C     C_R   0.764793 0.287943 0.072418 -0.085510
C33   C     C_R   0.812809 0.267581 0.203617 -0.107443
C34   C     C_R   0.546117 0.938510 0.376764 -0.160848
C35   C     C_R   0.747158 0.193283 0.302765 -0.080533
C36   C     C_R   0.495926 0.871435 0.494020 -0.003227
C37   C     C_R   0.453337 0.935496 0.610311 0.000874
C38   C     C_3   0.479179 0.914353 0.760301 -0.255477
C39   C     C_3   0.523701 0.049477 0.765125 -0.128996
C40   C     C_R   0.563901 0.590060 0.069561 0.153451
Cu1   Cu    Cu3+1 0.499990 0.499980 0.640670 0.918430
Cu2   Cu    Cu3+1 0.500010 0.500020 0.359330 0.949007
H1    H     H_    0.367019 0.354298 0.137669 0.112835
H2    H     H_    0.582481 0.890420 0.286948 0.132464
H3    H     H_    0.393379 0.894511 0.823787 0.117950
H4    H     H_    0.549531 0.844638 0.774869 0.154517
H5    H     H_    0.470544 0.103191 0.842383 0.106463
H6    H     H_    0.808186 0.733837 0.545161 0.111134
H7    H     H_    0.807655 0.954489 0.485499 0.126481
H8    H     H_    0.927161 0.036949 0.276466 0.117317
H9    H     H_    0.034224 0.895712 0.119808 0.098091
H10   H     H_    0.023691 0.673033 0.166419 0.094076
H11   H     H_    0.662148 0.920231 0.948542 0.092997
H12   H     H_    0.366915 0.354448 0.877556 0.107057
H13   H     H_    0.884145 0.918310 0.962622 0.106056
H14   H     H_    0.017975 0.066382 0.822331 0.102902
H15   H     H_    0.925117 0.214978 0.662224 0.095204
H16   H     H_    0.703592 0.215405 0.639724 0.124744
H17   H     H_    0.498475 0.115780 0.112082 0.084360
H18   H     H_    0.612402 0.255012 0.941178 0.122256
H19   H     H_    0.814786 0.346547 0.995899 0.096375
H20   H     H_    0.899957 0.310766 0.229306 0.100742
H21   H     H_    0.784066 0.181148 0.405360 0.076589
H22   H     H_    0.752039 0.539376 0.869986 0.150336
H23   H     H_    0.722640 0.708287 0.861684 0.117712
H24   H     H_    0.751096 0.546591 0.119515 0.161762
H25   H     H_    0.717362 0.714572 0.111969 0.128645
H26   H     H_    0.898179 0.404247 0.543213 0.070395
H27   H     H_    0.114797 0.525069 0.293439 0.139824
H28   H     H_    0.088760 0.510255 0.614054 0.103482
N1    N     N_R   0.500780 0.500930 0.147930 -0.224113
N2    N     N_R   0.500780 0.500890 0.852020 -0.230904
O1    O     O_R   0.500000 0.319640 0.618810 -0.516126
O2    O     O_R   0.500010 0.319680 0.381230 -0.490360
O3    O     O_R   0.321940 0.499980 0.618760 -0.499246
O4    O     O_R   0.321950 0.500020 0.381180 -0.501297
O5    O     O_R   0.499990 0.680320 0.618770 -0.505039
O6    O     O_R   0.500000 0.680360 0.381190 -0.501554
O7    O     O_R   0.678050 0.499980 0.618820 -0.515253
O8    O     O_R   0.678060 0.500020 0.381240 -0.486159

loop_
_geom_bond_atom_site_label_1
_geom_bond_atom_site_label_2
_ccdc_geom_bond_type
Cu2   O8    S    
C16   C21   A    
C40   N1    A    
Cu1   Cu2   S    
C19   C20   A    
C17   H6    S    
C12   C23   A    
C26   C27   A    
C37   C38   S    
C1    O2    A    
C23   C29   S    
C36   C37   A    
C32   H19   S    
C20   H9    S    
Cu1   O5    S    
C5    C6    S    
C3    H12   S    
C18   C19   A    
C8    C36   S    
C6    H22   S    
C15   C37   A    
C4    O3    A    
C6    H23   S    
C16   C17   A    
C38   H3    S    
C7    C40   S    
C22   C28   A    
C13   C14   D    
C8    O6    A    
C14   H28   S    
C1    C12   S    
C9    O7    A    
C38   C39   S    
Cu2   O2    S    
C38   H4    S    
C34   H2    S    
C24   C25   A    
C27   H15   S    
C33   H20   S    
C25   C26   A    
Cu1   O1    S    
C9    O8    A    
C31   H18   S    
C29   C30   A    
Cu1   O3    S    
C31   C32   A    
C12   C15   A    
C2    H1    S    
C23   C34   A    
C30   H17   S    
C17   C18   A    
C9    C11   S    
C15   C39   S    
Cu1   N2    S    
Cu2   O6    S    
C8    O5    A    
C22   C24   A    
C2    N1    A    
C11   H26   S    
C39   H5    S    
C25   H13   S    
C10   C13   S    
C26   H14   S    
Cu1   O7    S    
C6    C7    S    
C28   H16   S    
C5    N2    A    
C29   C35   A    
Cu2   O4    S    
C1    O1    A    
C32   C33   A    
C2    C3    A    
C24   H11   S    
C10   C16   S    
C7    H24   S    
C19   H8    S    
C30   C31   A    
C13   H27   S    
C22   C39   S    
Cu2   N1    S    
C33   C35   A    
C3    N2    A    
C34   C36   A    
C4    C14   S    
C4    O4    A    
C10   C11   D    
C7    H25   S    
C20   C21   A    
C5    C40   A    
C27   C28   A    
C35   H21   S    
C21   H10   S    
C18   H7    S    
