data_mof_unit_56306.cif
_audit_creation_date              2012-12-11T16:56:10-0500
_audit_creation_method            fapswitch 2.2
_symmetry_space_group_name_H-M    P1
_symmetry_Int_Tables_number       1
_space_group_crystal_system       triclinic
_cell_length_a                    6.966405
_cell_length_b                    14.527452
_cell_length_c                    16.202304
_cell_angle_alpha                 90.440494
_cell_angle_beta                  89.969435
_cell_angle_gamma                 90.067981
_cell_volume                      1639.68998622

loop_
_atom_site_label
_atom_site_type_symbol
_atom_type_description
_atom_site_fract_x
_atom_site_fract_y
_atom_site_fract_z
_atom_type_partial_charge
O1    O     O_R   0.505830 0.583360 0.413880 -0.540796
O2    O     O_R   0.175830 0.595460 0.585520 -0.522831
O3    O     O_R   0.005520 0.416640 0.586120 -0.534104
C1    C     C_R   0.344684 0.617503 0.614345 0.723961
O4    O     O_R   0.176120 0.594390 0.414490 -0.548720
O5    O     O_R   0.005810 0.415570 0.413870 -0.548490
C2    C     C_R   0.344949 0.616262 0.385945 0.676572
O6    O     O_R   0.505540 0.584430 0.586130 -0.532134
O7    O     O_3   0.339200 0.441330 0.500000 -0.377711
V1    V     V_3+5 0.064350 0.510880 0.500000 1.441567
O8    O     O_R   0.676100 0.404540 0.414480 -0.542157
C3    C     C_R   0.845109 0.382369 0.385916 0.673815
O9    O     O_R   0.675810 0.405610 0.585510 -0.542768
C4    C     C_R   0.845212 0.380521 0.610648 0.768241
V2    V     V_3+5 0.564340 0.489120 0.500000 1.432454
O10   O     O_3   0.839360 0.558670 0.500000 -0.368203
C5    C     C_2   0.729270 0.212605 0.787487 -0.148944
C6    C     C_2   0.886465 0.189916 0.830660 -0.285383
H1    H     H_    0.593542 0.178492 0.799720 0.137315
H2    H     H_    0.017187 0.229642 0.823234 0.139953
C7    C     C_2   0.729802 0.289167 0.727329 -0.124466
C8    C     C_2   0.859144 0.299613 0.665421 -0.074299
H3    H     H_    0.613768 0.338662 0.733481 0.136832
C9    C     C_R   0.724586 0.182853 0.241314 -0.013819
C10   C     C_R   0.882099 0.180484 0.187571 -0.057465
C11   C     C_R   0.033797 0.241859 0.203840 -0.172470
H4    H     H_    0.155545 0.243822 0.162934 0.203859
C12   C     C_R   0.022985 0.306142 0.269121 -0.171545
H5    H     H_    0.138696 0.355059 0.277120 0.132712
C13   C     C_R   0.858742 0.311665 0.319716 -0.059412
C14   C     C_R   0.712988 0.246876 0.305923 -0.002855
C15   C     C_3   0.504962 0.263507 0.290968 -0.444070
C16   C     C_3   0.518100 0.194585 0.220389 0.511327
H6    H     H_    0.476308 0.335136 0.270701 0.195554
H7    H     H_    0.414469 0.239137 0.342950 0.123167
H8    H     H_    0.431432 0.131095 0.229059 0.018086
C17   C     C_R   0.507278 0.681688 0.741228 0.095739
C18   C     C_R   0.353198 0.682460 0.685593 -0.172753
C19   C     C_R   0.202211 0.744219 0.702541 -0.107579
H9    H     H_    0.079953 0.747316 0.661686 0.126273
C20   C     C_R   0.213444 0.807056 0.769206 -0.183520
H10   H     H_    0.098855 0.856378 0.777687 0.121740
C21   C     C_R   0.376485 0.810479 0.820833 -0.099563
C22   C     C_R   0.519199 0.744346 0.806810 0.026740
C23   C     C_3   0.729793 0.757052 0.795369 -0.458347
C24   C     C_3   0.716828 0.688602 0.724213 0.506031
H11   H     H_    0.813607 0.731497 0.848858 0.212293
H12   H     H_    0.765744 0.827967 0.775230 0.113423
H13   H     H_    0.749525 0.717704 0.662544 0.016868
C25   C     C_R   0.509466 0.746419 0.311667 0.097488
C26   C     C_R   0.353101 0.686419 0.319825 -0.105818
C27   C     C_R   0.200677 0.696691 0.263525 -0.171110
H14   H     H_    0.077358 0.651794 0.267107 0.132852
C28   C     C_R   0.212311 0.760185 0.198230 -0.171361
H15   H     H_    0.096545 0.763056 0.153932 0.132664
C29   C     C_R   0.377365 0.814875 0.186864 -0.106343
C30   C     C_R   0.521382 0.808926 0.246875 0.091671
C31   C     C_3   0.730962 0.792636 0.236287 -0.413959
C32   C     C_3   0.718061 0.724936 0.307102 -0.394070
H16   H     H_    0.817557 0.854849 0.251343 0.165651
H17   H     H_    0.764186 0.759247 0.176018 0.176727
H18   H     H_    0.796604 0.748170 0.363230 0.168063
H19   H     H_    0.744548 0.652371 0.288049 0.171392
O11   O     O_R   0.229930 0.912420 0.917160 -0.544161
O12   O     O_R   0.559420 0.902500 0.088780 -0.543844
O13   O     O_R   0.729660 0.081330 0.089380 -0.515478
C33   C     C_R   0.390318 0.880513 0.117236 0.685231
O14   O     O_R   0.559650 0.901420 0.917750 -0.542140
O15   O     O_R   0.729880 0.080250 0.917130 -0.534727
C34   C     C_R   0.390592 0.879748 0.888606 0.695576
O16   O     O_R   0.229700 0.913500 0.089410 -0.544597
O17   O     O_3   0.396250 0.055540 0.003280 -0.346840
V3    V     V_3+5 0.671130 0.986010 0.003260 1.449143
O18   O     O_R   0.059600 0.091310 0.917720 -0.545826
C35   C     C_R   0.890929 0.115000 0.891384 0.744414
O19   O     O_R   0.059370 0.092380 0.088750 -0.543035
C36   C     C_R   0.890570 0.114559 0.117319 0.718021
V4    V     V_3+5 0.171120 0.007820 0.003230 1.447187
O20   O     O_3   0.896130 0.938240 0.003240 -0.381149
F1    F     F_    0.810271 0.606766 0.740789 -0.664108
C37   C     C_3   0.009296 0.227078 0.643209 -0.339218
C38   C     C_3   0.916255 0.138545 0.609565 -0.298944
C39   C     C_3   0.067905 0.067366 0.585766 -0.799086
H20   H     H_    0.164054 0.095013 0.537142 0.227608
H21   H     H_    0.154764 0.048515 0.640578 0.226333
H22   H     H_    0.996565 0.004346 0.561512 0.214615
H23   H     H_    0.820027 0.107681 0.656439 0.205155
H24   H     H_    0.828992 0.154982 0.554155 0.182372
H25   H     H_    0.106173 0.253721 0.594327 0.170058
H26   H     H_    0.104361 0.211845 0.695926 0.177075
F2    F     F_    0.496163 0.235503 0.143996 -0.673600

loop_
_geom_bond_atom_site_label_1
_geom_bond_atom_site_label_2
_ccdc_geom_bond_type
C6    C35   S    
C20   H10   S    
C1    O6    A    
C37   C38   S    
C19   C20   A    
C23   C24   S    
C27   H14   S    
C24   H13   S    
C11   H4    S    
C10   C36   S    
C25   C32   S    
C12   H5    S    
O19   V4    S    
C16   F2    S    
O5    C3    A    
C18   C19   A    
C31   H16   S    
C38   H23   S    
C16   H8    S    
O12   V3    S    
C29   C30   A    
O17   V4    S    
O8    V2    S    
C39   H20   S    
O12   C33   A    
O15   V3    S    
O1    V2    S    
O11   C34   A    
O7    V1    S    
C33   O16   A    
C37   H25   S    
O14   V3    S    
C31   H17   S    
C7    C8    D    
C20   C21   A    
C27   C28   A    
C5    C6    D    
C23   H11   S    
C28   C29   A    
O18   C35   A    
C26   C27   A    
C8    C37   S    
C9    C10   A    
C19   H9    S    
O4    C2    A    
V4    O20   S    
C31   C32   S    
O13   V3    S    
C5    C7    S    
C15   H6    S    
O2    C1    A    
C21   C22   A    
C15   H7    S    
C17   C18   A    
C14   C15   S    
C25   C26   A    
V3    O20   S    
O19   C36   A    
O3    C4    A    
C37   H26   S    
C39   H21   S    
C1    C18   S    
C21   C34   S    
O9    V2    S    
C32   H19   S    
O2    V1    S    
C22   C23   S    
C23   H12   S    
O13   C36   A    
C28   H15   S    
C32   H18   S    
C3    C13   S    
O1    C2    A    
C25   C30   A    
O11   V4    S    
O17   V3    S    
O5    V1    S    
O8    C3    A    
O6    V2    S    
C29   C33   S    
C11   C12   A    
C9    C16   S    
C15   C16   S    
C4    C8    S    
C17   C22   A    
C7    H3    S    
C10   C11   A    
C9    C14   A    
C2    C26   S    
O4    V1    S    
O3    V1    S    
V1    O10   S    
C24   F1    S    
C30   C31   S    
C13   C14   A    
C38   H24   S    
C12   C13   A    
C5    H1    S    
O15   C35   A    
C6    H2    S    
O7    V2    S    
C39   H22   S    
O14   C34   A    
C38   C39   S    
O18   V4    S    
C17   C24   S    
O9    C4    A    
O16   V4    S    
V2    O10   S    
