data_mof_unit_20590.cif
_audit_creation_date              2012-12-10T19:45:43-0500
_audit_creation_method            fapswitch 2.2
_symmetry_space_group_name_H-M    P1
_symmetry_Int_Tables_number       1
_space_group_crystal_system       triclinic
_cell_length_a                    11.208166
_cell_length_b                    14.900829
_cell_length_c                    15.334702
_cell_angle_alpha                 63.570414
_cell_angle_beta                  109.462008
_cell_angle_gamma                 99.893977
_cell_volume                      2161.50853081

loop_
_atom_site_label
_atom_site_type_symbol
_atom_type_description
_atom_site_fract_x
_atom_site_fract_y
_atom_site_fract_z
_atom_type_partial_charge
C1    C     C_R   0.481371 0.119121 0.313022 0.812051
C2    C     C_R   0.621498 0.770618 0.975620 -0.166560
C3    C     C_R   0.415167 0.157287 0.124114 -0.037981
C4    C     C_R   0.584821 0.842715 0.875884 -0.037981
C5    C     C_R   0.506007 0.288825 0.180242 -0.193131
C6    C     C_R   0.493990 0.711175 0.819758 -0.193136
C7    C     C_R   0.479919 0.361823 0.078687 0.094687
C8    C     C_R   0.520064 0.638181 0.921313 0.094685
C9    C     C_R   0.410021 0.330605 0.000935 0.149913
C10   C     C_R   0.589958 0.669399 0.999066 0.149915
C11   C     C_R   0.518097 0.464820 0.052209 0.085868
C12   C     C_R   0.518628 0.880879 0.686977 0.812052
C13   C     C_R   0.481881 0.535184 0.947792 0.085867
C14   C     C_R   0.407873 0.500316 0.873632 -0.180914
C15   C     C_R   0.592097 0.499690 0.126370 -0.180909
C16   C     C_R   0.263628 0.999932 0.502093 0.824039
C17   C     C_R   0.736373 0.000067 0.497908 0.824038
C18   C     C_R   0.373883 0.399990 0.899925 -0.162209
C19   C     C_R   0.626088 0.600016 0.100076 -0.162207
C20   C     C_R   0.690624 0.259486 0.692433 -0.248525
C21   C     C_R   0.309372 0.740513 0.307569 -0.248523
C22   C     C_R   0.677509 0.192317 0.649780 0.357090
C23   C     C_R   0.869741 0.000916 0.494874 -0.154787
C24   C     C_R   0.322489 0.807682 0.350221 0.357089
C25   C     C_R   0.527431 0.295596 0.498858 0.265471
C26   C     C_R   0.472568 0.704404 0.501142 0.265472
C27   C     C_R   0.552882 0.372460 0.534399 -0.061152
C28   C     C_R   0.447115 0.627539 0.465602 -0.061152
C29   C     C_R   0.618990 0.345352 0.638605 0.023826
C30   C     C_R   0.381006 0.654647 0.361396 0.023828
C31   C     C_R   0.505766 0.471426 0.475141 0.036048
C32   C     C_R   0.494229 0.528572 0.524860 0.036047
C33   C     C_R   0.526505 0.483169 0.631484 -0.239885
C34   C     C_R   0.130260 0.999082 0.505129 -0.154786
C35   C     C_R   0.473490 0.516829 0.368517 -0.239886
C36   C     C_R   0.605110 0.401705 0.687283 0.208103
C37   C     C_R   0.394885 0.598293 0.312718 0.208103
C38   C     C_R   0.287820 0.221581 0.654451 0.158350
C39   C     C_R   0.712179 0.778417 0.345553 0.158347
C40   C     C_R   0.234393 0.142565 0.626491 -0.007193
C41   C     C_R   0.765608 0.857433 0.373513 -0.007190
C42   C     C_R   0.163755 0.163648 0.524355 0.046215
C43   C     C_R   0.836247 0.836350 0.475648 0.046214
C44   C     C_R   0.153010 0.264343 0.450749 0.031601
C45   C     C_R   0.919737 0.916690 0.498697 -0.067864
C46   C     C_R   0.846991 0.735655 0.549255 0.031601
C47   C     C_R   0.202576 0.342252 0.481200 -0.163321
C48   C     C_R   0.797424 0.657745 0.518804 -0.163321
C49   C     C_R   0.268111 0.320719 0.582659 -0.159797
C50   C     C_R   0.731887 0.679279 0.417345 -0.159798
C51   C     C_R   0.950604 0.086143 0.492117 0.148804
C52   C     C_R   0.049399 0.913854 0.507888 0.148804
C53   C     C_1   0.246842 0.040371 0.703659 0.306037
C54   C     C_1   0.753158 0.959627 0.296345 0.306038
C55   C     C_1   0.084749 0.289234 0.344456 0.322438
C56   C     C_R   0.080265 0.083307 0.501307 -0.067865
C57   C     C_1   0.915251 0.710763 0.655548 0.322438
C58   C     C_1   0.594616 0.945634 0.861654 0.364285
C59   C     C_1   0.405371 0.054370 0.138342 0.364286
C60   C     C_R   0.468926 0.187604 0.204476 -0.093282
C61   C     C_R   0.531069 0.812397 0.795524 -0.093281
C62   C     C_R   0.378485 0.229386 0.024379 -0.166561
Cu1   Cu    Cu3+1 0.466270 0.918260 0.475690 1.029833
Cu2   Cu    Cu3+1 0.533730 0.081740 0.524310 1.029833
H1    H     H_    0.303835 0.381388 0.605524 0.166232
H2    H     H_    0.507478 0.488910 0.327455 0.182837
H3    H     H_    0.190712 0.419788 0.426194 0.170580
H4    H     H_    0.809288 0.580210 0.573810 0.170580
H5    H     H_    0.318626 0.376554 0.840244 0.166595
H6    H     H_    0.681339 0.623453 0.159757 0.166599
H7    H     H_    0.446093 0.691155 0.757360 0.178487
H8    H     H_    0.553917 0.308842 0.242640 0.178482
H9    H     H_    0.696160 0.618611 0.394481 0.166232
H10   H     H_    0.326323 0.205868 0.964467 0.174560
H11   H     H_    0.673657 0.794137 0.035532 0.174562
H12   H     H_    0.373467 0.548256 0.793914 0.152551
H13   H     H_    0.626491 0.451752 0.206090 0.152546
H14   H     H_    0.755065 0.242932 0.767771 0.203189
H15   H     H_    0.244929 0.757067 0.232231 0.203190
H16   H     H_    0.492517 0.511090 0.672546 0.182840
I1    I     I_    0.688671 0.365523 0.845277 -0.281712
I2    I     I_    0.120551 0.773030 0.531359 -0.344326
I3    I     I_    0.311323 0.634476 0.154724 -0.281716
I4    I     I_    0.616961 0.686661 0.640785 -0.369329
I5    I     I_    0.383038 0.313339 0.359215 -0.369329
I6    I     I_    0.188730 0.923905 0.270941 -0.260213
I7    I     I_    0.811267 0.076093 0.729062 -0.260212
I8    I     I_    0.393470 0.194266 0.805492 -0.360505
I9    I     I_    0.606524 0.805733 0.194513 -0.360515
I10   I     I_    0.879456 0.226967 0.468653 -0.344321
N1    N     N_R   0.584450 0.204570 0.560790 -0.216232
N2    N     N_R   0.415550 0.795430 0.439210 -0.216232
N3    N     N_1   0.256730 0.958615 0.765146 -0.235707
N4    N     N_1   0.743270 0.041383 0.234859 -0.235708
N5    N     N_1   0.030301 0.309016 0.259734 -0.204895
N6    N     N_1   0.969697 0.690980 0.740271 -0.204895
N7    N     N_1   0.601394 0.027549 0.852381 -0.213122
N8    N     N_1   0.398592 0.972455 0.147614 -0.213118
O1    O     O_R   0.455540 0.022090 0.338120 -0.576764
O2    O     O_R   0.544460 0.977910 0.661880 -0.576765
O3    O     O_R   0.512510 0.160150 0.379180 -0.552714
O4    O     O_R   0.487490 0.839850 0.620820 -0.552714
O5    O     O_R   0.291160 0.930970 0.479480 -0.530572
O6    O     O_R   0.708840 0.069030 0.520520 -0.530572
O7    O     O_R   0.348130 0.069020 0.520540 -0.576994
O8    O     O_R   0.651870 0.930980 0.479460 -0.576994

loop_
_geom_bond_atom_site_label_1
_geom_bond_atom_site_label_2
_ccdc_geom_bond_type
C34   C56   A    
C8    C13   A    
C23   C45   A    
C27   C29   A    
C14   C18   A    
C1    O1    A    
Cu2   O7    S    
C39   C41   A    
C38   C49   A    
C15   C19   A    
C29   C36   A    
C17   C23   S    
C49   H1    S    
C6    C61   A    
C35   C37   A    
C17   O6    A    
C5    H8    S    
C51   I10   S    
C26   N2    A    
C33   C36   A    
Cu2   O6    S    
C51   C56   A    
Cu1   O1    S    
C16   C34   S    
C11   C15   A    
C57   N6    T    
Cu1   N2    S    
C22   N1    A    
C36   I1    S    
C44   C47   A    
C42   C56   S    
C3    C60   A    
C18   H5    S    
C40   C42   A    
C13   C14   A    
C41   C43   A    
C6    H7    S    
C58   N7    T    
C42   C44   A    
Cu1   O4    S    
C24   N2    A    
C47   H3    S    
C7    C11   A    
C20   C29   A    
Cu2   O3    S    
C46   C48   A    
C25   N1    A    
C54   N4    T    
C27   C31   A    
C9    C62   A    
C28   C32   A    
Cu1   O5    S    
C50   H9    S    
C5    C7    A    
C6    C8    A    
C45   C52   A    
C53   N3    T    
C4    C61   A    
C30   C37   A    
C38   I8    S    
C14   H12   S    
C2    C4    A    
C12   O4    A    
C16   O5    A    
C23   C51   A    
C31   C32   A    
C10   C19   A    
C21   H15   S    
C25   I5    S    
C22   I7    S    
C48   H4    S    
Cu1   O8    S    
C52   I2    S    
C43   C45   S    
C16   O7    A    
C55   N5    T    
C20   C22   A    
C46   C57   S    
C31   C35   A    
C1    C60   S    
C2    C10   A    
C1    O3    A    
C3    C62   A    
C7    C9    A    
C26   I4    S    
C5    C60   A    
C34   C52   A    
C62   H10   S    
C33   H16   S    
C25   C27   A    
C21   C30   A    
C26   C28   A    
C35   H2    S    
C20   H14   S    
C32   C33   A    
C28   C30   A    
C47   C49   A    
C38   C40   A    
C12   C61   S    
C11   C13   A    
C44   C55   S    
C15   H13   S    
C48   C50   A    
C43   C46   A    
C41   C54   S    
C12   O2    A    
Cu1   Cu2   S    
C9    C18   A    
Cu2   O2    S    
C39   C50   A    
C8    C10   A    
C40   C53   S    
C21   C24   A    
C4    C58   S    
C59   N8    T    
C37   I3    S    
C19   H6    S    
Cu2   N1    S    
C17   O8    A    
C24   I6    S    
C39   I9    S    
C2    H11   S    
C3    C59   S    
