data_mof_unit_21785.cif
_audit_creation_date              2012-10-26T21:01:32-0400
_audit_creation_method            fapswitch 2.2
_symmetry_space_group_name_H-M    P1
_symmetry_Int_Tables_number       1
_space_group_crystal_system       triclinic
_cell_length_a                    15.826885
_cell_length_b                    12.957465
_cell_length_c                    11.812249
_cell_angle_alpha                 99.224376
_cell_angle_beta                  91.188655
_cell_angle_gamma                 92.897154
_cell_volume                      2387.00743032

loop_
_atom_site_label
_atom_site_type_symbol
_atom_type_description
_atom_site_fract_x
_atom_site_fract_y
_atom_site_fract_z
_atom_type_partial_charge
C1    C     C_R   0.496925 0.300141 0.479232 0.539009
C2    C     C_R   0.460008 0.974787 0.485979 0.028599
C3    C     C_R   0.450242 0.373578 0.028650 -0.034067
C4    C     C_R   0.553484 0.626068 0.971330 -0.030664
C5    C     C_R   0.442081 0.396421 0.148075 0.051217
C6    C     C_R   0.558017 0.604238 0.851059 0.043213
C7    C     C_R   0.533269 0.548630 0.153844 0.154425
C8    C     C_R   0.467240 0.452405 0.848217 0.152143
C9    C     C_R   0.523293 0.544807 0.032331 0.000512
C10   C     C_R   0.482650 0.454009 0.968388 -0.010722
C11   C     C_R   0.340231 0.500327 0.502261 0.530406
C12   C     C_R   0.503448 0.699709 0.520577 0.539150
C13   C     C_R   0.659783 0.499830 0.497738 0.534385
C14   C     C_3   0.968595 0.419506 0.545768 0.027739
C15   C     C_3   0.031508 0.581257 0.454038 0.027146
C16   C     C_3   0.025597 0.409759 0.440079 -0.099152
C17   C     C_3   0.974476 0.591010 0.559703 -0.099566
C18   C     C_1   0.250741 0.501117 0.506780 -0.054635
C19   C     C_1   0.749289 0.499226 0.493201 -0.050305
C20   C     C_3   0.027094 0.509975 0.609310 0.048118
C21   C     C_3   0.972977 0.490806 0.390472 0.048225
C22   C     C_3   0.083426 0.501304 0.504170 0.037957
C23   C     C_R   0.396608 0.030914 0.442522 -0.124494
C24   C     C_3   0.916638 0.499446 0.495624 0.037567
C25   C     C_1   0.175186 0.501452 0.507052 -0.074532
C26   C     C_1   0.824858 0.499098 0.492833 -0.076065
C27   C     C_R   0.512629 0.812325 0.529736 0.034560
C28   C     C_R   0.488796 0.187218 0.469494 0.028660
C29   C     C_3   0.932029 0.325924 0.595033 -0.408384
C30   C     C_3   0.068413 0.674737 0.404870 -0.407902
C31   C     C_3   0.937709 0.479494 0.267260 -0.273549
C32   C     C_3   0.006201 0.455815 0.179324 -0.444323
C33   C     C_3   0.062383 0.521772 0.732548 -0.272897
C34   C     C_R   0.606124 0.967414 0.553196 -0.123726
C35   C     C_3   0.993450 0.542698 0.820382 -0.444808
C36   C     C_3   0.355353 0.814838 0.479056 -0.272580
C37   C     C_3   0.298999 0.852806 0.579074 -0.450277
C38   C     C_3   0.644277 0.187733 0.530635 -0.274992
C39   C     C_3   0.701276 0.159560 0.428750 -0.449620
C40   C     C_3   0.666719 0.801525 0.591567 -0.394204
C41   C     C_3   0.339623 0.191285 0.384260 -0.391919
C42   C     C_3   0.376805 0.415544 0.805890 -0.218365
C43   C     C_3   0.365822 0.312828 0.720792 -0.389268
C44   C     C_3   0.615510 0.599978 0.210428 -0.221697
C45   C     C_R   0.410239 0.135694 0.433017 -0.038560
C46   C     C_3   0.688227 0.526974 0.185083 -0.423017
C47   C     C_3   0.431454 0.261272 0.970803 -0.299085
C48   C     C_3   0.475252 0.181909 0.031902 -0.444401
C49   C     C_3   0.560926 0.741300 0.023478 -0.292193
C50   C     C_3   0.650114 0.790708 0.014696 -0.455200
C51   C     C_R   0.593064 0.861669 0.558636 -0.037221
C52   C     C_R   0.556294 0.132532 0.506704 -0.005828
C53   C     C_R   0.444362 0.868297 0.497420 -0.003272
C54   C     C_R   0.541439 0.025235 0.515362 0.028081
Cu1   Cu    Cu3+1 0.506200 0.507730 0.615930 0.904814
Cu2   Cu    Cu3+1 0.493800 0.492270 0.384070 0.897467
H1    H     H_    0.047562 0.335629 0.392057 0.095685
H2    H     H_    0.016948 0.713169 0.365193 0.121868
H3    H     H_    0.100271 0.731698 0.474712 0.120712
H4    H     H_    0.115423 0.648845 0.339438 0.132513
H5    H     H_    0.055764 0.520454 0.189204 0.151445
H6    H     H_    0.035682 0.381701 0.189247 0.145002
H7    H     H_    0.977510 0.447142 0.091498 0.129913
H8    H     H_    0.888007 0.414709 0.253109 0.139578
H9    H     H_    0.908217 0.553069 0.255138 0.136199
H10   H     H_    0.961732 0.615277 0.810113 0.146004
H11   H     H_    0.945682 0.476070 0.810758 0.151465
H12   H     H_    0.952525 0.665131 0.607768 0.095899
H13   H     H_    0.022243 0.552830 0.908255 0.129650
H14   H     H_    0.093687 0.449263 0.744349 0.138253
H15   H     H_    0.110667 0.588156 0.747082 0.139432
H16   H     H_    0.326881 0.834668 0.660240 0.157390
H17   H     H_    0.291463 0.938358 0.588363 0.148296
H18   H     H_    0.235439 0.812007 0.564358 0.130420
H19   H     H_    0.326263 0.826585 0.396181 0.126994
H20   H     H_    0.355226 0.728659 0.472263 0.167972
H21   H     H_    0.673195 0.184293 0.351039 0.157930
H22   H     H_    0.764250 0.201032 0.447477 0.131078
H23   H     H_    0.335271 0.994410 0.415088 0.114451
H24   H     H_    0.709888 0.074109 0.410852 0.148033
H25   H     H_    0.642704 0.274074 0.546576 0.171691
H26   H     H_    0.673631 0.169927 0.610842 0.126058
H27   H     H_    0.725917 0.851920 0.608976 0.108781
H28   H     H_    0.652380 0.768379 0.670389 0.139120
H29   H     H_    0.678757 0.737063 0.520718 0.126400
H30   H     H_    0.280807 0.140301 0.365862 0.108599
H31   H     H_    0.323909 0.261475 0.445047 0.124500
H32   H     H_    0.359414 0.215329 0.302532 0.134679
H33   H     H_    0.344648 0.328097 0.635711 0.163594
H34   H     H_    0.668658 0.002370 0.576093 0.114556
H35   H     H_    0.424221 0.269271 0.711680 0.165894
H36   H     H_    0.315678 0.260697 0.749759 0.097482
H37   H     H_    0.336604 0.405759 0.879903 0.095919
H38   H     H_    0.344986 0.479777 0.774608 0.164236
H39   H     H_    0.744975 0.559359 0.238374 0.122872
H40   H     H_    0.670885 0.447360 0.203514 0.180598
H41   H     H_    0.704462 0.520173 0.093222 0.133615
H42   H     H_    0.635652 0.672954 0.181651 0.110281
H43   H     H_    0.610509 0.627035 0.302249 0.199056
H44   H     H_    0.543721 0.204706 0.046525 0.158649
H45   H     H_    0.585545 0.662544 0.804905 0.134217
H46   H     H_    0.445928 0.175590 0.115181 0.143145
H47   H     H_    0.468768 0.103345 0.977759 0.137026
H48   H     H_    0.362054 0.242705 0.965842 0.135236
H49   H     H_    0.456865 0.250066 0.883948 0.160815
H50   H     H_    0.699515 0.740488 0.040362 0.149691
H51   H     H_    0.661501 0.803078 0.925286 0.135075
H52   H     H_    0.656433 0.868088 0.071154 0.139981
H53   H     H_    0.516260 0.783736 0.976071 0.141086
H54   H     H_    0.539270 0.755362 0.113086 0.142725
H55   H     H_    0.409924 0.340748 0.193326 0.129102
H56   H     H_    0.983378 0.289266 0.637111 0.122368
H57   H     H_    0.883495 0.351223 0.658480 0.132753
H58   H     H_    0.902207 0.267623 0.524794 0.119699
N1    N     N_R   0.515540 0.519350 0.790140 -0.234256
N2    N     N_R   0.484460 0.480650 0.209860 -0.236814
O1    O     O_R   0.504400 0.354460 0.582000 -0.507165
O2    O     O_R   0.495600 0.645540 0.418000 -0.522426
O3    O     O_R   0.493920 0.341410 0.386200 -0.505512
O4    O     O_R   0.506080 0.658590 0.613800 -0.508742
O5    O     O_R   0.384320 0.506520 0.597880 -0.508909
O6    O     O_R   0.615680 0.493480 0.402120 -0.513134
O7    O     O_R   0.373840 0.493460 0.402080 -0.495076
O8    O     O_R   0.626160 0.506540 0.597920 -0.495547

loop_
_geom_bond_atom_site_label_1
_geom_bond_atom_site_label_2
_ccdc_geom_bond_type
C7    N2    A    
C37   H18   S    
Cu1   O5    S    
C11   C18   S    
C16   C21   S    
C23   C45   A    
C42   H37   S    
C40   H28   S    
C29   H56   S    
Cu1   Cu2   S    
C29   H58   S    
C41   H30   S    
C21   C31   S    
C34   C51   A    
C43   H33   S    
C39   H21   S    
C36   C37   S    
C24   C26   S    
C32   H5    S    
C38   C39   S    
C44   H43   S    
C38   C52   S    
C17   C20   S    
C15   C17   S    
C1    O3    A    
C6    H45   S    
C14   C24   S    
C19   C26   T    
C37   H17   S    
C36   C53   S    
C36   H20   S    
C8    N1    A    
C33   C35   S    
C12   O4    A    
C44   H42   S    
C15   C22   S    
C46   H39   S    
C47   C48   S    
C44   C46   S    
C47   H49   S    
C22   C25   S    
C30   H4    S    
C1    C28   S    
C9    C10   A    
C38   H26   S    
C50   H52   S    
C40   H27   S    
C11   O5    A    
C18   C25   T    
C48   H44   S    
C52   C54   A    
Cu1   O4    S    
C41   H31   S    
C28   C45   A    
C17   C24   S    
C13   C19   S    
C12   C27   S    
Cu2   O7    S    
C14   C20   S    
C4    C6    A    
C2    C54   A    
C13   O8    A    
C5    H55   S    
C35   H10   S    
C48   H47   S    
C43   H35   S    
Cu2   O6    S    
C40   H29   S    
C34   H34   S    
C36   H19   S    
C31   C32   S    
C35   H11   S    
C48   H46   S    
C30   H3    S    
Cu2   N2    S    
C1    O1    A    
C7    C44   S    
C33   H14   S    
C12   O2    A    
C20   C33   S    
C46   H41   S    
C20   C22   S    
C34   C54   A    
C38   H25   S    
C50   H51   S    
Cu2   O3    S    
C14   C16   S    
C21   C24   S    
C42   C43   S    
C14   C29   S    
C15   C30   S    
C49   H53   S    
Cu1   O1    S    
C31   H9    S    
C41   H32   S    
C29   H57   S    
Cu1   O8    S    
C17   H12   S    
C16   C22   S    
C47   H48   S    
C42   H38   S    
Cu2   O2    S    
C31   H8    S    
C11   O7    A    
C32   H7    S    
C8    C42   S    
C3    C5    A    
C2    C53   A    
C27   C53   A    
C40   C51   S    
C43   H36   S    
C4    C49   S    
C39   H24   S    
C4    C9    A    
C32   H6    S    
C5    N2    A    
C3    C10   A    
C13   O6    A    
C28   C52   A    
Cu1   N1    S    
C30   H2    S    
C3    C47   S    
C27   C51   A    
C16   H1    S    
C6    N1    A    
C33   H15   S    
C7    C9    A    
C15   C21   S    
C46   H40   S    
C35   H13   S    
C8    C10   A    
C49   C50   S    
C37   H16   S    
C2    C23   A    
C50   H50   S    
C41   C45   S    
C23   H23   S    
C39   H22   S    
C49   H54   S    
