data_mof_unit_35806.cif
_audit_creation_date              2012-12-11T17:05:34-0500
_audit_creation_method            fapswitch 2.2
_symmetry_space_group_name_H-M    P1
_symmetry_Int_Tables_number       1
_space_group_crystal_system       triclinic
_cell_length_a                    6.998278
_cell_length_b                    14.796824
_cell_length_c                    15.87556
_cell_angle_alpha                 90.266324
_cell_angle_beta                  90.763103
_cell_angle_gamma                 90.174438
_cell_volume                      1643.77906311

loop_
_atom_site_label
_atom_site_type_symbol
_atom_type_description
_atom_site_fract_x
_atom_site_fract_y
_atom_site_fract_z
_atom_type_partial_charge
O1    O     O_R   0.494380 0.415640 0.412830 -0.547683
O2    O     O_R   0.823960 0.405540 0.586560 -0.532087
O3    O     O_R   0.994270 0.584360 0.587170 -0.544596
C1    C     C_R   0.655263 0.384003 0.615557 0.716428
O4    O     O_R   0.824090 0.404620 0.413450 -0.554109
O5    O     O_R   0.994400 0.583430 0.412820 -0.532902
C2    C     C_R   0.653501 0.386757 0.381045 0.692303
O6    O     O_R   0.494250 0.416570 0.587180 -0.507729
O7    O     O_3   0.660800 0.558670 0.500000 -0.370864
V1    V     V_3+5 0.935650 0.489120 0.500000 1.427094
O8    O     O_R   0.324110 0.594460 0.413440 -0.544769
C3    C     C_R   0.154447 0.616968 0.385397 0.652914
O9    O     O_R   0.323980 0.595380 0.586550 -0.544242
C4    C     C_R   0.156222 0.618678 0.614738 0.720779
V2    V     V_3+5 0.435660 0.510880 0.500000 1.431424
O10   O     O_3   0.160640 0.441330 0.500000 -0.362481
C5    C     C_3   0.937543 0.702985 0.713453 -0.380078
H1    H     H_    0.842951 0.722212 0.659960 0.165298
H2    H     H_    0.882026 0.637050 0.736425 0.143874
C6    C     C_3   0.920060 0.773375 0.784851 -0.350778
H3    H     H_    0.846113 0.742995 0.838973 0.145594
H4    H     H_    0.822120 0.827993 0.764264 0.157779
C7    C     C_3   0.227929 0.788331 0.654339 0.359589
C8    C     C_3   0.262462 0.659536 0.763093 -0.415225
C9    C     C_3   0.148576 0.691787 0.683797 0.016010
H5    H     H_    0.411437 0.641182 0.746756 0.144290
H6    H     H_    0.198900 0.596441 0.787077 0.192948
C10   C     C_3   0.119503 0.813027 0.809618 -0.030808
C11   C     C_3   0.198601 0.860655 0.728540 -0.010324
C12   C     C_3   0.263916 0.734572 0.831995 0.329942
H7    H     H_    0.408238 0.765781 0.828025 0.079672
H8    H     H_    0.340739 0.888946 0.747534 0.119576
C13   C     C_R   0.279293 0.815482 0.243947 -0.058898
C14   C     C_R   0.123589 0.817700 0.185867 -0.123988
C15   C     C_R   0.975734 0.754198 0.197435 -0.095685
H9    H     H_    0.856362 0.751918 0.153615 0.109979
C16   C     C_R   0.986277 0.689109 0.261907 -0.087168
H10   H     H_    0.878674 0.637449 0.265886 0.146128
C17   C     C_R   0.142324 0.685562 0.317671 -0.115304
C18   C     C_R   0.290379 0.746603 0.304415 -0.049146
C19   C     C_3   0.493579 0.724485 0.282801 0.567397
C20   C     C_3   0.489940 0.806962 0.225809 0.262260
H11   H     H_    0.522732 0.793417 0.158385 0.054115
C21   C     C_R   0.509942 0.321831 0.749159 0.027020
C22   C     C_R   0.647076 0.317430 0.685409 -0.156639
C23   C     C_R   0.778464 0.245899 0.690207 -0.172959
H12   H     H_    0.878599 0.237254 0.640050 0.170365
C24   C     C_R   0.770805 0.181149 0.755300 -0.196627
H13   H     H_    0.872468 0.126285 0.755410 0.122000
C25   C     C_R   0.624733 0.183592 0.815751 -0.065361
C26   C     C_R   0.500066 0.256970 0.812650 -0.055022
C27   C     C_3   0.287956 0.258814 0.816843 -0.505011
C28   C     C_3   0.295786 0.329269 0.745841 0.890043
H14   H     H_    0.241087 0.286944 0.878196 0.155833
H15   H     H_    0.220938 0.192867 0.801099 0.160867
C29   C     C_R   0.478848 0.265073 0.297184 -0.074365
C30   C     C_R   0.635756 0.323607 0.307206 -0.125072
C31   C     C_R   0.772679 0.321052 0.243203 -0.268905
H16   H     H_    0.880063 0.372698 0.241515 0.167241
C32   C     C_R   0.759352 0.258029 0.175738 0.515931
C33   C     C_R   0.622245 0.187877 0.176898 -0.208217
C34   C     C_R   0.478293 0.194702 0.237207 -0.150116
C35   C     C_3   0.266960 0.203860 0.222038 0.589314
C36   C     C_3   0.270344 0.286629 0.280582 0.279565
H17   H     H_    0.178042 0.279094 0.336880 0.037082
O11   O     O_R   0.771490 0.080820 0.910070 -0.537754
O12   O     O_R   0.441590 0.092730 0.083780 -0.528824
O13   O     O_R   0.271350 0.913900 0.084390 -0.549241
C37   C     C_R   0.611509 0.118582 0.108954 0.711993
O14   O     O_R   0.441780 0.091820 0.910670 -0.544771
O15   O     O_R   0.271540 0.912980 0.910040 -0.542908
C38   C     C_R   0.610599 0.113455 0.881913 0.692017
O16   O     O_R   0.771300 0.081740 0.084420 -0.516983
O17   O     O_3   0.604960 0.938700 0.997240 -0.392158
V3    V     V_3+5 0.330090 0.008230 0.997220 1.436353
O18   O     O_R   0.941820 0.901930 0.910640 -0.551202
C39   C     C_R   0.109730 0.879958 0.882204 0.720565
O19   O     O_R   0.941630 0.902840 0.083750 -0.548708
C40   C     C_R   0.111741 0.882581 0.114070 0.697999
V4    V     V_3+5 0.830090 0.986410 0.997190 1.421651
O20   O     O_3   0.105080 0.055990 0.997200 -0.342839
C41   C     C_3   0.446044 0.785733 0.636598 -0.868651
H18   H     H_    0.485252 0.733522 0.590621 0.226624
H19   H     H_    0.495169 0.851832 0.611707 0.201611
H20   H     H_    0.530709 0.773036 0.694561 0.181508
C42   C     C_3   0.511766 0.636055 0.231469 -0.857174
H21   H     H_    0.617666 0.643021 0.180643 0.176392
H22   H     H_    0.561230 0.581087 0.273455 0.217184
H23   H     H_    0.375015 0.616115 0.200181 0.189308
O21   O     O_3   0.634981 0.728984 0.348792 -0.523192
C43   C     C_3   0.578576 0.775991 0.422091 -0.086756
H24   H     H_    0.457191 0.741820 0.452141 0.116056
H25   H     H_    0.540285 0.847308 0.409303 0.151345
H26   H     H_    0.700076 0.776257 0.467663 0.125611
O22   O     O_3   0.603372 0.875304 0.263904 -0.548335
C44   C     C_3   0.586116 0.955846 0.219742 -0.170652
H27   H     H_    0.441303 0.984501 0.227101 0.126530
H28   H     H_    0.619965 0.944982 0.152775 0.174892
H29   H     H_    0.690902 0.004762 0.246680 0.137713
O23   O     O_3   0.242462 0.416595 0.773502 -0.575588
C45   C     C_3   0.042901 0.422344 0.784745 -0.267562
H30   H     H_    0.974349 0.357600 0.803066 0.152970
H31   H     H_    0.974814 0.448969 0.726715 0.178550
H32   H     H_    0.014704 0.470948 0.836354 0.123258
O24   O     O_3   0.210941 0.306717 0.665846 -0.538852
C46   C     C_3   0.250389 0.218151 0.635877 -0.322758
H33   H     H_    0.161181 0.166895 0.667461 0.124883
H34   H     H_    0.401888 0.198211 0.641309 0.147214
H35   H     H_    0.212433 0.215358 0.567855 0.163268
O25   O     O_3   0.873575 0.268520 0.106421 -0.514407
C47   C     C_3   0.783392 0.326107 0.047710 -0.250919
H36   H     H_    0.730286 0.389508 0.077297 0.120197
H37   H     H_    0.666798 0.289737 0.013712 0.106008
H38   H     H_    0.888932 0.345863 0.999609 0.149542
C48   C     C_3   0.156921 0.124209 0.260096 -0.785669
H39   H     H_    0.005369 0.143180 0.269311 0.196241
H40   H     H_    0.159409 0.065367 0.216561 0.216162
H41   H     H_    0.218610 0.103861 0.322051 0.161277
O26   O     O_3   0.205057 0.216041 0.136424 -0.492763
C49   C     C_3   0.296630 0.283082 0.087254 0.032997
H42   H     H_    0.421631 0.316062 0.117172 0.095108
H43   H     H_    0.194122 0.337499 0.071698 0.160529
H44   H     H_    0.340483 0.252279 0.026822 0.085386
O27   O     O_3   0.241723 0.366001 0.232802 -0.565203
C50   C     C_3   0.207196 0.442135 0.282549 -0.214740
H45   H     H_    0.342329 0.478410 0.292385 0.163406
H46   H     H_    0.138564 0.426765 0.343129 0.166922
H47   H     H_    0.111466 0.488126 0.246829 0.110068
C51   C     C_3   0.128657 0.816196 0.569949 -0.720819
H48   H     H_    0.972647 0.825290 0.576635 0.188274
H49   H     H_    0.189152 0.880237 0.545534 0.203991
H50   H     H_    0.150504 0.764425 0.520291 0.172987
C52   C     C_3   0.086974 0.947040 0.703339 -0.817460
H51   H     H_    0.940348 0.932253 0.679988 0.217214
H52   H     H_    0.077007 0.994215 0.757568 0.187502
H53   H     H_    0.164838 0.984048 0.653681 0.207688
O28   O     O_3   0.263726 0.700832 0.916008 -0.550067
C53   C     C_3   0.086482 0.666482 0.942582 -0.225878
H54   H     H_    0.011057 0.625381 0.893990 0.122155
H55   H     H_    0.995108 0.722131 0.965874 0.127524
H56   H     H_    0.113321 0.621239 0.996955 0.152665

loop_
_geom_bond_atom_site_label_1
_geom_bond_atom_site_label_2
_ccdc_geom_bond_type
C11   C52   S    
C45   H30   S    
C7    C41   S    
C19   C20   S    
O22   C44   S    
C8    H6    S    
C1    O6    A    
O21   C43   S    
C22   C23   A    
C27   C28   S    
O13   V3    S    
C19   C42   S    
C16   H10   S    
C13   C20   S    
C7    C11   S    
C10   C11   S    
C15   C16   A    
C8    H5    S    
C11   H8    S    
O5    C3    A    
C12   H7    S    
O19   V4    S    
C46   H33   S    
C31   C32   A    
C48   H39   S    
C44   H29   S    
C5    C6    S    
C29   C30   A    
C7    C51   S    
C5    H1    S    
C14   C15   A    
C25   C38   S    
O25   C47   S    
O1    C2    A    
O8    V2    S    
C21   C28   S    
O11   C38   A    
C47   H36   S    
C49   H43   S    
C48   H40   S    
C44   H28   S    
C52   H53   S    
C29   C36   S    
C37   O16   A    
O1    V2    S    
O7    V1    S    
C49   H44   S    
C51   H50   S    
C35   C48   S    
O13   C40   A    
C24   C25   A    
C19   O21   S    
C45   H31   S    
C12   O28   S    
O17   V4    S    
O9    C4    A    
C27   H14   S    
C25   C26   A    
C1    C22   S    
C28   O23   S    
C23   C24   A    
C13   C18   A    
O17   V3    S    
C20   O22   S    
O18   C39   A    
C43   H24   S    
O4    C2    A    
O19   C40   A    
V3    O20   S    
C6    C10   S    
C31   H16   S    
C36   O27   S    
C42   H23   S    
C26   C27   S    
C32   C33   A    
O12   C37   A    
C15   H9    S    
O2    C1    A    
C34   C35   S    
C14   C40   S    
C43   H25   S    
C35   O26   S    
O26   C49   S    
C48   H41   S    
C44   H27   S    
C13   C14   A    
C47   H37   S    
C8    C9    S    
C10   C39   S    
O3    C4    A    
C53   H55   S    
C21   C26   A    
C24   H13   S    
C6    H4    S    
C45   H32   S    
C41   H19   S    
O9    V2    S    
C50   H45   S    
C29   C34   A    
O12   V3    S    
C20   H11   S    
O2    V1    S    
O15   C39   A    
C49   H42   S    
C50   H46   S    
C51   H48   S    
O28   C53   S    
C33   C37   S    
C23   H12   S    
C18   C19   S    
C42   H21   S    
C21   C22   A    
O18   V4    S    
V4    O20   S    
C53   H56   S    
O5    V1    S    
O8    C3    A    
C27   H15   S    
O6    V2    S    
C41   H20   S    
O11   V4    S    
O24   C46   S    
C5    C9    S    
C36   H17   S    
C3    C17   S    
C10   C12   S    
O7    V2    S    
O4    V1    S    
C16   C17   A    
O3    V1    S    
V1    O10   S    
C43   H26   S    
O15   V3    S    
C30   C31   A    
C52   H51   S    
C46   H34   S    
C50   H47   S    
O23   C45   S    
C5    H2    S    
O16   V4    S    
C47   H38   S    
C42   H22   S    
C7    C9    S    
C4    C9    S    
C33   C34   A    
C8    C12   S    
C32   O25   S    
C53   H54   S    
C35   C36   S    
C17   C18   A    
C28   O24   S    
C6    H3    S    
C41   H18   S    
O14   V3    S    
C52   H52   S    
O14   C38   A    
C2    C30   S    
V2    O10   S    
O27   C50   S    
C51   H49   S    
C46   H35   S    
