data_mof_unit_57665.cif
_audit_creation_date              2013-03-05T15:49:56-0500
_audit_creation_method            fapswitch 2.2
_symmetry_space_group_name_H-M    P1
_symmetry_Int_Tables_number       1
_space_group_crystal_system       triclinic
_cell_length_a                    6.934753
_cell_length_b                    19.973015
_cell_length_c                    23.962402
_cell_angle_alpha                 94.250239
_cell_angle_beta                  90.901489
_cell_angle_gamma                 88.875052
_cell_volume                      3308.87770034

loop_
_atom_site_label
_atom_site_type_symbol
_atom_site_description
_atom_site_fract_x
_atom_site_fract_y
_atom_site_fract_z
_atom_type_partial_charge
O1    O     O_R   0.620100 0.812200 0.810870 -0.596575
O2    O     O_R   0.379900 0.187800 0.189130 -0.603429
O3    O     O_R   0.296960 0.671650 0.794750 -0.585853
O4    O     O_R   0.703040 0.328350 0.205250 -0.597799
O5    O     O_R   0.120160 0.687800 0.689130 -0.597459
O6    O     O_R   0.879840 0.312200 0.310870 -0.593339
C1    C     C_R   0.467771 0.648059 0.805171 0.946182
C2    C     C_R   0.532086 0.351476 0.194153 0.974928
O7    O     O_R   0.290810 0.810670 0.817290 -0.600253
O8    O     O_R   0.709190 0.189330 0.182710 -0.600638
O9    O     O_R   0.113980 0.827820 0.711840 -0.598253
O10   O     O_R   0.886020 0.172180 0.288160 -0.589618
C3    C     C_R   0.459395 0.831990 0.834131 0.929463
C4    C     C_R   0.540817 0.167581 0.166144 0.943155
O11   O     O_R   0.626290 0.672180 0.788160 -0.590370
O12   O     O_R   0.373710 0.327820 0.211840 -0.592081
O13   O     O_3   0.451520 0.755460 0.715370 -0.281092
O14   O     O_3   0.548480 0.244540 0.284630 -0.272064
V1    V     V_3+5 0.179200 0.748980 0.756420 1.156853
V2    V     V_3+5 0.820800 0.251020 0.243580 1.161219
O15   O     O_R   0.783880 0.828350 0.705250 -0.599881
O16   O     O_R   0.216120 0.171650 0.294750 -0.601100
C5    C     C_R   0.950480 0.851890 0.694095 0.968656
C6    C     C_R   0.048932 0.148354 0.306075 0.955996
O17   O     O_R   0.790030 0.689320 0.682700 -0.598539
O18   O     O_R   0.209970 0.310680 0.317300 -0.594433
C7    C     C_R   0.959199 0.668142 0.665744 0.957153
C8    C     C_R   0.040965 0.332806 0.333605 0.943388
V3    V     V_3+5 0.678400 0.751010 0.743570 1.156502
V4    V     V_3+5 0.321600 0.248990 0.256430 1.160726
O19   O     O_3   0.955950 0.744540 0.784620 -0.269956
O20   O     O_3   0.044050 0.255460 0.215380 -0.275988
C9    C     C_R   0.173235 0.430951 0.392273 -0.163341
C10   C     C_R   0.824413 0.571503 0.605655 -0.158282
C11   C     C_R   0.030790 0.382242 0.382878 -0.177715
C12   C     C_R   0.970163 0.618765 0.616457 -0.173382
C13   C     C_R   0.876454 0.381800 0.419894 -0.116710
C14   C     C_R   0.128826 0.617779 0.580752 -0.178166
C15   C     C_R   0.867087 0.427451 0.467107 0.174188
C16   C     C_R   0.139865 0.571785 0.533739 0.177119
C17   C     C_R   0.011261 0.475915 0.476979 0.037714
C18   C     C_R   0.996813 0.522980 0.523932 0.050947
C19   C     C_R   0.166775 0.478226 0.439220 0.002393
C20   C     C_R   0.839310 0.521479 0.560982 -0.010176
C21   C     C_R   0.713818 0.425286 0.504274 -0.297470
C22   C     C_R   0.291975 0.574457 0.496303 -0.322837
C23   C     C_R   0.699671 0.470755 0.551617 0.325719
C24   C     C_R   0.306767 0.529054 0.448862 0.341506
H1    H     H_    0.284183 0.432315 0.361374 0.178648
H2    H     H_    0.700990 0.573921 0.632779 0.171227
H3    H     H_    0.762290 0.345977 0.411893 0.129979
H4    H     H_    0.242397 0.653818 0.588874 0.128990
H5    H     H_    0.605777 0.386993 0.496949 0.173269
H6    H     H_    0.400700 0.612466 0.503939 0.168625
C25   C     C_R   0.943745 0.912879 0.662221 -0.162334
C26   C     C_R   0.044681 0.088629 0.339392 -0.138307
C27   C     C_R   0.780662 0.019724 0.653124 -0.185380
C28   C     C_R   0.086125 0.968226 0.339280 -0.168063
C29   C     C_R   0.821980 0.964902 0.683446 -0.208082
C30   C     C_R   0.074453 0.026083 0.310705 -0.217812
C31   C     C_R   0.029450 0.916797 0.608742 0.105357
C32   C     C_R   0.020992 0.093300 0.398723 0.134832
C33   C     C_R   0.962491 0.968496 0.573454 0.015185
C34   C     C_R   0.011663 0.032448 0.427837 0.014738
C35   C     C_R   0.846013 0.021533 0.598476 0.172203
C36   C     C_R   0.057826 0.970780 0.397115 0.161165
C37   C     C_R   0.999577 0.969637 0.514335 0.072678
C38   C     C_R   0.959235 0.029152 0.485719 0.078442
C39   C     C_R   0.842895 0.079054 0.513419 -0.224785
C40   C     C_R   0.046649 0.910767 0.481216 -0.220918
C41   C     C_R   0.787367 0.075359 0.568235 -0.218431
C42   C     C_R   0.072267 0.911151 0.423935 -0.206747
H7    H     H_    0.693871 0.114776 0.586872 0.140141
H8    H     H_    0.103398 0.863894 0.400258 0.142201
H9    H     H_    0.095272 0.022273 0.265830 0.117852
H10   H     H_    0.757517 0.962941 0.724220 0.126992
H11   H     H_    0.688511 0.059588 0.671643 0.128172
H12   H     H_    0.116478 0.920811 0.315772 0.126424
H13   H     H_    0.778197 0.119036 0.492119 0.176474
H14   H     H_    0.047802 0.862428 0.497966 0.179494
C43   C     C_R   0.481387 0.588377 0.837448 -0.190757
C44   C     C_R   0.518781 0.409683 0.159763 -0.158842
C45   C     C_R   0.479502 0.467347 0.833210 -0.159700
C46   C     C_R   0.549953 0.529487 0.159424 -0.161406
C47   C     C_R   0.496030 0.526313 0.806783 -0.164400
C48   C     C_R   0.525633 0.472915 0.188309 -0.200592
C49   C     C_R   0.465196 0.591764 0.896872 0.119137
C50   C     C_R   0.520506 0.402807 0.099972 0.155886
C51   C     C_R   0.490794 0.530486 0.924584 0.066053
C52   C     C_R   0.517138 0.462830 0.069418 0.016797
C53   C     C_R   0.470400 0.469186 0.891493 0.142872
C54   C     C_R   0.552637 0.524830 0.100963 0.148605
C55   C     C_R   0.523811 0.526589 0.983563 0.075589
C56   C     C_R   0.489019 0.465522 0.009571 0.075132
C57   C     C_R   0.420286 0.411158 0.974602 -0.231601
C58   C     C_R   0.603681 0.580186 0.016432 -0.198410
C59   C     C_R   0.428825 0.410778 0.916808 -0.214105
C60   C     C_R   0.603372 0.581465 0.074191 -0.215097
H15   H     H_    0.392343 0.365292 0.891648 0.137817
H16   H     H_    0.651800 0.626328 0.098193 0.133137
H17   H     H_    0.526686 0.477961 0.233679 0.153552
H18   H     H_    0.504716 0.523686 0.761538 0.167164
H19   H     H_    0.472196 0.420119 0.807949 0.145205
H20   H     H_    0.570682 0.577258 0.183105 0.137861
H21   H     H_    0.359573 0.367848 0.990370 0.174612
H22   H     H_    0.673385 0.620626 0.997894 0.130488
C61   C     C_R   0.384087 0.070458 0.112850 -0.226296
C62   C     C_R   0.612141 0.930686 0.886308 -0.225897
C63   C     C_R   0.530238 0.118176 0.116890 -0.141582
C64   C     C_R   0.470204 0.881430 0.883331 -0.138585
C65   C     C_R   0.666870 0.117993 0.074269 -0.248260
C66   C     C_R   0.341269 0.878976 0.927666 -0.259414
C67   C     C_R   0.656216 0.071911 0.026591 0.099446
C68   C     C_R   0.352552 0.925163 0.975252 0.103441
C69   C     C_R   0.507436 0.023772 0.023311 -0.021533
C70   C     C_R   0.493176 0.976094 0.976745 -0.020203
C71   C     C_R   0.374723 0.022391 0.067208 0.140736
C72   C     C_R   0.624328 0.977944 0.932504 0.146951
C73   C     C_R   0.791129 0.071734 0.982490 0.204435
C74   C     C_R   0.230541 0.921256 0.021943 0.213505
C75   C     C_R   0.771057 0.025353 0.935790 -0.295531
C76   C     C_R   0.238483 0.971477 0.066136 -0.308081
H23   H     H_    0.280701 0.069474 0.146266 0.128312
H24   H     H_    0.713395 0.932283 0.852411 0.125624
H25   H     H_    0.778476 0.155077 0.078525 0.152745
H26   H     H_    0.234189 0.840229 0.924607 0.148115
H27   H     H_    0.873029 0.025517 0.901946 0.140423
H28   H     H_    0.141591 0.969443 0.101044 0.141711
C77   C     C_3   0.561802 0.332701 0.072450 -0.420953
C78   C     C_3   0.383730 0.288084 0.070488 -0.915727
H29   H     H_    0.359756 0.268889 0.111734 0.266728
H30   H     H_    0.250172 0.315834 0.059331 0.256229
H31   H     H_    0.405721 0.244414 0.039636 0.254282
H32   H     H_    0.625414 0.334256 0.030516 0.199397
H33   H     H_    0.678657 0.307675 0.095899 0.191396
C79   C     C_3   0.380299 0.656115 0.926879 -0.374779
C80   C     C_3   0.184242 0.643687 0.952157 -0.844013
H34   H     H_    0.084502 0.621394 0.919436 0.260961
H35   H     H_    0.198840 0.609534 0.986489 0.260329
H36   H     H_    0.120246 0.692025 0.969618 0.234052
H37   H     H_    0.476728 0.680296 0.958863 0.173078
H38   H     H_    0.355939 0.696305 0.898037 0.176408
C81   C     C_3   0.959876 0.119075 0.983875 -0.350985
C82   C     C_3   0.896618 0.188761 0.967555 -0.906777
H39   H     H_    0.838279 0.185509 0.924018 0.264354
H40   H     H_    0.784106 0.211168 0.995982 0.256965
H41   H     H_    0.022669 0.222366 0.969875 0.253434
H42   H     H_    0.031531 0.122299 0.025734 0.189934
H43   H     H_    0.072768 0.099419 0.954177 0.193493
C83   C     C_3   0.101400 0.862036 0.028454 -0.394084
C84   C     C_3   0.905571 0.871620 0.000369 -0.869380
H44   H     H_    0.922182 0.878626 0.955225 0.264296
H45   H     H_    0.816347 0.826768 0.004603 0.244541
H46   H     H_    0.830441 0.916102 0.021033 0.263448
H47   H     H_    0.171490 0.814436 0.011737 0.182556
H48   H     H_    0.077889 0.855702 0.073554 0.193447
N1    N     N_R   0.547113 0.462760 0.590454 0.232797
O21   O     O_R   0.379654 0.441786 0.572104 -0.414862
O22   O     O_R   0.586180 0.462318 0.643720 -0.420461
N2    N     N_R   0.460841 0.537533 0.410562 0.229880
O23   O     O_R   0.515413 0.597669 0.401396 -0.400516
O24   O     O_R   0.566103 0.486548 0.391607 -0.443945
C85   C     C_3   0.039971 0.162255 0.429615 -0.403580
C86   C     C_3   0.857998 0.205989 0.423611 -0.906791
H49   H     H_    0.867092 0.234013 0.386008 0.259473
H50   H     H_    0.725056 0.175886 0.418923 0.256874
H51   H     H_    0.844572 0.242550 0.460632 0.250859
H52   H     H_    0.078439 0.158668 0.474360 0.206063
H53   H     H_    0.164658 0.188368 0.413050 0.186223
C87   C     C_3   0.211969 0.875297 0.595846 -0.342318
C88   C     C_3   0.174593 0.800418 0.582103 -0.931733
H54   H     H_    0.219558 0.771576 0.617891 0.278309
H55   H     H_    0.020001 0.790756 0.572313 0.243263
H56   H     H_    0.261840 0.781196 0.545663 0.253968
H57   H     H_    0.293516 0.895580 0.561590 0.192520
H58   H     H_    0.312104 0.881123 0.632512 0.207059

loop_
_geom_bond_atom_site_label_1
_geom_bond_atom_site_label_2
_geom_bond_distance
_ccdc_geom_bond_type
C4    C63   1.483103 S    
V4    O20   2.153695 S    
C88   H54   1.105558 S    
C33   C35   1.421805 A    
C55   C56   1.436387 A    
O11   V3    2.008747 S    
C25   C29   1.397157 A    
C73   C81   1.517282 S    
C17   C18   1.415147 A    
C85   C86   1.531609 S    
C61   H23   1.084694 S    
C6    C26   1.484737 S    
O4    C2    1.294721 A    
V1    O19   1.705447 S    
C66   C68   1.414717 A    
C54   C60   1.394689 A    
C86   H50   1.110204 S    
C15   C17   1.410374 A    
C87   H58   1.111974 S    
C16   C22   1.399759 A    
C88   H55   1.111342 S    
O9    V1    2.007853 S    
N1    O21   1.301217 A    
C45   H19   1.084001 S    
C2    C44   1.474655 S    
C34   C38   1.445877 A    
O16   C6    1.297760 A    
C86   H49   1.098683 S    
C11   C13   1.401333 A    
C46   C48   1.382493 A    
C75   H27   1.084568 S    
O3    C1    1.293715 A    
C63   C65   1.403777 A    
V2    O20   1.705447 S    
C13   H3    1.082867 S    
C27   C29   1.381323 A    
C14   H4    1.083027 S    
C87   C88   1.533570 S    
C28   C30   1.386593 A    
C69   C70   1.415758 A    
C77   H33   1.110693 S    
O13   V3    1.705851 S    
C31   C33   1.447451 A    
C84   H46   1.109374 S    
C39   C41   1.382193 A    
O7    C3    1.300077 A    
C32   C34   1.448545 A    
C57   H21   1.065870 S    
C9    C11   1.403997 A    
O5    C7    1.295784 A    
O7    V1    1.995052 S    
C36   C42   1.395770 A    
C8    C11   1.483587 S    
O8    V2    1.995053 S    
C38   C39   1.404309 A    
C69   C71   1.410683 A    
C58   C60   1.382433 A    
C65   H25   1.080212 S    
C79   H38   1.106231 S    
C84   H44   1.109068 S    
O3    V1    2.008276 S    
O14   V4    1.705851 S    
C51   C53   1.416752 A    
C19   C24   1.422437 A    
C66   H26   1.080817 S    
C20   C23   1.418604 A    
C15   C21   1.400729 A    
C73   C75   1.405795 A    
C21   H5    1.084241 S    
N1    O22   1.301282 A    
C83   H48   1.112246 S    
C16   C18   1.409339 A    
C17   C19   1.422224 A    
C22   H6    1.084346 S    
C18   C20   1.420495 A    
C50   C77   1.526728 S    
C62   H24   1.084659 S    
C82   H41   1.110710 S    
C85   H53   1.111946 S    
C59   H15   1.084373 S    
C74   C76   1.404800 A    
C52   C56   1.449050 A    
C33   C37   1.445701 A    
C87   H57   1.109328 S    
C21   C23   1.403093 A    
O17   V3    1.994145 S    
C81   H42   1.110476 S    
C13   C15   1.400923 A    
C88   H56   1.110738 S    
C22   C24   1.404442 A    
C10   H2    1.081012 S    
C40   H14   1.072531 S    
C37   C38   1.436379 A    
C9    C19   1.414772 A    
C62   C72   1.403125 A    
C10   C20   1.412710 A    
C82   H40   1.109453 S    
O8    C4    1.299764 A    
C41   H7    1.084718 S    
C79   C80   1.529211 S    
C1    O11   1.292555 A    
C44   C48   1.392275 A    
O15   V3    2.010002 S    
C51   C55   1.435719 A    
C26   C30   1.393843 A    
C72   C75   1.400885 A    
N2    O24   1.299548 A    
C78   H30   1.109283 S    
C71   C76   1.400165 A    
C3    C64   1.482639 S    
C27   H11   1.084341 S    
C24   N2    1.439986 S    
C52   C54   1.425748 A    
C32   C85   1.521523 S    
O10   V2    2.007854 S    
O1    V3    1.991680 S    
C65   C67   1.414917 A    
C67   C73   1.422151 A    
C53   C59   1.391271 A    
C80   H35   1.109149 S    
C43   C49   1.426622 A    
C70   C72   1.410630 A    
C42   H8    1.084389 S    
C45   C47   1.385384 A    
C50   C52   1.449918 A    
O18   V4    1.994144 S    
C55   C58   1.399165 A    
C60   H16   1.084346 S    
C83   H47   1.110001 S    
O15   C5    1.294981 A    
C46   H20   1.084236 S    
C26   C32   1.429704 A    
C39   H13   1.067082 S    
C78   H31   1.110562 S    
O1    C3    1.295571 A    
O12   V4    2.008747 S    
O6    V2    1.991871 S    
C28   C36   1.399794 A    
C77   C78   1.535071 S    
C23   N1    1.438913 S    
C68   C74   1.420957 A    
C58   H22   1.076390 S    
O16   V4    2.010001 S    
C1    C43   1.469002 S    
O18   C8    1.300016 A    
C49   C79   1.536958 S    
C86   H51   1.110299 S    
C27   C35   1.395655 A    
C82   H39   1.110854 S    
C68   C70   1.421103 A    
C57   C59   1.386538 A    
C5    C25   1.484556 S    
O5    V1    1.991872 S    
C7    C12   1.483404 S    
O17   C7    1.300119 A    
C45   C53   1.396737 A    
C80   H34   1.111170 S    
O10   C6    1.296536 A    
C30   H9    1.084084 S    
C74   C83   1.516154 S    
O2    V4    1.991679 S    
C37   C40   1.404863 A    
N2    O23   1.301420 A    
C12   C14   1.403316 A    
C85   H52   1.107954 S    
V3    O19   2.153697 S    
C35   C41   1.391156 A    
C14   C16   1.401939 A    
C61   C63   1.402185 A    
C44   C50   1.429352 A    
C80   H36   1.110528 S    
C25   C31   1.429062 A    
O9    C5    1.300481 A    
O13   V1    2.153503 S    
C79   H37   1.099780 S    
C62   C64   1.402564 A    
C78   H29   1.102403 S    
O14   V2    2.153504 S    
C84   H45   1.110345 S    
C76   H28   1.084736 S    
C56   C57   1.407548 A    
O2    C4    1.296309 A    
C64   C66   1.403508 A    
C28   H12   1.084127 S    
C77   H32   1.106513 S    
O4    V2    2.008274 S    
O6    C8    1.296280 A    
C81   H43   1.112431 S    
C10   C12   1.404521 A    
C2    O12   1.293766 A    
C49   C51   1.441741 A    
C83   C84   1.521164 S    
C40   C42   1.387418 A    
C31   C87   1.522415 S    
C46   C54   1.397470 A    
C48   H17   1.084288 S    
C9    H1    1.078264 S    
C29   H10   1.084474 S    
C61   C71   1.402354 A    
C43   C47   1.396166 A    
C47   H18   1.084124 S    
C81   C82   1.527708 S    
C34   C36   1.420933 A    
C67   C69   1.421394 A    
