data_mof_unit_60892.cif
_audit_creation_date              2012-10-26T19:31:51-0400
_audit_creation_method            fapswitch 2.2
_symmetry_space_group_name_H-M    P1
_symmetry_Int_Tables_number       1
_space_group_crystal_system       triclinic
_cell_length_a                    19.345963
_cell_length_b                    18.02458
_cell_length_c                    23.530866
_cell_angle_alpha                 89.940325
_cell_angle_beta                  90.218567
_cell_angle_gamma                 90.014934
_cell_volume                      8205.2157976

loop_
_atom_site_label
_atom_site_type_symbol
_atom_type_description
_atom_site_fract_x
_atom_site_fract_y
_atom_site_fract_z
_atom_type_partial_charge
C1    C     C_R   0.367119 0.499999 0.499930 0.570087
C2    C     C_R   0.476513 0.560077 0.704767 0.213195
C3    C     C_R   0.477727 0.555165 0.235604 -0.050808
C4    C     C_R   0.478890 0.556229 0.764006 -0.054737
C5    C     C_R   0.504542 0.492454 0.208663 0.199976
C6    C     C_R   0.504126 0.492860 0.791355 0.200911
C7    C     C_R   0.254585 0.567213 0.499618 -0.080524
C8    C     C_R   0.745468 0.432870 0.500316 -0.095187
C9    C     C_R   0.745464 0.567218 0.500132 -0.094471
C10   C     C_R   0.254502 0.432864 0.499848 -0.094809
C11   C     C_R   0.182499 0.567665 0.499585 0.214243
C12   C     C_R   0.632883 0.500009 0.500064 0.552607
C13   C     C_R   0.817555 0.432474 0.500318 0.212847
C14   C     C_R   0.817552 0.567661 0.500139 0.212497
C15   C     C_R   0.182414 0.432478 0.499809 0.212846
C16   C     C_R   0.145741 0.500089 0.499712 0.043388
C17   C     C_R   0.854270 0.500078 0.500195 0.044561
C18   C     C_R   0.291088 0.500020 0.499801 -0.060484
C19   C     C_R   0.708919 0.500032 0.500171 -0.064908
C20   C     C_R   0.499265 0.500047 0.390631 0.584670
C21   C     C_R   0.499346 0.500018 0.609357 0.583549
C22   C     C_R   0.930114 0.500095 0.500068 0.400063
C23   C     C_R   0.529073 0.432718 0.241086 0.289888
C24   C     C_R   0.069897 0.500126 0.499811 0.399977
C25   C     C_R   0.544398 0.278487 0.534622 0.062081
C26   C     C_R   0.452708 0.721634 0.468175 0.093398
C27   C     C_R   0.455589 0.278485 0.465440 0.061462
C28   C     C_R   0.546946 0.721456 0.532273 0.084765
C29   C     C_R   0.545278 0.200390 0.535290 -0.115494
C30   C     C_R   0.451866 0.799716 0.467583 -0.104157
C31   C     C_R   0.454703 0.200389 0.464882 -0.116489
C32   C     C_R   0.547789 0.799557 0.532998 -0.108026
C33   C     C_R   0.499987 0.159752 0.500114 0.021075
C34   C     C_R   0.527215 0.432331 0.759326 0.291223
C35   C     C_R   0.499885 0.840276 0.500262 0.018293
C36   C     C_R   0.499908 0.923862 0.500257 0.358367
C37   C     C_R   0.499964 0.076163 0.500173 0.356610
C38   C     C_R   0.563100 0.513522 0.880634 0.444631
C39   C     C_R   0.448237 0.465055 0.119367 0.440715
C40   C     C_R   0.447885 0.465573 0.880393 0.442846
C41   C     C_R   0.563445 0.513022 0.119668 0.446322
C42   C     C_R   0.447094 0.464012 0.939982 0.033773
C43   C     C_R   0.564951 0.512680 0.060064 0.033725
C44   C     C_R   0.506061 0.488193 0.970029 -0.022767
C45   C     C_R   0.526770 0.436242 0.300251 -0.139803
C46   C     C_R   0.506155 0.488046 0.030002 -0.022836
C47   C     C_R   0.564765 0.512966 0.940244 0.034185
C48   C     C_R   0.447282 0.463725 0.059773 0.034014
C49   C     C_R   0.388863 0.439388 0.970096 -0.096577
C50   C     C_R   0.623373 0.536774 0.029942 -0.096185
C51   C     C_R   0.388956 0.439245 0.029386 -0.096707
C52   C     C_R   0.623281 0.536915 0.970639 -0.096328
C53   C     C_R   0.525056 0.435682 0.700141 -0.138287
C54   C     C_R   0.500246 0.499243 0.327900 -0.025967
C55   C     C_R   0.500104 0.499300 0.672083 -0.027700
C56   C     C_R   0.475195 0.559148 0.294804 0.218069
Cl1   Cl    Cl    0.562559 0.352893 0.208281 -0.464161
Cl2   Cl    Cl    0.558871 0.351785 0.792658 -0.468725
Cl3   Cl    Cl    0.437065 0.638754 0.324624 -0.555461
Cl4   Cl    Cl    0.440662 0.640854 0.674325 -0.513897
Cl5   Cl    Cl    0.140303 0.654272 0.496921 -0.444421
Cl6   Cl    Cl    0.859810 0.345897 0.502942 -0.452784
Cl7   Cl    Cl    0.859772 0.654269 0.497559 -0.454167
Cl8   Cl    Cl    0.140134 0.345903 0.502403 -0.452348
Cu1   Cu    Cu3+1 0.500000 0.573360 0.500000 1.052959
Cu2   Cu    Cu3+1 0.500000 0.426640 0.500000 0.978151
H1    H     H_    0.342955 0.420434 0.947979 0.186558
H2    H     H_    0.543521 0.388515 0.676063 0.166907
H3    H     H_    0.458199 0.600760 0.210174 0.175462
H4    H     H_    0.460526 0.602476 0.789138 0.174462
H5    H     H_    0.281981 0.619643 0.499205 0.183009
H6    H     H_    0.718107 0.380420 0.500722 0.177090
H7    H     H_    0.718097 0.619652 0.499763 0.175820
H8    H     H_    0.281837 0.380412 0.500247 0.177405
H9    H     H_    0.579438 0.308827 0.561984 0.135632
H10   H     H_    0.415160 0.691434 0.443133 0.177889
H11   H     H_    0.420523 0.308820 0.438066 0.140759
H12   H     H_    0.669227 0.555872 0.052063 0.186519
H13   H     H_    0.584012 0.691087 0.557771 0.143738
H14   H     H_    0.581199 0.172175 0.563295 0.152528
H15   H     H_    0.413653 0.827978 0.441744 0.159849
H16   H     H_    0.418764 0.172172 0.436926 0.151798
H17   H     H_    0.585823 0.827711 0.559052 0.152047
H18   H     H_    0.343114 0.420192 0.051289 0.186294
H19   H     H_    0.669070 0.556110 0.948732 0.186196
H20   H     H_    0.546314 0.389692 0.324647 0.176273
N1    N     N_R   0.505228 0.490196 0.852182 -0.380551
N2    N     N_R   0.545126 0.962890 0.533142 -0.193154
N3    N     N_R   0.545133 0.037090 0.533119 -0.194033
N4    N     N_R   0.454724 0.962938 0.467332 -0.192037
N5    N     N_R   0.505642 0.489610 0.147850 -0.380747
N6    N     N_R   0.034090 0.460797 0.460378 -0.125447
N7    N     N_R   0.965921 0.539430 0.539497 -0.125989
N8    N     N_R   0.965340 0.460785 0.460504 -0.124295
N9    N     N_R   0.034673 0.539443 0.539372 -0.124276
N10   N     N_R   0.500000 0.316380 0.500000 -0.226567
N11   N     N_R   0.500000 0.683620 0.500000 -0.224641
N12   N     N_R   0.454769 0.037132 0.467274 -0.193709
O1    O     O_R   0.400150 0.561970 0.500010 -0.494745
O2    O     O_2   0.392310 0.442240 0.148698 -0.445824
O3    O     O_2   0.391871 0.442893 0.850797 -0.442130
O4    O     O_2   0.619036 0.536798 0.149290 -0.440234
O5    O     O_R   0.599850 0.438030 0.499990 -0.508667
O6    O     O_R   0.599850 0.561970 0.499990 -0.513683
O7    O     O_R   0.400150 0.438030 0.500010 -0.506097
O8    O     O_R   0.499980 0.561970 0.417880 -0.443614
O9    O     O_R   0.500020 0.438030 0.582120 -0.514062
O10   O     O_R   0.500020 0.561970 0.582120 -0.443451
O11   O     O_R   0.499980 0.438030 0.417880 -0.516613
O12   O     O_2   0.618634 0.537342 0.851271 -0.444428

loop_
_geom_bond_atom_site_label_1
_geom_bond_atom_site_label_2
_ccdc_geom_bond_type
C28   N11   A    
C8    C13   A    
C23   C45   A    
C22   N8    A    
C35   C36   S    
Cu2   O9    S    
C1    O1    A    
C4    H4    S    
C36   N2    A    
C7    C11   A    
C1    C18   S    
C31   H16   S    
C9    H7    S    
C30   C35   A    
C40   N1    A    
C52   H19   S    
C3    H3    S    
C12   O6    A    
C2    C55   A    
C7    H5    S    
C2    Cl4   S    
C15   C16   A    
C29   C33   A    
C41   O4    S    
C3    C56   A    
C53   H2    S    
C28   H13   S    
C40   O3    S    
C9    C19   A    
C48   C51   A    
C13   Cl6   S    
C49   C51   A    
C50   C52   A    
C15   Cl8   S    
C31   C33   A    
C38   O12   S    
Cu1   O10   S    
C44   C47   A    
C40   C42   A    
N7    N9    A    
C41   C43   A    
C14   C17   A    
C27   N10   A    
C42   C44   A    
C24   N6    A    
C39   N5    A    
C37   N12   A    
C44   C46   A    
C20   O8    A    
C53   C55   A    
C25   C29   A    
C46   C48   A    
C8    H6    S    
C8    C19   A    
C27   C31   A    
C32   C35   A    
C28   C32   A    
Cu1   O1    S    
C12   O5    A    
C20   C54   S    
C24   N9    A    
C21   C55   S    
C26   N11   A    
C27   H11   S    
C33   C37   S    
C6    N1    S    
C6    C34   A    
C25   H9    S    
C2    C4    A    
C9    C14   A    
C11   Cl5   S    
C11   C16   A    
C26   H10   S    
C5    C23   A    
C7    C18   A    
N6    N8    A    
C43   C50   A    
C5    N5    S    
C38   C47   A    
C21   O9    A    
C25   N10   A    
C4    C6    A    
C41   N5    A    
C45   C54   A    
C26   C30   A    
C22   N7    A    
Cu2   O7    S    
Cu1   O8    S    
C50   H12   S    
Cu2   N10   S    
C36   N4    A    
C23   Cl1   S    
C32   H17   S    
C49   H1    S    
Cu2   O5    S    
C3    C5    A    
C54   C56   A    
C47   C52   A    
C37   N3    A    
C17   C22   S    
C56   Cl3   S    
C13   C17   A    
C38   N1    A    
C10   C15   A    
C30   H15   S    
C45   H20   S    
Cu1   N11   S    
C10   H8    S    
C39   O2    S    
C29   H14   S    
C10   C18   A    
C14   Cl7   S    
C12   C19   S    
Cu2   O11   S    
C43   C46   A    
C21   O10   A    
C42   C49   A    
C20   O11   A    
N2    N3    A    
C34   C53   A    
C16   C24   S    
Cu1   Cu2   S    
C34   Cl2   S    
Cu1   O6    S    
C51   H18   S    
N4    N12   A    
C1    O7    A    
C39   C48   A    
