data_mof_unit_43916.cif
_audit_creation_date              2012-12-10T18:35:46-0500
_audit_creation_method            fapswitch 2.2
_symmetry_space_group_name_H-M    P1
_symmetry_Int_Tables_number       1
_space_group_crystal_system       triclinic
_cell_length_a                    13.413661
_cell_length_b                    13.84462
_cell_length_c                    15.141054
_cell_angle_alpha                 89.747569
_cell_angle_beta                  90.520328
_cell_angle_gamma                 72.236039
_cell_volume                      2677.55139846

loop_
_atom_site_label
_atom_site_type_symbol
_atom_type_description
_atom_site_fract_x
_atom_site_fract_y
_atom_site_fract_z
_atom_type_partial_charge
C1    C     C_R   0.500614 0.499638 0.669897 0.783117
C2    C     C_R   0.978605 0.455941 0.500316 0.084987
C3    C     C_R   0.873639 0.475199 0.471901 0.031155
C4    C     C_R   0.030667 0.528551 0.480220 0.011676
C5    C     C_R   0.978982 0.616373 0.428746 0.080412
C6    C     C_R   0.878949 0.628827 0.392117 0.396851
C7    C     C_R   0.829200 0.555526 0.412382 -0.338121
C8    C     C_R   0.133494 0.516097 0.509429 -0.213824
C9    C     C_R   0.132587 0.674358 0.441487 -0.231136
C10   C     C_R   0.815239 0.412264 0.502522 -0.073336
C11   C     C_R   0.448995 0.445114 0.904470 -0.162184
C12   C     C_R   0.700374 0.445647 0.498077 0.778657
C13   C     C_R   0.446969 0.445515 0.812660 -0.185926
C14   C     C_R   0.503445 0.498365 0.765844 -0.020210
C15   C     C_R   0.563579 0.549249 0.811062 -0.180925
C16   C     C_R   0.568265 0.546327 0.902821 -0.165452
C17   C     C_R   0.510210 0.495011 0.950559 0.101332
C18   C     C_R   0.520175 0.579709 0.094322 -0.164013
C19   C     C_R   0.520063 0.579987 0.186070 -0.199792
C20   C     C_R   0.507758 0.497136 0.233155 -0.038338
C21   C     C_R   0.501552 0.411381 0.187175 -0.177357
C22   C     C_R   0.504853 0.409738 0.095453 -0.168530
C23   C     C_R   0.502435 0.499309 0.329758 0.776666
C24   C     C_R   0.512189 0.494661 0.047976 0.108536
C25   C     C_R   0.418770 0.919459 0.463947 0.185115
C26   C     C_R   0.423356 0.815260 0.456361 0.503061
C27   C     C_R   0.578198 0.766076 0.543691 -0.170189
C28   C     C_R   0.584503 0.866480 0.542720 0.294517
C29   C     C_R   0.502429 0.944989 0.504153 -0.110137
C30   C     C_R   0.426789 0.129032 0.549890 -0.228729
C31   C     C_R   0.426741 0.230744 0.547045 0.063489
C32   C     C_R   0.575742 0.186752 0.456017 0.054535
C33   C     C_R   0.579144 0.083942 0.458015 -0.245892
C34   C     C_R   0.299632 0.554273 0.498645 0.804696
C35   C     C_R   0.503561 0.053661 0.504890 0.271775
C36   C     C_R   0.030003 0.689868 0.412612 -0.169567
C37   C     C_R   0.185880 0.585157 0.486562 -0.044190
C38   C     C_R   0.865533 0.322824 0.549167 -0.188248
C39   C     C_R   0.971004 0.298678 0.570333 -0.164017
C40   C     C_R   0.026879 0.364715 0.547928 -0.159027
Cu1   Cu    Cu3+1 0.500000 0.403570 0.500010 0.944391
Cu2   Cu    Cu3+1 0.500000 0.596430 0.499990 0.960622
H1    H     H_    0.171749 0.729497 0.424666 0.193716
H2    H     H_    0.399542 0.406528 0.778200 0.134122
H3    H     H_    0.608670 0.589311 0.775318 0.142330
H4    H     H_    0.618140 0.583433 0.936100 0.127629
H5    H     H_    0.524991 0.646835 0.059982 0.124540
H6    H     H_    0.529224 0.645244 0.219877 0.137705
H7    H     H_    0.494083 0.345430 0.221927 0.154968
H8    H     H_    0.501821 0.341791 0.061922 0.126615
H9    H     H_    0.636896 0.707432 0.579272 0.174086
H10   H     H_    0.367651 0.109351 0.587718 0.123543
H11   H     H_    0.367895 0.287319 0.583138 0.111921
H12   H     H_    0.634182 0.208846 0.419299 0.121820
H13   H     H_    0.639608 0.028748 0.422193 0.122104
H14   H     H_    0.991996 0.758451 0.375441 0.182381
H15   H     H_    0.176896 0.451550 0.548311 0.129886
H16   H     H_    0.822270 0.273391 0.572498 0.152532
H17   H     H_    0.107773 0.340865 0.568406 0.113767
H18   H     H_    0.009049 0.229855 0.607145 0.136432
H19   H     H_    0.756423 0.558783 0.379835 0.152575
H20   H     H_    0.401382 0.406979 0.939119 0.126388
N1    N     N_R   0.500000 0.741310 0.499980 -0.234144
N2    N     N_R   0.500060 0.258650 0.499980 -0.167543
O1    O     O_R   0.499990 0.418570 0.628550 -0.583121
O2    O     O_R   0.499990 0.581440 0.628540 -0.575656
O3    O     O_R   0.650980 0.378820 0.499990 -0.587410
O4    O     O_R   0.650980 0.541690 0.499970 -0.593726
O5    O     O_R   0.500010 0.418560 0.371460 -0.583422
O6    O     O_R   0.500010 0.581430 0.371450 -0.566605
O7    O     O_R   0.349020 0.458310 0.500030 -0.594578
O8    O     O_R   0.349020 0.621180 0.500010 -0.524368
O9    O     O_3   0.337413 0.996359 0.426570 -0.579192
C41   C     C_3   0.244104 0.005922 0.473169 0.074661
H21   H     H_    0.211840 0.943246 0.456406 0.179759
H22   H     H_    0.256425 0.006649 0.546073 0.123863
C42   C     C_3   0.162969 0.105163 0.446445 -0.788921
H23   H     H_    0.087877 0.111633 0.479753 0.199035
H24   H     H_    0.190368 0.170191 0.465818 0.248823
H25   H     H_    0.149685 0.107430 0.373851 0.254611
O10   O     O_3   0.347888 0.787560 0.408839 -0.573580
C43   C     C_3   0.355568 0.808142 0.318012 0.073874
H26   H     H_    0.438159 0.781671 0.295603 0.120247
H27   H     H_    0.323088 0.890489 0.303505 0.186692
C44   C     C_3   0.291720 0.754755 0.264447 -0.794713
H28   H     H_    0.304801 0.762928 0.192854 0.207452
H29   H     H_    0.314940 0.672913 0.281849 0.260236
H30   H     H_    0.207088 0.789116 0.278022 0.230738
O11   O     O_3   0.837622 0.709893 0.333230 -0.592992
C45   C     C_3   0.728516 0.734177 0.318196 0.054184
H31   H     H_    0.685421 0.738664 0.381215 0.138108
H32   H     H_    0.711421 0.677445 0.273610 0.154941
C46   C     C_3   0.688998 0.837162 0.272742 -0.813771
H33   H     H_    0.726266 0.834289 0.207209 0.257226
H34   H     H_    0.602750 0.858486 0.263423 0.193906
H35   H     H_    0.708105 0.895622 0.313552 0.237818
O12   O     O_3   0.664482 0.890430 0.587154 -0.561472
C47   C     C_3   0.761246 0.840865 0.547117 0.074503
H36   H     H_    0.757323 0.854035 0.474389 0.155530
H37   H     H_    0.785609 0.757945 0.561102 0.142532
C48   C     C_3   0.844885 0.883033 0.584510 -0.778338
H38   H     H_    0.852356 0.870179 0.657053 0.251837
H39   H     H_    0.921377 0.844447 0.553614 0.204156
H40   H     H_    0.823689 0.965709 0.570492 0.243306

loop_
_geom_bond_atom_site_label_1
_geom_bond_atom_site_label_2
_ccdc_geom_bond_type
C28   O12   S    
C33   H13   S    
C46   H33   S    
C34   C37   S    
Cu1   Cu2   S    
C23   O5    A    
C19   C20   A    
C4    C8    A    
C11   H20   S    
C18   H5    S    
C21   H7    S    
O12   C47   S    
Cu1   O3    S    
C42   H23   S    
C12   O4    A    
C48   H38   S    
C41   H22   S    
C30   C35   A    
C43   C44   S    
C18   C24   A    
C28   C29   A    
C3    C7    A    
C30   C31   A    
C42   H25   S    
C15   C16   A    
C5    C36   A    
Cu2   O6    S    
C18   C19   A    
O9    C41   S    
C7    H19   S    
C38   H16   S    
C16   C17   A    
C41   C42   S    
C9    C36   A    
C1    O1    A    
C22   H8    S    
C44   H29   S    
C48   H39   S    
C40   H17   S    
C21   C22   A    
Cu2   O4    S    
C23   O6    A    
C32   H12   S    
C27   H9    S    
O10   C43   S    
C42   H24   S    
C25   C29   A    
C38   C39   A    
C12   O3    A    
C9    H1    S    
C17   C24   S    
C41   H21   S    
C32   N2    A    
C16   H4    S    
C39   C40   A    
C19   H6    S    
Cu1   O1    S    
C25   C26   A    
C44   H28   S    
C2    C4    A    
C26   N1    A    
C36   H14   S    
C8    H15   S    
C45   H32   S    
C20   C23   S    
Cu2   O8    S    
C1    O2    A    
C31   H11   S    
C10   C12   S    
C46   H35   S    
C47   H36   S    
C26   O10   S    
C43   H27   S    
C22   C24   A    
C8    C37   A    
C15   H3    S    
C6    O11   S    
C34   O8    A    
C45   C46   S    
Cu1   O5    S    
C9    C37   A    
C44   H30   S    
C30   H10   S    
C11   C17   A    
C31   N2    A    
C4    C5    A    
C6    C7    A    
C48   H40   S    
C47   C48   S    
C29   C35   S    
C47   H37   S    
Cu1   O7    S    
C10   C38   A    
C32   C33   A    
C2    C3    A    
C3    C10   A    
C11   C13   A    
C45   H31   S    
C5    C6    A    
C39   H18   S    
C34   O7    A    
C33   C35   A    
C25   O9    S    
C2    C40   A    
C20   C21   A    
C46   H34   S    
C43   H26   S    
C27   C28   A    
Cu2   O2    S    
C14   C15   A    
C27   N1    A    
C1    C14   S    
Cu1   N2    S    
O11   C45   S    
C13   C14   A    
Cu2   N1    S    
C13   H2    S    
