data_mof_unit_53153.cif
_audit_creation_date              2013-03-05T16:17:50-0500
_audit_creation_method            fapswitch 2.2
_symmetry_space_group_name_H-M    P1
_symmetry_Int_Tables_number       1
_space_group_crystal_system       triclinic
_cell_length_a                    8.30379
_cell_length_b                    23.04613
_cell_length_c                    27.263657
_cell_angle_alpha                 96.570188
_cell_angle_beta                  91.90144
_cell_angle_gamma                 90.801329
_cell_volume                      5179.50138911

loop_
_atom_site_label
_atom_site_type_symbol
_atom_site_description
_atom_site_fract_x
_atom_site_fract_y
_atom_site_fract_z
_atom_type_partial_charge
P1    P     P_3+3 0.092730 0.547450 0.611370 0.526141
O1    O     O_2   0.919820 0.530450 0.618560 -0.374364
O2    O     O_3   0.151800 0.530410 0.558380 -0.389474
O3    O     O_3   0.654050 0.426350 0.586890 -0.405726
O4    O     O_2   0.827217 0.448469 0.671825 -0.380464
O5    O     O_3   0.092293 0.623678 0.622814 -0.514999
O6    O     O_3   0.611478 0.366009 0.671120 -0.536667
H1    H     H_    0.766435 0.328840 0.618764 0.175373
C1    C     C_3   0.629531 0.262932 0.649150 -0.926684
H2    H     H_    0.652879 0.228979 0.618006 0.239334
H3    H     H_    0.719308 0.259022 0.679659 0.274543
P2    P     P_3+3 0.606840 0.368620 0.459370 0.482963
P3    P     P_3+3 0.061514 0.320191 0.556332 0.470809
O7    O     O_2   0.782760 0.360070 0.473730 -0.346722
O8    O     O_3   0.056430 0.397060 0.562000 -0.349964
O9    O     O_2   0.902659 0.295104 0.530854 -0.411263
O10   O     O_3   0.603830 0.349388 0.395273 -0.543488
O11   O     O_3   0.053390 0.298981 0.615795 -0.527547
C2    C     C_3   0.170088 0.331547 0.646118 0.415422
H4    H     H_    0.138301 0.378520 0.651243 0.120047
H5    H     H_    0.291134 0.326364 0.630293 0.084579
C3    C     C_3   0.176930 0.309439 0.696505 -0.891708
H6    H     H_    0.060716 0.317446 0.714944 0.268698
H7    H     H_    0.201046 0.261880 0.692480 0.259454
C4    C     C_3   0.160225 0.348154 0.408343 0.398205
H8    H     H_    0.286694 0.363694 0.414718 0.089681
H9    H     H_    0.091340 0.355168 0.442684 0.112769
C5    C     C_3   0.160178 0.283074 0.390694 -0.924231
H10   H     H_    0.224046 0.275279 0.355451 0.269753
H11   H     H_    0.222401 0.258940 0.418445 0.219450
H12   H     H_    0.034333 0.266105 0.384799 0.272131
Ba1   Ba    Ba6+2 0.848110 0.472730 0.522970 1.588734
C6    C     C_3   0.026115 0.648284 0.582445 0.436976
H13   H     H_    0.907263 0.628090 0.571303 0.098822
H14   H     H_    0.107425 0.642533 0.550837 0.115209
C7    C     C_3   0.006540 0.713287 0.598330 -0.939901
H15   H     H_    0.929646 0.719644 0.631018 0.271965
H16   H     H_    0.949983 0.735337 0.568462 0.217549
H17   H     H_    0.126230 0.734205 0.608060 0.279043
C8    C     C_3   0.616206 0.398044 0.369344 0.400844
H18   H     H_    0.745466 0.408518 0.365783 0.075609
H19   H     H_    0.554556 0.436880 0.387015 0.133780
C9    C     C_3   0.538501 0.381531 0.318096 -0.927388
H20   H     H_    0.605357 0.345322 0.297993 0.265093
H21   H     H_    0.538404 0.419122 0.296214 0.213579
H22   H     H_    0.411528 0.367112 0.321446 0.273430
P4    P     P_3+3 0.096970 0.452510 0.388620 0.483759
O12   O     O_2   0.269870 0.469530 0.381410 -0.384089
O13   O     O_3   0.037890 0.469550 0.441610 -0.391852
O14   O     O_3   0.535640 0.573600 0.413100 -0.399380
O15   O     O_3   0.086683 0.376948 0.371700 -0.552192
P5    P     P_3+3 0.126549 0.678394 0.436832 0.471488
O16   O     O_3   0.647280 0.568810 0.525990 -0.380079
O17   O     O_3   0.133260 0.602900 0.438000 -0.363970
O18   O     O_2   0.284081 0.702743 0.463967 -0.347896
O19   O     O_3   0.154194 0.692226 0.375780 -0.542936
Ba2   Ba    Ba6+2 0.341700 0.527220 0.477020 1.578681
P6    P     P_3+3 0.651503 0.435181 0.652840 0.484978
C10   C     C_3   0.643060 0.323143 0.631852 0.455334
H23   H     H_    0.554341 0.325253 0.600730 0.074963
H24   H     H_    0.506632 0.255668 0.662354 0.259100
O20   O     O_3   0.542410 0.431140 0.474010 -0.450583
C11   C     C_3   0.555393 0.628397 0.633596 0.252493
H25   H     H_    0.434851 0.610322 0.620391 0.100471
H26   H     H_    0.642181 0.592279 0.634739 0.123794
C12   C     C_3   0.543584 0.661617 0.685787 0.036700
H27   H     H_    0.651115 0.691584 0.691453 0.089378
P7    P     P_3+3 0.592780 0.642309 0.539930 0.483845
O21   O     O_2   0.406930 0.639920 0.526240 -0.336263
O22   O     O_3   0.613354 0.668296 0.602874 -0.599382
H28   H     H_    0.275485 0.332626 0.719653 0.275157
C13   C     C_3   0.006365 0.686615 0.348850 0.177658
H29   H     H_    0.947486 0.643419 0.351489 0.120012
H30   H     H_    0.924822 0.721529 0.363636 -0.020501
C14   C     C_3   0.037862 0.693390 0.294396 0.184194
H31   H     H_    0.141681 0.724660 0.293591 0.058215
P8    P     P_3+3 0.549212 0.566200 0.348810 0.442848
C15   C     C_3   0.556029 0.678366 0.370263 0.474886
H32   H     H_    0.664100 0.679446 0.395019 0.031855
O23   O     O_2   0.380113 0.545959 0.327538 -0.414728
O24   O     O_3   0.574473 0.635890 0.329661 -0.517372
H33   H     H_    0.447482 0.669267 0.390677 0.187266
H34   H     H_    0.651633 0.753869 0.339050 0.242534
C16   C     C_3   0.537027 0.738648 0.353320 -0.942283
H35   H     H_    0.504497 0.770292 0.385145 0.253159
H36   H     H_    0.440463 0.737808 0.324119 0.260690
C17   C     C_R   0.021188 0.456564 0.180823 0.496105
O25   O     O_2   0.054292 0.414773 0.202863 -0.590866
N1    N     N_R   0.941864 0.503567 0.204868 -0.172422
C18   C     C_R   0.899272 0.549829 0.178837 0.593409
C19   C     C_2   0.749366 0.516506 0.272208 -0.119141
C20   C     C_3   0.707860 0.514322 0.325872 0.115723
C21   C     C_1   0.986027 0.492073 0.343372 0.315128
C22   C     C_2   0.025272 0.490775 0.296082 -0.172503
C23   C     C_2   0.901036 0.503993 0.257085 0.142735
C24   C     C_R   0.022845 0.503278 0.104334 -0.110449
C25   C     C_R   0.061639 0.455712 0.130540 -0.014965
C26   C     C_R   0.140013 0.407926 0.105879 -0.092100
C27   C     C_R   0.940116 0.550799 0.128600 -0.276953
C28   C     C_2   0.857358 0.520192 0.359068 -0.432876
H37   H     H_    0.147146 0.480463 0.285447 0.173039
H38   H     H_    0.173075 0.370914 0.125014 0.169561
C29   C     C_2   0.345331 0.487763 0.648469 -0.466502
C30   C     C_R   0.171049 0.451506 0.977103 0.035630
C31   C     C_R   0.086703 0.553654 0.978989 0.079412
C32   C     C_R   0.148697 0.502384 0.952870 0.077963
C33   C     C_R   0.223918 0.400544 0.948577 -0.203535
C34   C     C_R   0.256944 0.400091 0.898630 -0.077367
C35   C     C_R   0.241075 0.450579 0.874735 -0.056446
C36   C     C_R   0.188462 0.502010 0.901992 -0.066518
C37   C     C_R   0.176171 0.553156 0.878450 -0.040705
C38   C     C_R   0.218515 0.552477 0.828436 0.522950
N2    N     N_R   0.262991 0.501008 0.801020 -0.165957
C39   C     C_R   0.275407 0.450443 0.824038 0.554287
C40   C     C_2   0.449855 0.483553 0.733105 -0.110954
C41   C     C_3   0.497140 0.490079 0.680777 0.206860
C42   C     C_1   0.213348 0.515903 0.662168 0.135710
C43   C     C_2   0.179307 0.520050 0.710555 -0.146508
C44   C     C_2   0.301009 0.500345 0.748612 0.085578
O26   O     O_2   0.315742 0.405071 0.800380 -0.599899
C45   C     C_R   0.138422 0.453044 0.028572 0.054053
C46   C     C_R   0.065664 0.502959 0.053661 0.085927
C47   C     C_R   0.035420 0.552533 0.028510 -0.014910
C48   C     C_R   0.176626 0.406378 0.056157 -0.212367
H39   H     H_    0.540765 0.471224 0.759327 0.162482
H40   H     H_    0.295805 0.359610 0.878694 0.168826
H41   H     H_    0.236964 0.359486 0.963492 0.130144
H42   H     H_    0.238886 0.368260 0.040620 0.130633
O27   O     O_2   0.826925 0.590707 0.199598 -0.489494
C49   C     C_R   0.899393 0.597895 0.101722 0.606418
H43   H     H_    0.653658 0.523640 0.245581 0.143484
C50   C     C_R   0.078838 0.604549 0.954464 -0.213170
C51   C     C_R   0.123297 0.604275 0.905559 -0.099758
O28   O     O_2   0.217167 0.598018 0.809464 -0.581765
C52   C     C_R   0.951252 0.599100 0.053504 -0.361558
H44   H     H_    0.042579 0.646109 0.972515 0.132965
H45   H     H_    0.114699 0.644622 0.888841 0.166677
H46   H     H_    0.917208 0.636856 0.035916 0.154766
H47   H     H_    0.855072 0.542708 0.396229 0.157772
H48   H     H_    0.856499 0.082349 0.421160 0.167551
H49   H     H_    0.953666 0.983535 0.423405 0.168405
C53   C     C_R   0.341763 0.330360 0.506091 -0.427906
C54   C     C_R   0.510401 0.929077 0.504998 -0.112063
C55   C     C_R   0.548502 0.869288 0.492722 0.552875
O29   O     O_2   0.441546 0.832400 0.492252 -0.554594
N3    N     N_R   0.703113 0.852878 0.478618 -0.165039
C56   C     C_R   0.806840 0.896712 0.465893 0.574965
O30   O     O_2   0.947477 0.886837 0.457261 -0.578224
C57   C     C_R   0.752869 0.954165 0.463971 -0.045261
C58   C     C_R   0.608779 0.971209 0.486503 -0.006440
C59   C     C_R   0.374957 0.948413 0.532953 -0.075877
C60   C     C_R   0.341932 0.008571 0.540659 -0.158782
C61   C     C_R   0.434608 0.049985 0.519257 -0.051366
C62   C     C_R   0.563595 0.030665 0.490375 -0.009617
C63   C     C_R   0.842715 0.995510 0.441472 -0.109193
C64   C     C_R   0.787108 0.052288 0.440237 -0.112125
C65   C     C_R   0.648213 0.070726 0.465369 -0.045148
C66   C     C_R   0.590419 0.128029 0.465331 0.526603
N4    N     N_R   0.476322 0.149901 0.498917 -0.161114
C67   C     C_R   0.405174 0.110651 0.527660 0.532072
C68   C     C_2   0.888726 0.769156 0.457159 -0.216196
C69   C     C_3   0.952199 0.711750 0.470745 0.194012
C70   C     C_1   0.696943 0.692707 0.504330 0.261125
C71   C     C_2   0.661469 0.749288 0.508069 -0.149817
C72   C     C_2   0.754259 0.791445 0.479757 0.090463
C73   C     C_R   0.278233 0.231442 0.519903 -0.236644
C74   C     C_R   0.239182 0.290752 0.524095 0.212699
C75   C     C_R   0.492294 0.314529 0.489995 0.274985
C76   C     C_R   0.540964 0.256471 0.490824 -0.214514
C77   C     C_R   0.432212 0.212351 0.503483 0.106075
O31   O     O_2   0.639238 0.157470 0.434261 -0.591787
O32   O     O_2   0.319820 0.128143 0.561616 -0.592141
C78   C     C_2   0.816402 0.670550 0.478091 -0.519122
H50   H     H_    0.242394 0.023071 0.563466 0.187356
H51   H     H_    0.185795 0.201461 0.528815 0.202926
H52   H     H_    0.584393 0.766276 0.537512 0.203411
H53   H     H_    0.957739 0.791387 0.431953 0.203860
H54   H     H_    0.662321 0.246562 0.480432 0.216409
H55   H     H_    0.300969 0.373986 0.502698 0.187264
H56   H     H_    0.806939 0.627434 0.457473 0.164982
C79   C     C_2   0.393253 0.697944 0.687807 0.986177
O33   O     O_2   0.389970 0.742947 0.668029 -0.640822
O34   O     O_R   0.258490 0.680099 0.712003 -0.720355
H57   H     H_    0.165732 0.708076 0.710666 0.341422
O35   O     O_3   0.544644 0.622172 0.722266 -0.641865
C80   C     C_3   0.578992 0.652694 0.769931 0.304017
H58   H     H_    0.471111 0.676736 0.783463 0.162781
H59   H     H_    0.681701 0.684363 0.770148 0.063727
C81   C     C_3   0.624473 0.610192 0.806737 -0.830790
H60   H     H_    0.740163 0.589166 0.797431 0.265242
H61   H     H_    0.637894 0.634082 0.844438 0.205488
H62   H     H_    0.530641 0.575875 0.806936 0.259067
O36   O     O_3   0.063588 0.637656 0.268260 -0.606540
C82   C     C_3   0.225097 0.630378 0.254399 0.361529
H63   H     H_    0.246740 0.582788 0.247306 0.133189
H64   H     H_    0.311930 0.648239 0.284281 0.158473
C83   C     C_3   0.256188 0.657022 0.206822 -0.989013
H65   H     H_    0.168071 0.639289 0.177234 0.284788
H66   H     H_    0.246748 0.705279 0.212716 0.263468
H67   H     H_    0.379436 0.645864 0.194823 0.239945
C84   C     C_2   0.895877 0.719922 0.270115 1.030074
O37   O     O_2   0.908326 0.768712 0.256944 -0.656157
O38   O     O_R   0.750780 0.688443 0.262043 -0.696274
H68   H     H_    0.663873 0.711006 0.245901 0.323925
O39   O     O_3   0.816519 0.645454 0.123045 -0.578930
C85   C     C_3   0.652479 0.639184 0.107408 0.293406
H69   H     H_    0.592424 0.605448 0.126970 0.109767
H70   H     H_    0.636510 0.626720 0.066746 0.060598
C86   C     C_3   0.569191 0.697122 0.119737 -0.825123
H71   H     H_    0.623261 0.730859 0.098977 0.253276
H72   H     H_    0.438853 0.692118 0.109306 0.209350
H73   H     H_    0.582793 0.711703 0.159894 0.264364
C87   C     C_2   0.022945 0.543332 0.727452 1.168416
O40   O     O_2   0.945079 0.517792 0.755923 -0.671767
O41   O     O_R   0.967463 0.595489 0.712121 -0.740681
H74   H     H_    0.857519 0.606182 0.724605 0.319194
C88   C     C_2   0.369846 0.470221 0.597971 1.110575
O42   O     O_2   0.345818 0.419843 0.581275 -0.696182
O43   O     O_R   0.453352 0.508990 0.572985 -0.773010
H75   H     H_    0.503509 0.488010 0.543663 0.401244
C89   C     C_2   0.274660 0.908577 0.558972 1.116140
O44   O     O_2   0.129087 0.915452 0.560770 -0.628481
O45   O     O_R   0.346974 0.864908 0.583306 -0.758962
H76   H     H_    0.265857 0.840967 0.599842 0.342350

loop_
_geom_bond_atom_site_label_1
_geom_bond_atom_site_label_2
_geom_bond_distance
_ccdc_geom_bond_type
C52   H46   1.077171 S    
C82   H64   1.108611 S    
O38   H68   1.013229 S    
C11   H26   1.111037 S    
P8    C20   1.866451 S    
C51   H45   1.083584 S    
C21   C22   1.337430 D    
N4    C77   1.482517 S    
C83   H67   1.109455 S    
C68   C69   1.511279 S    
C84   O37   1.222939 D    
C43   C44   1.534660 S    
C2    H4    1.112176 S    
C15   O24   1.405180 S    
C14   H31   1.118262 S    
C6    C7    1.523546 S    
C30   C32   1.421616 A    
C25   C26   1.402875 A    
C14   C84   1.504391 S    
O12   Ba2   2.828383 S    
P4    O13   1.550690 S    
C69   C78   1.497253 S    
C79   O33   1.222699 D    
C4    C5    1.521798 S    
C26   C48   1.395710 A    
C73   H51   1.077776 S    
C65   C66   1.411509 A    
O4    P6    1.546530 D    
C1    H24   1.110172 S    
C71   C72   1.524332 S    
C56   C57   1.409845 A    
C16   H36   1.109424 S    
N2    C39   1.388827 Am   
H1    C10   1.106947 S    
C85   H70   1.115946 S    
C66   O31   1.220174 D    
P3    C74   1.840353 S    
C82   C83   1.525223 S    
C19   H43   1.085504 S    
C40   C41   1.515499 S    
C24   C27   1.412238 A    
C86   H73   1.109422 S    
O13   Ba2   2.917840 S    
C34   C35   1.402749 A    
C31   C47   1.432011 A    
O1    Ba1   2.827990 S    
P1    O1    1.507975 D    
C76   C77   1.429605 A    
C81   H61   1.110525 S    
O16   P7    1.761815 S    
C36   C37   1.408490 A    
C45   C48   1.414813 A    
O45   H76   1.013919 S    
C86   H72   1.110918 S    
C53   C74   1.381407 A    
N2    C44   1.471904 S    
C18   O27   1.218680 D    
C54   C58   1.407701 A    
C56   O30   1.218356 D    
C22   H37   1.084043 S    
P7    O21   1.574384 D    
O19   C13   1.405933 S    
P2    O10   1.752268 S    
C59   C60   1.410433 A    
C11   O22   1.403331 S    
C71   H52   1.084660 S    
O11   C2    1.403657 S    
C1    H2    1.110861 S    
O6    P6    1.754472 S    
C27   C49   1.416052 A    
P5    O18   1.547125 D    
C48   H42   1.077265 S    
C60   H50   1.084330 S    
C54   C59   1.427438 A    
C82   H63   1.109898 S    
C11   C12   1.543524 S    
C10   H23   1.110868 S    
P2    Ba1   3.385295 S    
P6    C41   1.927045 S    
C84   O38   1.395642 S    
N4    C67   1.399769 Am   
C29   C42   1.323934 D    
Ba1   Ba2   4.527943 S    
C13   C14   1.540970 S    
O6    C10   1.405249 S    
C38   N2    1.389162 Am   
P5    O17   1.745416 S    
C6    H13   1.103538 S    
C31   C50   1.416285 A    
C8    C9    1.524789 S    
P4    C21   1.845898 S    
C3    H28   1.109016 S    
P5    O19   1.752050 S    
P1    O5    1.748832 S    
P4    O12   1.508120 D    
Ba2   O20   2.785350 S    
C2    C3    1.518472 S    
C16   H35   1.110817 S    
C62   C65   1.403060 A    
C13   H30   1.107941 S    
C35   C36   1.407996 A    
C79   O34   1.398115 S    
C38   O28   1.222046 D    
O43   H75   0.992778 S    
O16   Ba2   2.924771 S    
C85   H69   1.113233 S    
C50   C51   1.394601 A    
P4    O15   1.749857 S    
C30   C45   1.434521 A    
C78   H56   1.084709 S    
C4    H8    1.106549 S    
O39   C85   1.414202 S    
C19   C23   1.362628 D    
C7    H17   1.109233 S    
P1    Ba1   3.395226 S    
C59   C89   1.485452 S    
C47   C52   1.410599 A    
C1    C10   1.519684 S    
O10   C8    1.396678 S    
C64   C65   1.407046 A    
N1    C23   1.473308 S    
C81   H62   1.102993 S    
C9    H20   1.110598 S    
C4    O15   1.390630 S    
O34   H57   1.013763 S    
C89   O44   1.223206 D    
C28   H47   1.085049 S    
P4    Ba2   3.395644 S    
P2    O20   1.557469 S    
C15   H33   1.104916 S    
H34   C16   1.107493 S    
C53   H55   1.078364 S    
P8    O24   1.756651 S    
C50   H44   1.077151 S    
C24   C25   1.410582 A    
C86   H71   1.110976 S    
C67   O32   1.219828 D    
O2    Ba1   2.917090 S    
P1    C42   1.899620 S    
C1    H3    1.110671 S    
C21   C28   1.315626 D    
C45   C46   1.422315 A    
O3    Ba1   2.709365 S    
C35   C39   1.420165 A    
C29   C88   1.412036 S    
P3    O11   1.749116 S    
C55   N3    1.397221 Am   
C75   C76   1.405560 A    
C49   C52   1.399993 A    
H48   C64   1.083357 S    
C73   C77   1.427401 A    
C22   C23   1.515787 S    
C40   C44   1.366312 D    
C17   N1    1.386775 Am   
P3    O8    1.761780 S    
Ba2   O21   2.820449 S    
C73   C74   1.402008 A    
C3    H7    1.110649 S    
P3    O9    1.543617 D    
C4    H9    1.110587 S    
C33   C34   1.396878 A    
C80   H59   1.114166 S    
C7    H16   1.103570 S    
C70   C78   1.316879 D    
O14   P8    1.749076 S    
O2    Ba2   2.758679 S    
Ba1   O16   2.785949 S    
C19   C20   1.520438 S    
C20   C28   1.507061 S    
N3    C56   1.399464 Am   
C32   C36   1.435614 A    
P7    C70   1.823391 S    
N3    C72   1.487201 S    
C81   H60   1.105949 S    
C18   C27   1.424464 A    
C5    H10   1.110759 S    
C37   C38   1.417861 A    
C2    H5    1.109532 S    
C15   H32   1.103096 S    
O14   Ba2   2.708754 S    
C12   C79   1.511788 S    
C5    H12   1.110774 S    
H49   C63   1.083378 S    
O7    Ba1   2.820012 S    
C55   O29   1.219558 D    
O8    Ba1   2.748228 S    
P2    C75   1.847577 S    
C37   C51   1.401312 A    
C88   O43   1.377125 S    
C31   C32   1.420211 A    
C42   C43   1.351290 D    
C40   H39   1.085522 S    
O5    C6    1.395108 S    
C24   C46   1.437177 A    
C89   O45   1.398865 S    
C34   H40   1.083491 S    
C80   C81   1.522869 S    
C83   H66   1.109592 S    
C29   C41   1.510465 S    
C88   O42   1.208951 D    
C87   O41   1.396245 S    
Ba1   O20   2.925508 S    
C5    H11   1.107765 S    
C9    H21   1.106651 S    
C49   O39   1.383712 S    
C26   H38   1.083502 S    
C57   C58   1.403559 A    
C14   O36   1.418269 S    
C85   C86   1.520775 S    
O35   C80   1.423205 S    
C66   N4    1.398385 Am   
P8    O23   1.546391 D    
C61   C67   1.416677 A    
C13   H29   1.113698 S    
C87   O40   1.222400 D    
C8    H19   1.107133 S    
C6    H14   1.109504 S    
C12   H27   1.116839 S    
C43   C87   1.479385 S    
O41   H74   1.008839 S    
C57   C63   1.408902 A    
C83   H65   1.109125 S    
C9    H22   1.110838 S    
C68   C72   1.370938 D    
Ba1   O13   2.758096 S    
C80   H58   1.111151 S    
C70   C71   1.334094 D    
C76   H54   1.076338 S    
C53   C75   1.378644 A    
C11   H25   1.111382 S    
C15   C16   1.522007 S    
P2    O7    1.521118 D    
C60   C61   1.407216 A    
C17   O25   1.221921 D    
C7    H15   1.110818 S    
O36   C82   1.412451 S    
C58   C62   1.418921 A    
C12   O35   1.422006 S    
O3    P6    1.787088 S    
C63   C64   1.397332 A    
C46   C47   1.419319 A    
P7    O22   1.753650 S    
C3    H6    1.110843 S    
C8    H18   1.106709 S    
C33   H41   1.077235 S    
P1    O2    1.550666 S    
C61   C62   1.398064 A    
N1    C18   1.390140 Am   
C68   H53   1.077794 S    
C30   C33   1.415992 A    
C39   O26   1.221216 D    
C54   C55   1.422806 A    
P5    C69   1.870596 S    
C17   C25   1.420267 A    
O17   Ba2   2.748887 S    
