data_mof_unit_46277.cif
_audit_creation_date              2012-12-10T22:11:05-0500
_audit_creation_method            fapswitch 2.2
_symmetry_space_group_name_H-M    P1
_symmetry_Int_Tables_number       1
_space_group_crystal_system       triclinic
_cell_length_a                    12.104274
_cell_length_b                    12.14948
_cell_length_c                    23.189901
_cell_angle_alpha                 93.606113
_cell_angle_beta                  93.075869
_cell_angle_gamma                 91.983138
_cell_volume                      3396.19684725

loop_
_atom_site_label
_atom_site_type_symbol
_atom_type_description
_atom_site_fract_x
_atom_site_fract_y
_atom_site_fract_z
_atom_type_partial_charge
C1    C     C_R   0.660677 0.002558 0.579168 0.885323
C2    C     C_R   0.337024 0.997676 0.422377 0.870941
C3    C     C_R   0.895323 0.829526 0.115018 -0.018995
C4    C     C_R   0.098841 0.157669 0.891519 -0.011082
C5    C     C_R   0.095801 0.919484 0.168683 0.078443
C6    C     C_R   0.901345 0.067498 0.837750 0.077815
C7    C     C_R   0.095103 0.837488 0.122247 -0.051515
C8    C     C_R   0.900584 0.163015 0.876447 -0.058913
C9    C     C_R   0.885921 0.155651 0.178245 0.020936
C10   C     C_R   0.108230 0.802538 0.807907 0.015009
C11   C     C_R   0.903685 0.198216 0.125063 0.037614
C12   C     C_R   0.102946 0.701348 0.833110 0.059504
C13   C     C_R   0.113663 0.892684 0.307284 0.115786
C14   C     C_R   0.874554 0.102070 0.701606 0.089435
C15   C     C_R   0.206172 0.889781 0.348349 0.040928
C16   C     C_R   0.780687 0.104564 0.660873 0.048696
C17   C     C_R   0.836017 0.108601 0.315442 0.024164
C18   C     C_R   0.159324 0.884034 0.684404 0.030913
C19   C     C_R   0.772672 0.096232 0.361403 -0.270116
C20   C     C_R   0.231057 0.897857 0.641424 -0.264464
C21   C     C_3   0.976232 0.022479 0.247357 -0.052460
C22   C     C_3   0.016048 0.964976 0.756073 -0.047650
C23   C     C_R   0.647655 0.999900 0.418133 0.885538
C24   C     C_R   0.345706 0.999918 0.579799 0.878747
C25   C     C_R   0.064992 0.998137 0.297046 0.020704
C26   C     C_R   0.927606 0.996625 0.707381 0.007189
C27   C     C_R   0.233777 0.986283 0.385509 -0.154692
C28   C     C_R   0.761218 0.014326 0.618220 -0.130494
C29   C     C_R   0.865269 0.013458 0.279841 0.014420
C30   C     C_R   0.125538 0.977086 0.720843 0.010759
C31   C     C_R   0.715724 0.998412 0.368449 -0.112027
C32   C     C_R   0.267925 0.000719 0.626921 -0.131050
C33   C     C_R   0.977854 0.136067 0.217693 -0.015717
C34   C     C_R   0.009663 0.845055 0.779949 -0.014694
C35   C     C_R   0.002437 0.261807 0.120536 -0.157242
C36   C     C_R   0.000822 0.669456 0.853402 -0.176136
C37   C     C_R   0.990999 0.945574 0.192465 0.056522
C38   C     C_R   0.004933 0.036611 0.814385 0.041863
C39   C     C_R   0.995182 0.779524 0.103370 -0.183253
C40   C     C_R   0.001656 0.216502 0.897999 -0.166014
C41   C     C_R   0.994625 0.671436 0.070537 0.911369
C42   C     C_R   0.004924 0.328176 0.929030 0.840876
C43   C     C_R   0.000462 0.348094 0.078571 0.865027
C44   C     C_R   0.999869 0.623856 0.911399 0.864810
C45   C     C_R   0.082666 0.078825 0.342876 -0.191298
C46   C     C_R   0.912500 0.920946 0.658969 -0.175366
C47   C     C_R   0.157453 0.070011 0.389324 0.076142
C48   C     C_R   0.841178 0.935187 0.612092 0.069718
C49   C     C_R   0.798930 0.912933 0.284803 0.015578
C50   C     C_R   0.176984 0.082575 0.710024 0.041677
C51   C     C_R   0.715919 0.909122 0.326007 0.047363
C52   C     C_R   0.237123 0.096839 0.659427 0.041956
C53   C     C_R   0.074914 0.203773 0.213669 -0.004393
C54   C     C_R   0.910921 0.773852 0.779215 0.022238
C55   C     C_R   0.093170 0.257402 0.162498 0.021678
C56   C     C_R   0.904442 0.688352 0.818614 0.026249
C57   C     C_R   0.895690 0.913319 0.157750 -0.226445
C58   C     C_R   0.099445 0.070121 0.849778 -0.218329
H1    H     H_    0.816571 0.942889 0.169012 0.146566
H2    H     H_    0.178686 0.039361 0.841008 0.173606
H3    H     H_    0.765048 0.167233 0.391708 0.175729
H4    H     H_    0.254733 0.824589 0.616391 0.181591
H5    H     H_    0.038159 0.152408 0.343737 0.169200
H6    H     H_    0.951503 0.844138 0.657628 0.167584
O1    O     O_R   0.621380 0.090460 0.561410 -0.621057
O2    O     O_R   0.378620 0.909540 0.438590 -0.621212
O3    O     O_R   0.617150 0.909540 0.438590 -0.657316
O4    O     O_R   0.382850 0.090460 0.561410 -0.666028
O5    O     O_R   0.619720 0.093230 0.440890 -0.618974
O6    O     O_R   0.380280 0.906770 0.559110 -0.616581
O7    O     O_R   0.618800 0.906770 0.559110 -0.613077
O8    O     O_R   0.381200 0.093230 0.440890 -0.618818
O9    O     O_R   0.087590 0.627480 0.058790 -0.609714
O10   O     O_R   0.912410 0.372520 0.941210 -0.625887
O11   O     O_R   0.905660 0.383870 0.059980 -0.624746
O12   O     O_R   0.094340 0.616130 0.940020 -0.625243
O13   O     O_R   0.092570 0.390420 0.063230 -0.642620
O14   O     O_R   0.907430 0.609580 0.936770 -0.636618
O15   O     O_R   0.900680 0.620930 0.055550 -0.598667
O16   O     O_R   0.099320 0.379070 0.944450 -0.619563
Zn1   Zn    Zn3+2 0.501730 0.123520 0.501540 0.913679
Zn2   Zn    Zn3+2 0.498270 0.876480 0.498460 0.915038
Zn3   Zn    Zn3+2 0.125690 0.504390 0.002180 0.959784
Zn4   Zn    Zn3+2 0.874310 0.495610 0.997820 0.968483
C59   C     C_3   0.151104 0.149500 0.442661 -0.378696
C60   C     C_3   0.031434 0.158752 0.461924 -0.373662
C61   C     C_3   0.027675 0.209603 0.523647 -0.905345
H7    H     H_    0.069366 0.156610 0.554752 0.260047
H8    H     H_    0.068449 0.293129 0.527286 0.267880
H9    H     H_    0.940151 0.216868 0.535057 0.250356
H10   H     H_    0.984058 0.211429 0.432781 0.225367
H11   H     H_    0.989154 0.075897 0.459335 0.241678
H12   H     H_    0.201561 0.120615 0.479699 0.217897
H13   H     H_    0.184106 0.232436 0.433033 0.214374
C62   C     C_3   0.853257 0.863418 0.556701 -0.389522
C63   C     C_3   0.971561 0.874758 0.536099 -0.356159
C64   C     C_3   0.977764 0.831670 0.473237 -0.925032
H14   H     H_    0.956771 0.741714 0.468569 0.266801
H15   H     H_    0.920168 0.875486 0.444470 0.263678
H16   H     H_    0.063058 0.846724 0.459598 0.248628
H17   H     H_    0.000392 0.962773 0.540154 0.238506
H18   H     H_    0.028897 0.827951 0.563485 0.229394
H19   H     H_    0.833252 0.775725 0.564354 0.206650
H20   H     H_    0.796526 0.888096 0.521129 0.228850
C65   C     C_1   0.812220 0.812697 0.249782 0.098939
N1    N     N_1   0.820002 0.731003 0.221823 -0.227089
C66   C     C_1   0.197554 0.167158 0.755847 0.120082
N2    N     N_1   0.218480 0.235688 0.792167 -0.242135
C67   C     C_1   0.139574 0.243571 0.265324 0.140085
N3    N     N_1   0.191649 0.278359 0.306229 -0.235427
C68   C     C_1   0.816909 0.782935 0.739045 0.121377
N4    N     N_1   0.740486 0.789395 0.707289 -0.232133
C69   C     C_3   0.204611 0.983762 0.186756 -0.414484
C70   C     C_3   0.301662 0.913499 0.206393 -0.366989
C71   C     C_3   0.392613 0.984329 0.240693 -0.878595
H21   H     H_    0.427054 0.047384 0.213301 0.278843
H22   H     H_    0.359953 0.025774 0.279941 0.262690
H23   H     H_    0.460999 0.931948 0.254359 0.259613
H24   H     H_    0.272160 0.847847 0.233104 0.216905
H25   H     H_    0.340471 0.873097 0.168928 0.241120
H26   H     H_    0.229777 0.030461 0.149604 0.202605
H27   H     H_    0.193556 0.044716 0.222287 0.221225
C72   C     C_3   0.789695 0.010569 0.819907 -0.416280
C73   C     C_3   0.751153 0.937663 0.867200 -0.337981
C74   C     C_3   0.633636 0.890396 0.853179 -0.849557
H28   H     H_    0.628799 0.840128 0.811409 0.270703
H29   H     H_    0.609166 0.837001 0.887850 0.248057
H30   H     H_    0.574639 0.958169 0.850569 0.276876
H31   H     H_    0.808395 0.869364 0.872518 0.228667
H32   H     H_    0.753068 0.986326 0.909238 0.232049
H33   H     H_    0.726449 0.071959 0.810359 0.198436
H34   H     H_    0.790146 0.963139 0.779191 0.220818
C75   C     C_1   0.771110 0.139906 0.192531 0.139487
N5    N     N_1   0.679331 0.127992 0.203371 -0.219186
C76   C     C_1   0.218567 0.853821 0.808667 0.123512
N6    N     N_1   0.307571 0.892383 0.809323 -0.216655
C77   C     C_3   0.065199 0.781400 0.281751 -0.391296
C78   C     C_3   0.006113 0.717166 0.327338 -0.343728
C79   C     C_3   0.996598 0.593469 0.310650 -0.832653
H35   H     H_    0.950047 0.577273 0.268249 0.281967
H36   H     H_    0.080166 0.559189 0.307852 0.257095
H37   H     H_    0.952139 0.550741 0.343990 0.253972
H38   H     H_    0.048569 0.731035 0.370310 0.220369
H39   H     H_    0.922892 0.748161 0.334207 0.227646
H40   H     H_    0.008967 0.787219 0.244980 0.221466
H41   H     H_    0.127571 0.731419 0.260542 0.176805
C80   C     C_3   0.910877 0.207002 0.739619 -0.412828
C81   C     C_3   0.923472 0.316316 0.710567 -0.390083
C82   C     C_3   0.998706 0.401167 0.746858 -0.904703
H42   H     H_    0.965373 0.418157 0.790138 0.268464
H43   H     H_    0.083373 0.371996 0.753136 0.275274
H44   H     H_    0.002823 0.479424 0.724709 0.267378
H45   H     H_    0.951055 0.303306 0.665903 0.231099
H46   H     H_    0.843440 0.355480 0.710117 0.241007
H47   H     H_    0.849643 0.220943 0.772679 0.189817
H48   H     H_    0.991960 0.196493 0.760788 0.244055
C83   C     C_1   0.867385 0.223747 0.308737 0.122924
N7    N     N_1   0.891177 0.315751 0.304019 -0.212788
C84   C     C_1   0.121711 0.769157 0.685060 0.088554
N8    N     N_1   0.091209 0.677642 0.683926 -0.253961
C85   C     C_3   0.627052 0.814137 0.327544 -0.412236
C86   C     C_3   0.599458 0.737098 0.272555 -0.338426
C87   C     C_3   0.486798 0.677627 0.271576 -0.942696
H49   H     H_    0.474325 0.641954 0.313562 0.277172
H50   H     H_    0.421420 0.735360 0.261057 0.256722
H51   H     H_    0.481417 0.609564 0.237116 0.266365
H52   H     H_    0.601083 0.784324 0.233050 0.245705
H53   H     H_    0.659706 0.670417 0.271487 0.254051
H54   H     H_    0.650819 0.761713 0.363434 0.213919
H55   H     H_    0.548484 0.853172 0.337906 0.212535
C88   C     C_3   0.276035 0.210454 0.639881 -0.398987
C89   C     C_3   0.224386 0.316314 0.663482 -0.391112
C90   C     C_3   0.250628 0.413758 0.627195 -0.898212
H56   H     H_    0.341605 0.429279 0.627095 0.264384
H57   H     H_    0.216546 0.397613 0.581961 0.259593
H58   H     H_    0.212998 0.488961 0.645967 0.270838
H59   H     H_    0.133822 0.302550 0.662685 0.252795
H60   H     H_    0.259235 0.340565 0.707647 0.254784
H61   H     H_    0.367313 0.220076 0.647796 0.217425
H62   H     H_    0.254219 0.209107 0.592776 0.238864
C91   C     C_3   0.207388 0.309433 0.150406 -0.373529
C92   C     C_3   0.311574 0.282106 0.187227 -0.388837
C93   C     C_3   0.417348 0.303285 0.155819 -0.871191
H63   H     H_    0.418668 0.247247 0.116128 0.264954
H64   H     H_    0.423062 0.390346 0.143866 0.264028
H65   H     H_    0.490584 0.287544 0.184643 0.268665
H66   H     H_    0.318253 0.336010 0.227778 0.247349
H67   H     H_    0.308396 0.194743 0.197705 0.239078
H68   H     H_    0.224016 0.279514 0.105518 0.240876
H69   H     H_    0.202255 0.400772 0.152936 0.219161
C94   C     C_3   0.796964 0.619396 0.825096 -0.386999
C95   C     C_3   0.743926 0.559841 0.769177 -0.359611
C96   C     C_3   0.679912 0.453928 0.781565 -0.915018
H70   H     H_    0.737218 0.392687 0.798530 0.268890
H71   H     H_    0.617192 0.472117 0.813750 0.277745
H72   H     H_    0.636485 0.417806 0.741156 0.253266
H73   H     H_    0.682630 0.613037 0.748794 0.246033
H74   H     H_    0.807910 0.540239 0.738023 0.240346
H75   H     H_    0.813600 0.552424 0.853917 0.245128
H76   H     H_    0.735283 0.672490 0.845548 0.202960
C97   C     C_1   0.789439 0.795477 0.086119 0.213656
N9    N     N_1   0.704630 0.768720 0.063144 -0.205205
C98   C     C_1   0.201456 0.187521 0.924590 0.233285
N10   N     N_1   0.283639 0.211029 0.951023 -0.205536
C99   C     C_1   0.192272 0.822112 0.089095 0.195669
N11   N     N_1   0.269202 0.809919 0.062123 -0.205109
C100  C     C_1   0.794960 0.209816 0.889334 0.156986
N12   N     N_1   0.710720 0.247370 0.898881 -0.213396
C101  C     C_3   0.812585 0.184416 0.075417 -0.362911
C102  C     C_3   0.767249 0.065711 0.060309 -0.393087
C103  C     C_3   0.666968 0.063643 0.017428 -0.854657
H77   H     H_    0.596543 0.103677 0.038030 0.269467
H78   H     H_    0.686766 0.107946 0.978905 0.270940
H79   H     H_    0.641460 0.976926 0.003537 0.263025
H80   H     H_    0.833203 0.015631 0.041476 0.228602
H81   H     H_    0.738017 0.026570 0.098374 0.241484
H82   H     H_    0.743463 0.238448 0.086523 0.225838
H83   H     H_    0.844916 0.208500 0.034005 0.220660
C104  C     C_3   0.205546 0.631360 0.841221 -0.359465
C105  C     C_3   0.257594 0.597402 0.783983 -0.356360
C106  C     C_3   0.359181 0.528670 0.794341 -0.890710
H84   H     H_    0.423311 0.577175 0.822210 0.267655
H85   H     H_    0.336141 0.452221 0.815432 0.277025
H86   H     H_    0.394645 0.505090 0.752331 0.258637
H87   H     H_    0.196074 0.547450 0.755364 0.241181
H88   H     H_    0.283747 0.670375 0.761074 0.249403
H89   H     H_    0.268010 0.677040 0.871443 0.217708
H90   H     H_    0.183181 0.552096 0.859738 0.226826
C107  C     C_3   0.277733 0.786622 0.350736 -0.374634
C108  C     C_3   0.260473 0.716103 0.403295 -0.286302
C109  C     C_3   0.363935 0.655044 0.421252 -0.842546
H91   H     H_    0.376684 0.585874 0.389030 0.237631
H92   H     H_    0.438928 0.710720 0.425496 0.276407
H93   H     H_    0.352505 0.619659 0.463628 0.230516
H94   H     H_    0.234020 0.767187 0.441061 0.230478
H95   H     H_    0.195333 0.650948 0.392273 0.207416
H96   H     H_    0.267520 0.729560 0.312123 0.173518
H97   H     H_    0.365211 0.814359 0.348859 0.215529
C110  C     C_3   0.695252 0.195047 0.666379 -0.377947
C111  C     C_3   0.700266 0.282193 0.619730 -0.279616
C112  C     C_3   0.587162 0.330554 0.606984 -0.865086
H98   H     H_    0.526017 0.265948 0.588857 0.289262
H99   H     H_    0.555698 0.369683 0.647083 0.239149
H100  H     H_    0.594751 0.394220 0.574953 0.229725
H101  H     H_    0.756879 0.353153 0.632547 0.185204
H102  H     H_    0.733508 0.247947 0.579034 0.234201
H103  H     H_    0.611598 0.153801 0.664527 0.201827
H104  H     H_    0.700081 0.237335 0.710071 0.175038

loop_
_geom_bond_atom_site_label_1
_geom_bond_atom_site_label_2
_ccdc_geom_bond_type
C89   H59   S    
C16   C28   A    
C111  H102  S    
C88   C89   S    
C42   O16   A    
C83   N7    T    
C48   C62   S    
C5    C37   A    
C72   H34   S    
C33   C53   A    
C17   C29   A    
C97   N9    T    
C23   O5    A    
C62   C63   S    
C7    C99   S    
C19   C31   A    
C17   C83   S    
C64   H14   S    
C24   O6    A    
C72   C73   S    
C39   C41   S    
C29   C49   A    
C99   N11   T    
C62   H20   S    
C1    O7    A    
O4    Zn1   S    
C47   C59   S    
C77   H40   S    
C87   H50   S    
C110  C111  S    
C94   H75   S    
C69   C70   S    
C106  H86   S    
C63   H18   S    
C78   H38   S    
C93   H64   S    
C59   C60   S    
O15   Zn4   S    
C79   H37   S    
O11   Zn4   S    
C57   H1    S    
C21   C33   S    
O13   Zn3   S    
C58   H2    S    
C71   H21   S    
C22   C38   S    
C52   C88   S    
C13   C25   A    
C110  H103  S    
C112  H98   S    
C91   H69   S    
C23   O3    A    
C44   O12   A    
C92   C93   S    
C32   C52   A    
C18   C84   S    
C80   C81   S    
C38   C58   A    
C59   H12   S    
C11   C35   A    
C69   H27   S    
C87   H49   S    
C16   C110  S    
C71   H22   S    
C73   H31   S    
C1    C28   S    
C50   C52   A    
C66   N2    T    
C6    C38   A    
C108  H95   S    
C2    C27   S    
C18   C30   A    
C95   H74   S    
C104  H90   S    
C12   C36   A    
C54   C68   S    
C80   H47   S    
C12   C104  S    
C70   H24   S    
C36   C44   S    
C77   C78   S    
O7    Zn2   S    
C85   H54   S    
C96   H72   S    
C45   C47   A    
C74   H28   S    
C30   C50   A    
C56   C94   S    
C3    C39   A    
C90   H56   S    
C63   H17   S    
C15   C107  S    
C78   H39   S    
C9    C33   A    
C88   H61   S    
C81   H46   S    
C6    C72   S    
O16   Zn3   S    
C2    O8    A    
O12   Zn3   S    
C105  C106  S    
C64   H15   S    
C107  C108  S    
C62   H19   S    
C70   C71   S    
C46   C48   A    
C53   C55   A    
C43   O11   A    
C15   C27   A    
C22   C34   S    
C54   C56   A    
C42   O10   A    
C35   C55   A    
C100  N12   T    
C4    C40   A    
C77   H41   S    
C76   N6    T    
C87   H51   S    
C94   H76   S    
C10   C34   A    
C82   H44   S    
O10   Zn4   S    
C104  C105  S    
C91   H68   S    
C24   O4    A    
C60   C61   S    
C5    C69   S    
C4    C98   S    
C49   C65   S    
C49   C51   A    
C91   C92   S    
C44   O14   A    
C21   C29   S    
C14   C80   S    
C45   H5    S    
C94   C95   S    
C46   H6    S    
C110  H104  S    
C112  H99   S    
C23   C31   S    
C8    C100  S    
C93   H63   S    
C24   C32   S    
C103  H77   S    
C106  H84   S    
C36   C56   A    
O2    Zn2   S    
C59   H13   S    
C1    O1    A    
C84   N8    T    
C71   H23   S    
C63   C64   S    
C96   H71   S    
C101  C102  S    
C55   C91   S    
C73   H32   S    
C108  H94   S    
C109  H92   S    
C92   H67   S    
C95   H73   S    
C14   C26   A    
C80   H48   S    
C9    C11   A    
C90   H57   S    
C10   C12   A    
O3    Zn2   S    
C86   H53   S    
C85   H55   S    
C3    C57   A    
C27   C47   A    
C103  H78   S    
C34   C54   A    
C13   C15   A    
C75   N5    T    
C3    C97   S    
C14   C16   A    
C88   H62   S    
C93   H65   S    
C81   H45   S    
C101  H83   S    
C107  H96   S    
C25   C45   A    
C64   H16   S    
C35   C43   S    
C89   C90   S    
C5    C7    A    
C86   C87   S    
C20   C32   A    
C90   H58   S    
C89   H60   S    
C21   C25   S    
C28   C48   A    
C22   C30   S    
C68   N4    T    
C72   H33   S    
O8    Zn1   S    
C31   C51   A    
C2    O2    A    
C111  H101  S    
C41   O15   A    
C6    C8    A    
C79   H35   S    
C43   O13   A    
C69   H26   S    
C65   N1    T    
C60   H10   S    
C112  H100  S    
C101  H82   S    
C95   C96   S    
C82   H43   S    
C10   C76   S    
C106  H85   S    
C60   H11   S    
C67   N3    T    
C11   C101  S    
C79   H36   S    
C50   C66   S    
C85   C86   S    
C19   H3    S    
C74   H30   S    
C102  H81   S    
C105  H88   S    
C40   C42   S    
C111  C112  S    
C17   C19   A    
C105  H87   S    
C51   C85   S    
C109  H93   S    
C18   C20   A    
C92   H66   S    
C102  C103  S    
C20   H4    S    
C108  C109  S    
O6    Zn2   S    
C70   H25   S    
O5    Zn1   S    
C78   C79   S    
C26   C46   A    
C41   O9    A    
C86   H52   S    
O14   Zn4   S    
C103  H79   S    
C21   C37   S    
C61   H7    S    
C96   H70   S    
C22   C26   S    
C61   H9    S    
C4    C58   A    
C109  H91   S    
C74   H29   S    
C61   H8    S    
C7    C39   A    
O1    Zn1   S    
C53   C67   S    
C8    C40   A    
C98   N10   T    
C104  H89   S    
C107  H97   S    
C82   H42   S    
C81   C82   S    
O9    Zn3   S    
C37   C57   A    
C102  H80   S    
C13   C77   S    
C73   C74   S    
C9    C75   S    
