data_mof_unit_22243.cif
_audit_creation_date              2012-12-10T20:45:36-0500
_audit_creation_method            fapswitch 2.2
_symmetry_space_group_name_H-M    P1
_symmetry_Int_Tables_number       1
_space_group_crystal_system       triclinic
_cell_length_a                    10.809747
_cell_length_b                    10.609679
_cell_length_c                    9.921945
_cell_angle_alpha                 89.174475
_cell_angle_beta                  91.032
_cell_angle_gamma                 90.514988
_cell_volume                      1137.5814554

loop_
_atom_site_label
_atom_site_type_symbol
_atom_type_description
_atom_site_fract_x
_atom_site_fract_y
_atom_site_fract_z
_atom_type_partial_charge
C1    C     C_R   0.499207 0.260464 0.500565 0.872775
C2    C     C_R   0.188839 0.598779 0.979734 0.368300
C3    C     C_R   0.931025 0.518081 0.380361 -0.244199
C4    C     C_R   0.871913 0.512385 0.503960 -0.091666
C5    C     C_R   0.940969 0.511838 0.625441 -0.036623
C6    C     C_R   0.066537 0.494572 0.619087 -0.241085
C7    C     C_R   0.126656 0.503389 0.496050 -0.111325
C8    C     C_R   0.057812 0.521635 0.375756 0.034674
C9    C     C_R   0.894947 0.677949 0.790989 -0.130491
C10   C     C_R   0.857040 0.715452 0.918087 -0.150605
C11   C     C_R   0.817153 0.625394 0.012032 -0.110395
C12   C     C_R   0.259818 0.500433 0.498550 0.881147
C13   C     C_R   0.814426 0.497867 0.978591 -0.183203
C14   C     C_R   0.849181 0.460304 0.850205 -0.138356
C15   C     C_R   0.891428 0.550034 0.756498 0.181777
C16   C     C_R   0.391960 0.062320 0.532780 0.116850
C17   C     C_R   0.498855 0.128335 0.498765 -0.082142
C18   C     C_R   0.597017 0.067138 0.437946 -0.230079
C19   C     C_R   0.596524 0.936722 0.435198 -0.233022
C20   C     C_R   0.497711 0.871112 0.493128 -0.076277
C21   C     C_R   0.391609 0.933505 0.530137 0.164906
C22   C     C_3   0.316601 0.920836 0.654211 -0.507047
C23   C     C_R   0.499870 0.739347 0.498749 0.876468
C24   C     C_3   0.317572 0.063684 0.658061 -0.511798
C25   C     C_R   0.529856 0.394489 0.073137 0.198798
C26   C     C_R   0.485742 0.608956 0.069949 -0.162600
C27   C     C_R   0.487048 0.609142 0.926411 -0.024727
C28   C     C_R   0.531132 0.394813 0.931455 0.227618
C29   C     C_3   0.471807 0.268234 0.925927 -0.519368
C30   C     C_3   0.468216 0.268642 0.079063 -0.475742
C31   C     C_R   0.739620 0.505228 0.501453 0.862838
C32   C     C_R   0.176467 0.698163 0.070462 -0.366439
C33   C     C_R   0.137522 0.675986 0.201807 0.466638
C34   C     C_R   0.111741 0.550593 0.243811 -0.015140
C35   C     C_R   0.128063 0.451143 0.155341 -0.400397
C36   C     C_R   0.164122 0.474027 0.021750 0.536385
H1    H     H_    0.788339 0.654584 0.110575 0.136510
H2    H     H_    0.785581 0.427993 0.052250 0.125995
H3    H     H_    0.844809 0.361559 0.824364 0.108481
H4    H     H_    0.675488 0.119572 0.399053 0.149195
H5    H     H_    0.675048 0.887509 0.395392 0.149353
H6    H     H_    0.223359 0.879874 0.633037 0.206207
H7    H     H_    0.368662 0.876686 0.739918 0.201140
H8    H     H_    0.224718 0.105870 0.641068 0.207685
H9    H     H_    0.371033 0.099927 0.745368 0.206474
H10   H     H_    0.471010 0.696380 0.121656 0.159122
H11   H     H_    0.198277 0.793676 0.038869 0.167044
H12   H     H_    0.473789 0.696916 0.871806 0.138736
H13   H     H_    0.379742 0.271969 0.875826 0.260216
H14   H     H_    0.535500 0.196465 0.886354 0.188784
H15   H     H_    0.373270 0.273319 0.119601 0.228392
H16   H     H_    0.528539 0.195945 0.127222 0.200832
H17   H     H_    0.111434 0.355876 0.191288 0.170389
H18   H     H_    0.878899 0.524644 0.286346 0.167730
H19   H     H_    0.117457 0.480242 0.711727 0.258198
H20   H     H_    0.928437 0.748245 0.719937 0.121350
H21   H     H_    0.859942 0.814104 0.944276 0.140321
N1    N     N_R   0.499160 0.499140 0.142800 -0.109802
N2    N     N_R   0.499160 0.499180 0.857150 -0.077441
O1    O     O_R   0.500020 0.316790 0.614690 -0.622860
O2    O     O_R   0.500000 0.316760 0.385350 -0.621686
O3    O     O_R   0.316770 0.500030 0.614670 -0.560748
O4    O     O_R   0.316750 0.499990 0.385330 -0.611880
O5    O     O_R   0.500000 0.683240 0.614650 -0.627804
O6    O     O_R   0.499980 0.683210 0.385310 -0.623947
O7    O     O_R   0.683250 0.500010 0.614670 -0.615204
O8    O     O_R   0.683230 0.499970 0.385330 -0.634822
Zn1   Zn    Zn3+2 0.500010 0.500020 0.653130 0.985936
Zn2   Zn    Zn3+2 0.499990 0.499980 0.346870 0.945050
O9    O     O_3   0.226404 0.621722 0.849800 -0.759113
H22   H     H_    0.232672 0.713924 0.833978 0.315459
O10   O     O_3   0.125684 0.779074 0.284043 -0.779064
H23   H     H_    0.103383 0.751109 0.375998 0.329865
O11   O     O_3   0.186734 0.376363 0.933748 -0.644025
C37   C     C_3   0.090983 0.283913 0.932068 0.026658
H24   H     H_    0.061702 0.270371 0.825321 0.161961
H25   H     H_    0.006739 0.310986 0.987122 0.136211
C38   C     C_3   0.137845 0.157618 0.988224 -0.345517
H26   H     H_    0.216185 0.124816 0.927549 0.227467
H27   H     H_    0.171074 0.168446 0.093916 0.220478
C39   C     C_3   0.035163 0.057884 0.984738 -0.952362
H28   H     H_    0.954063 0.089646 0.042075 0.260592
H29   H     H_    0.069133 0.969095 0.031778 0.283714
H30   H     H_    0.005960 0.038956 0.878949 0.254283

loop_
_geom_bond_atom_site_label_1
_geom_bond_atom_site_label_2
_ccdc_geom_bond_type
C27   H12   S    
C31   O7    A    
O7    Zn1   S    
C30   H15   S    
C16   C21   A    
C35   H17   S    
C35   C36   A    
C6    H19   S    
C39   H28   S    
C7    C8    A    
C29   H13   S    
C25   C28   A    
C31   O8    A    
C26   C27   A    
C24   H9    S    
O5    Zn1   S    
C28   C29   S    
C18   C19   A    
C5    C6    A    
C3    H18   S    
C38   H27   S    
O2    Zn2   S    
C2    C32   A    
C34   C35   A    
C11   H1    S    
C18   H4    S    
C33   O10   S    
C14   H3    S    
C19   C20   A    
C16   C17   A    
O9    H22   S    
C13   C14   A    
C9    C10   A    
C16   C24   S    
C21   C22   S    
C39   H29   S    
C17   C18   A    
C29   H14   S    
C7    C12   S    
O11   C37   S    
O4    Zn2   S    
C10   H21   S    
C3    C8    A    
C1    O1    A    
C12   O4    A    
C38   H26   S    
O10   H23   S    
O8    Zn2   S    
C37   H24   S    
C29   C30   S    
N2    Zn1   S    
C12   O3    A    
C22   H7    S    
C20   C23   S    
C33   C34   A    
C9    H20   S    
C8    C34   S    
C26   N1    A    
C13   H2    S    
C36   O11   S    
C23   O5    A    
C24   H8    S    
C32   H11   S    
C22   C24   S    
C25   N1    A    
C3    C4    A    
C39   H30   S    
C28   N2    A    
C2    C36   A    
C25   C30   S    
C30   H16   S    
C4    C5    A    
C1    O2    A    
N1    Zn2   S    
C6    C7    A    
C1    C17   S    
O3    Zn1   S    
C32   C33   A    
C23   O6    A    
C9    C15   A    
C27   N2    A    
C11   C13   A    
C38   C39   S    
C22   H6    S    
O6    Zn2   S    
C37   C38   S    
C5    C15   S    
C4    C31   S    
C10   C11   A    
C26   H10   S    
C20   C21   A    
O1    Zn1   S    
C37   H25   S    
C14   C15   A    
C2    O9    S    
C19   H5    S    
