data_mof_unit_24276.cif
_audit_creation_date              2012-10-26T21:32:57-0400
_audit_creation_method            fapswitch 2.2
_symmetry_space_group_name_H-M    P1
_symmetry_Int_Tables_number       1
_space_group_crystal_system       triclinic
_cell_length_a                    28.247362
_cell_length_b                    18.616854
_cell_length_c                    17.071347
_cell_angle_alpha                 90.019464
_cell_angle_beta                  60.655318
_cell_angle_gamma                 90.009709
_cell_volume                      7825.5109539

loop_
_atom_site_label
_atom_site_type_symbol
_atom_type_description
_atom_site_fract_x
_atom_site_fract_y
_atom_site_fract_z
_atom_type_partial_charge
C1    C     C_R   0.701871 0.268713 0.675910 0.912217
C2    C     C_R   0.932315 0.627829 0.552023 -0.301764
C3    C     C_R   0.074328 0.900823 0.933686 0.937733
C4    C     C_R   0.574326 0.599184 0.933693 0.936757
C5    C     C_R   0.425657 0.400839 0.066316 0.937198
C6    C     C_R   0.425712 0.599253 0.066294 0.936315
C7    C     C_R   0.574338 0.400828 0.933678 0.936897
C8    C     C_R   0.564531 0.999769 0.459240 0.035905
C9    C     C_R   0.462607 0.999982 0.469138 0.032134
C10   C     C_R   0.041850 0.499966 0.519043 0.032547
C11   C     C_R   0.940055 0.499965 0.529435 0.034780
C12   C     C_R   0.541057 0.065292 0.455673 0.012396
C13   C     C_R   0.932298 0.372110 0.551947 -0.300980
C14   C     C_R   0.487529 0.934260 0.468723 0.014073
C15   C     C_R   0.488329 0.065618 0.466535 0.014434
C16   C     C_R   0.540317 0.934269 0.457621 0.012146
C17   C     C_R   0.016719 0.565654 0.520262 0.013800
C18   C     C_R   0.964057 0.434394 0.531369 0.012530
C19   C     C_R   0.964022 0.565515 0.531536 0.012583
C20   C     C_R   0.016843 0.434268 0.519861 0.013418
C21   C     C_R   0.635421 0.935044 0.472054 -0.077085
C22   C     C_R   0.383365 0.065060 0.483759 -0.059537
C23   C     C_R   0.382540 0.935503 0.485854 -0.071495
C24   C     C_R   0.048520 0.627920 0.495326 -0.304922
C25   C     C_R   0.635904 0.064410 0.470917 -0.077048
C26   C     C_R   0.120453 0.435379 0.506919 -0.073143
C27   C     C_R   0.867913 0.564700 0.520666 -0.068677
C28   C     C_R   0.867556 0.435393 0.521482 -0.079331
C29   C     C_R   0.120060 0.564765 0.507963 -0.061712
C30   C     C_R   0.670429 0.936032 0.510974 -0.129139
C31   C     C_R   0.338374 0.064172 0.466267 -0.140442
C32   C     C_R   0.337478 0.936247 0.468507 -0.116798
C33   C     C_R   0.670845 0.063707 0.509897 -0.131552
C34   C     C_R   0.163867 0.436184 0.528110 -0.116529
C35   C     C_R   0.571606 0.871697 0.439228 -0.299353
C36   C     C_R   0.831931 0.563895 0.483708 -0.132479
C37   C     C_R   0.831189 0.436201 0.485284 -0.114442
C38   C     C_R   0.163156 0.564008 0.529852 -0.139346
C39   C     C_R   0.679415 0.000005 0.544189 0.016358
C40   C     C_R   0.325426 0.000022 0.438387 0.009866
C41   C     C_R   0.175157 0.499974 0.559283 0.009168
C42   C     C_R   0.823465 0.499909 0.449553 0.005474
C43   C     C_R   0.611467 0.999753 0.468561 -0.073433
C44   C     C_R   0.410601 0.000135 0.475833 -0.072361
C45   C     C_R   0.093088 0.500008 0.514622 -0.072777
C46   C     C_R   0.456866 0.128148 0.491076 -0.303448
C47   C     C_R   0.892505 0.500002 0.522207 -0.073584
C48   C     C_R   0.101865 0.374511 0.479187 0.660777
C49   C     C_R   0.882356 0.625866 0.554430 0.661593
C50   C     C_R   0.882130 0.374211 0.555000 0.661013
C51   C     C_R   0.101476 0.625657 0.480324 0.661808
C52   C     C_R   0.621059 0.873498 0.438771 0.661466
C53   C     C_R   0.403357 0.126125 0.508772 0.659590
C54   C     C_R   0.401869 0.874775 0.512494 0.659098
C55   C     C_R   0.622080 0.125685 0.436563 0.660441
C56   C     C_3   0.681585 0.000841 0.632454 -0.387205
C57   C     C_R   0.455339 0.872303 0.495204 -0.302039
C58   C     C_3   0.738974 0.997025 0.622414 -0.326899
C59   C     C_3   0.743895 0.044674 0.690974 -0.677628
C60   C     C_3   0.304036 0.000112 0.371271 -0.353097
C61   C     C_3   0.339259 0.954081 0.287528 -0.450668
C62   C     C_3   0.317051 0.955007 0.222047 -0.647151
C63   C     C_3   0.194974 0.500161 0.628501 -0.352771
C64   C     C_3   0.158601 0.454484 0.711927 -0.450443
C65   C     C_3   0.179280 0.455532 0.779465 -0.653438
C66   C     C_3   0.810146 0.499971 0.372375 -0.357771
C67   C     C_3   0.851120 0.455696 0.291006 -0.439325
C68   C     C_R   0.572890 0.127518 0.436092 -0.298362
C69   C     C_3   0.836512 0.456005 0.215927 -0.685453
C70   C     C_R   0.720469 0.265972 0.954629 -0.077300
C71   C     C_R   0.280377 0.735584 0.044727 -0.075710
C72   C     C_R   0.279501 0.266071 0.045364 -0.078838
C73   C     C_R   0.298285 0.731601 0.324014 0.906213
C74   C     C_R   0.720096 0.734690 0.954917 -0.078872
C75   C     C_R   0.220371 0.765886 0.954756 -0.079293
C76   C     C_R   0.780376 0.235529 0.044714 -0.076765
C77   C     C_R   0.779913 0.765334 0.045065 -0.078540
C78   C     C_R   0.219521 0.235771 0.955356 -0.076460
C79   C     C_R   0.734583 0.194834 0.962542 0.737269
C80   C     C_R   0.266298 0.806716 0.036678 0.738022
C81   C     C_R   0.265463 0.194944 0.037200 0.741015
C82   C     C_R   0.734065 0.805880 0.962989 0.739086
C83   C     C_R   0.234443 0.694762 0.962824 0.741015
C84   C     C_R   0.298134 0.268712 0.324073 0.907921
C85   C     C_R   0.766301 0.306681 0.036745 0.737239
C86   C     C_R   0.765952 0.694143 0.036982 0.739754
C87   C     C_R   0.233556 0.306910 0.963513 0.738104
C88   C     C_R   0.764279 0.180023 0.006787 -0.370682
C89   C     C_R   0.236524 0.821457 0.992524 -0.366204
C90   C     C_R   0.235719 0.180203 0.993015 -0.368659
C91   C     C_R   0.763742 0.820795 0.007247 -0.371351
C92   C     C_R   0.264200 0.680022 0.006985 -0.368276
C93   C     C_R   0.736565 0.321491 0.992546 -0.368625
C94   C     C_R   0.736272 0.679228 0.992731 -0.369771
C95   C     C_R   0.701848 0.731324 0.675924 0.920628
C96   C     C_R   0.263322 0.321653 0.007689 -0.366321
C97   C     C_R   0.644109 0.328024 0.945900 -0.296854
C98   C     C_R   0.356455 0.672985 0.053713 -0.296270
C99   C     C_R   0.355870 0.328068 0.054111 -0.294670
C100  C     C_R   0.643904 0.672335 0.946043 -0.296567
C101  C     C_R   0.144038 0.827951 0.945966 -0.295246
C102  C     C_R   0.856425 0.172911 0.053740 -0.298939
C103  C     C_R   0.856106 0.827670 0.053945 -0.296755
C104  C     C_R   0.143483 0.173116 0.946329 -0.297559
C105  C     C_R   0.616998 0.347978 0.898214 -0.065949
C106  C     C_R   0.201850 0.768682 0.675928 0.908066
C107  C     C_R   0.383314 0.652516 0.101609 -0.065997
C108  C     C_R   0.382996 0.348005 0.101783 -0.066373
C109  C     C_R   0.616919 0.652120 0.898249 -0.065811
C110  C     C_R   0.116954 0.847936 0.898250 -0.066433
C111  C     C_R   0.883281 0.152451 0.101641 -0.065338
C112  C     C_R   0.883083 0.847886 0.101749 -0.065556
C113  C     C_R   0.116659 0.152558 0.898407 -0.066357
C114  C     C_R   0.633546 0.322257 0.813401 -0.336513
C115  C     C_R   0.366748 0.678160 0.186484 -0.338144
C116  C     C_R   0.366457 0.322294 0.186589 -0.337079
C117  C     C_R   0.798272 0.231574 0.324024 0.918480
C118  C     C_R   0.633529 0.677686 0.813357 -0.339077
C119  C     C_R   0.133502 0.822222 0.813433 -0.337211
C120  C     C_R   0.866693 0.178060 0.186535 -0.342693
C121  C     C_R   0.866464 0.822334 0.186650 -0.340097
C122  C     C_R   0.133240 0.178151 0.813511 -0.338494
C123  C     C_R   0.679696 0.281222 0.771351 -0.214295
C124  C     C_R   0.320791 0.719609 0.228367 -0.215405
C125  C     C_R   0.320323 0.281221 0.228613 -0.213646
C126  C     C_R   0.679596 0.718898 0.771397 -0.214219
C127  C     C_R   0.179622 0.781129 0.771416 -0.213917
C128  C     C_R   0.798144 0.768696 0.324079 0.919967
C129  C     C_R   0.820733 0.219497 0.228414 -0.216034
C130  C     C_R   0.820392 0.781134 0.228609 -0.215788
C131  C     C_R   0.179169 0.219667 0.771661 -0.215600
C132  C     C_R   0.707579 0.259617 0.818072 0.704068
C133  C     C_R   0.293287 0.741922 0.181305 0.690145
C134  C     C_R   0.292463 0.259574 0.181855 0.702674
C135  C     C_R   0.707322 0.740804 0.818262 0.712423
C136  C     C_R   0.207439 0.759420 0.818213 0.701237
C137  C     C_R   0.793212 0.241771 0.181367 0.704022
C138  C     C_R   0.792664 0.759242 0.181740 0.712632
C139  C     C_R   0.201701 0.231627 0.676000 0.905964
C140  C     C_R   0.206625 0.242078 0.818774 0.688786
C141  C     C_R   0.689589 0.283059 0.906428 0.037827
C142  C     C_R   0.311237 0.718436 0.092959 0.037354
C143  C     C_R   0.310408 0.283084 0.093547 0.034813
C144  C     C_R   0.689297 0.717448 0.906642 0.033287
C145  C     C_R   0.189478 0.782919 0.906550 0.035268
C146  C     C_R   0.811187 0.218317 0.093003 0.033457
C147  C     C_R   0.810705 0.782577 0.093350 0.031314
C148  C     C_R   0.188674 0.218607 0.907111 0.038020
C149  C     C_R   0.695753 0.128354 0.519758 0.910708
C150  C     C_R   0.048806 0.372115 0.494474 -0.303854
C151  C     C_R   0.305968 0.871809 0.475751 0.887689
C152  C     C_R   0.306550 0.128407 0.473963 0.880313
C153  C     C_R   0.695402 0.871593 0.520837 0.907746
C154  C     C_R   0.193843 0.628391 0.525019 0.882984
C155  C     C_R   0.804294 0.371679 0.480226 0.901790
C156  C     C_R   0.804889 0.628373 0.478606 0.888668
C157  C     C_R   0.194374 0.371752 0.523429 0.890040
C158  C     C_R   0.074283 0.099259 0.933716 0.936250
C159  C     C_R   0.925678 0.900815 0.066305 0.937686
C160  C     C_R   0.925707 0.099240 0.066299 0.936399
F1    F     F_    0.135939 0.323530 0.422961 -0.619105
F2    F     F_    0.282518 0.862244 0.069455 -0.633610
F3    F     F_    0.281709 0.139411 0.069891 -0.622219
F4    F     F_    0.717832 0.861295 0.930115 -0.619181
F5    F     F_    0.218220 0.639229 0.930057 -0.621684
F6    F     F_    0.782492 0.362158 0.069644 -0.626932
F7    F     F_    0.782200 0.638729 0.069838 -0.619896
F8    F     F_    0.217306 0.362434 0.930815 -0.632052
F9    F     F_    0.753928 0.220128 0.776452 -0.610943
F10   F     F_    0.247262 0.782064 0.222668 -0.612731
F11   F     F_    0.246191 0.219928 0.223400 -0.603232
F12   F     F_    0.846750 0.679140 0.600837 -0.618658
F13   F     F_    0.753533 0.780579 0.776775 -0.601558
F14   F     F_    0.253692 0.719735 0.776671 -0.603749
F15   F     F_    0.747180 0.281897 0.222730 -0.603034
F16   F     F_    0.746439 0.719499 0.223227 -0.596115
F17   F     F_    0.252607 0.282304 0.777467 -0.613094
F18   F     F_    0.846613 0.320805 0.601197 -0.618307
F19   F     F_    0.135556 0.676456 0.423753 -0.618861
F20   F     F_    0.656287 0.819134 0.395363 -0.617533
F21   F     F_    0.370322 0.177025 0.566696 -0.619133
F22   F     F_    0.368262 0.824283 0.570362 -0.619474
F23   F     F_    0.657486 0.179982 0.393704 -0.618801
F24   F     F_    0.718470 0.139356 0.929525 -0.624727
H1    H     H_    0.035242 0.323580 0.476515 0.182390
H2    H     H_    0.273889 0.624728 0.013064 0.204001
H3    H     H_    0.273024 0.376937 0.013818 0.204009
H4    H     H_    0.726636 0.623901 0.986648 0.204091
H5    H     H_    0.226802 0.876741 0.986476 0.204013
H6    H     H_    0.773989 0.124719 0.012769 0.203611
H7    H     H_    0.773378 0.876122 0.013328 0.203701
H8    H     H_    0.226057 0.124906 0.986852 0.204022
H9    H     H_    0.630639 0.348612 0.012936 0.192237
H10   H     H_    0.369887 0.652378 0.986696 0.192582
H11   H     H_    0.369314 0.348681 0.987109 0.192820
H12   H     H_    0.944159 0.676744 0.572175 0.181984
H13   H     H_    0.630408 0.651840 0.013114 0.192534
H14   H     H_    0.130583 0.848571 0.012984 0.192460
H15   H     H_    0.869887 0.152346 0.986696 0.191749
H16   H     H_    0.869612 0.848153 0.986866 0.192159
H17   H     H_    0.130049 0.152540 0.013345 0.192220
H18   H     H_    0.612520 0.338593 0.777528 0.206354
H19   H     H_    0.387527 0.661355 0.222583 0.206309
H20   H     H_    0.387480 0.338649 0.222472 0.206355
H21   H     H_    0.612615 0.661123 0.777374 0.206688
H22   H     H_    0.112508 0.838611 0.777526 0.206147
H23   H     H_    0.944267 0.323130 0.571728 0.181383
H24   H     H_    0.887478 0.161269 0.222630 0.206412
H25   H     H_    0.887376 0.838895 0.222636 0.206448
H26   H     H_    0.112495 0.161265 0.777376 0.206077
H27   H     H_    0.735855 0.101554 0.682424 0.283810
H28   H     H_    0.714424 0.027239 0.760335 0.279276
H29   H     H_    0.785574 0.040513 0.681603 0.254407
H30   H     H_    0.747446 0.941390 0.635392 0.252011
H31   H     H_    0.770814 0.011890 0.553513 0.244033
H32   H     H_    0.659886 0.049540 0.671285 0.192582
H33   H     H_    0.657043 0.955461 0.675657 0.179797
H34   H     H_    0.034969 0.676435 0.477342 0.182663
H35   H     H_    0.275184 0.932787 0.254754 0.294038
H36   H     H_    0.316596 0.010697 0.199064 0.273969
H37   H     H_    0.343223 0.921403 0.162542 0.264525
H38   H     H_    0.381443 0.975391 0.252953 0.234696
H39   H     H_    0.340913 0.897373 0.305764 0.220605
H40   H     H_    0.260915 0.983034 0.404346 0.238277
H41   H     H_    0.305458 0.054993 0.344943 0.211600
H42   H     H_    0.179472 0.511282 0.802527 0.273730
H43   H     H_    0.152326 0.422168 0.838689 0.260716
H44   H     H_    0.221043 0.433104 0.748491 0.295826
H45   H     H_    0.559737 0.822478 0.419732 0.182438
H46   H     H_    0.116494 0.476023 0.744771 0.234083
H47   H     H_    0.157136 0.397726 0.693648 0.220532
H48   H     H_    0.237975 0.482783 0.597207 0.238972
H49   H     H_    0.193328 0.555095 0.654865 0.211235
H50   H     H_    0.795760 0.431750 0.239946 0.297998
H51   H     H_    0.836561 0.511760 0.192724 0.273608
H52   H     H_    0.866796 0.423927 0.158190 0.250927
H53   H     H_    0.892430 0.478813 0.265002 0.235632
H54   H     H_    0.852398 0.399002 0.309629 0.219896
H55   H     H_    0.768018 0.481200 0.396212 0.241498
H56   H     H_    0.470974 0.176763 0.507867 0.183372
H57   H     H_    0.812443 0.554988 0.345891 0.209534
H58   H     H_    0.468994 0.823889 0.513191 0.183278
H59   H     H_    0.561519 0.176557 0.415471 0.182422
H60   H     H_    0.726828 0.376784 0.986579 0.203964
O1    O     O_R   0.746490 0.236330 0.638080 -0.534966
O2    O     O_R   0.325830 0.813840 0.483730 -0.569156
O3    O     O_R   0.325830 0.186160 0.483730 -0.561484
O4    O     O_R   0.674170 0.813840 0.516270 -0.579521
O5    O     O_R   0.174170 0.686160 0.516270 -0.565722
O6    O     O_R   0.825830 0.313840 0.483730 -0.580219
O7    O     O_R   0.825830 0.686160 0.483730 -0.574364
O8    O     O_R   0.174170 0.313840 0.516270 -0.572713
O9    O     O_R   0.739960 0.127620 0.525000 -0.644348
O10   O     O_R   0.260040 0.872380 0.475000 -0.642164
O11   O     O_R   0.260040 0.127620 0.475000 -0.645536
O12   O     O_R   0.253510 0.763670 0.361920 -0.527635
O13   O     O_R   0.739960 0.872380 0.525000 -0.655380
O14   O     O_R   0.239960 0.627620 0.525000 -0.645143
O15   O     O_R   0.760040 0.372380 0.475000 -0.642080
O16   O     O_R   0.760040 0.627620 0.475000 -0.644353
O17   O     O_R   0.239960 0.372380 0.525000 -0.641939
O18   O     O_R   0.680700 0.294870 0.629350 -0.645807
O19   O     O_R   0.319300 0.705130 0.370650 -0.646670
O20   O     O_R   0.319300 0.294870 0.370650 -0.647999
O21   O     O_R   0.680700 0.705130 0.629350 -0.647664
O22   O     O_R   0.180700 0.794870 0.629350 -0.647703
O23   O     O_R   0.253510 0.236330 0.361920 -0.528036
O24   O     O_R   0.819300 0.205130 0.370650 -0.651713
O25   O     O_R   0.819300 0.794870 0.370650 -0.651088
O26   O     O_R   0.180700 0.205130 0.629350 -0.646426
O27   O     O_R   0.062020 0.072840 0.007170 -0.625831
O28   O     O_R   0.937980 0.927160 0.992830 -0.626410
O29   O     O_R   0.937980 0.072840 0.992830 -0.626570
O30   O     O_R   0.062020 0.927160 0.007170 -0.625829
O31   O     O_R   0.562020 0.572840 0.007170 -0.626360
O32   O     O_R   0.437980 0.427160 0.992830 -0.625762
O33   O     O_R   0.437980 0.572840 0.992830 -0.625695
O34   O     O_R   0.746490 0.763670 0.638080 -0.523722
O35   O     O_R   0.562020 0.427160 0.007170 -0.626203
O36   O     O_R   0.947860 0.073950 0.109290 -0.626022
O37   O     O_R   0.052140 0.926050 0.890710 -0.625539
O38   O     O_R   0.052140 0.073950 0.890710 -0.625791
O39   O     O_R   0.947860 0.926050 0.109290 -0.625811
O40   O     O_R   0.447860 0.573950 0.109290 -0.625585
O41   O     O_R   0.552140 0.426050 0.890710 -0.625195
O42   O     O_R   0.552140 0.573950 0.890710 -0.625291
O43   O     O_R   0.447860 0.426050 0.109290 -0.625494
O44   O     O_R   0.246490 0.736330 0.638080 -0.529574
O45   O     O_R   0.753510 0.263670 0.361920 -0.513197
O46   O     O_R   0.753510 0.736330 0.361920 -0.513791
O47   O     O_R   0.246490 0.263670 0.638080 -0.529649
O48   O     O_R   0.674170 0.186160 0.516270 -0.580502
Zn1   Zn    Zn3+2 0.792340 0.208750 0.507670 1.044453
Zn2   Zn    Zn3+2 0.494040 0.500000 0.919480 0.974688
Zn3   Zn    Zn3+2 0.005960 0.000000 0.080520 0.970844
Zn4   Zn    Zn3+2 0.994040 0.000000 0.919480 0.969855
Zn5   Zn    Zn3+2 0.207660 0.791250 0.492330 1.069493
Zn6   Zn    Zn3+2 0.207660 0.208750 0.492330 1.073591
Zn7   Zn    Zn3+2 0.792340 0.791250 0.507670 1.052360
Zn8   Zn    Zn3+2 0.292340 0.708750 0.507670 1.076652
Zn9   Zn    Zn3+2 0.707660 0.291250 0.492330 1.071413
Zn10  Zn    Zn3+2 0.707660 0.708750 0.492330 1.077222
Zn11  Zn    Zn3+2 0.292340 0.291250 0.507670 1.073410
Zn12  Zn    Zn3+2 0.505960 0.500000 0.080520 0.972769

loop_
_geom_bond_atom_site_label_1
_geom_bond_atom_site_label_2
_ccdc_geom_bond_type
C157  O17   A    
C28   C47   A    
C36   C42   A    
C153  O13   A    
C150  H1    S    
C139  O47   A    
O16   Zn10  S    
O17   Zn11  S    
C124  C133  A    
C135  F13   S    
O4    Zn10  S    
C50   F18   S    
C69   H52   S    
O37   Zn4   S    
C99   H11   S    
C84   C125  S    
O36   Zn3   S    
C79   F24   S    
O23   Zn6   S    
C62   H37   S    
C97   H9    S    
C37   C42   A    
C74   C94   A    
C131  C140  A    
C134  C143  A    
C113  C122  A    
C10   C20   A    
C115  H19   S    
C77   C147  S    
C78   C148  S    
O26   Zn6   S    
C97   C105  A    
C24   C51   A    
C70   C79   A    
C76   C146  S    
C100  C109  A    
C8    C16   A    
C102  C111  A    
C7    O35   A    
C116  H20   S    
C109  C118  A    
C20   C150  A    
C136  F14   S    
C120  H24   S    
C137  C146  A    
C70   C93   A    
C127  C136  A    
C100  C144  A    
C101  C110  A    
C91   H7    S    
C106  C127  S    
O15   Zn9   S    
C82   C91   A    
C84   O23   A    
C29   C45   A    
C103  C112  A    
O29   Zn4   S    
C133  F10   S    
C57   H58   S    
O32   Zn2   S    
C39   C56   S    
O44   Zn8   S    
O19   Zn8   S    
C81   C90   A    
C13   C18   A    
C41   C63   S    
C130  C138  A    
C3    O30   A    
C99   C143  A    
C14   C57   A    
C77   C91   A    
O35   Zn12  S    
O3    Zn11  S    
C2    C19   A    
C25   C55   A    
C93   H60   S    
C64   H47   S    
C59   H29   S    
C67   H54   S    
C62   H35   S    
C9    C15   A    
C16   C35   A    
O10   Zn5   S    
C33   C149  S    
C102  H15   S    
C64   C65   S    
C82   F4    S    
C46   C53   A    
C117  O24   A    
C72   C96   A    
C158  O38   A    
C129  C137  A    
C84   O20   A    
C1    O1    A    
C35   H45   S    
C76   C85   A    
C78   C87   A    
C4    C109  S    
C11   C18   A    
C40   C60   S    
C123  C132  A    
C160  O36   A    
C121  C130  A    
C25   C43   A    
C151  O2    A    
C52   F20   S    
C156  O7    A    
C103  C147  A    
C90   H8    S    
C99   C108  A    
C12   C68   A    
C101  C145  A    
C133  C142  A    
C94   H4    S    
C137  F15   S    
C92   H2    S    
C3    C110  S    
C149  O9    A    
C153  O4    A    
C65   H43   S    
C61   H38   S    
C152  O3    A    
C26   C45   A    
C85   C93   A    
C71   C92   A    
O39   Zn3   S    
C29   C38   A    
C122  H26   S    
C117  C129  S    
C154  O14   A    
C128  O46   A    
C66   C67   S    
O6    Zn1   S    
C98   C142  A    
C96   H3    S    
C51   F19   S    
C59   H27   S    
C120  C129  A    
C38   C41   A    
O31   Zn12  S    
C73   O12   A    
C155  O15   A    
C8    C12   A    
C80   F2    S    
C10   C45   A    
C7    C105  S    
O48   Zn9   S    
O27   Zn3   S    
C114  C123  A    
O43   Zn12  S    
C122  C131  A    
C29   C51   A    
C27   C47   A    
C132  C141  A    
C70   C141  S    
C55   F23   S    
C117  O45   A    
C4    O31   A    
C110  C119  A    
C49   F12   S    
C66   H57   S    
C116  C125  A    
C104  H17   S    
C69   H51   S    
C112  C121  A    
C64   H46   S    
C95   C126  S    
O38   Zn4   S    
C28   C37   A    
C56   C58   S    
C30   C39   A    
C2    H12   S    
C103  H16   S    
C61   C62   S    
C56   H32   S    
C131  C139  S    
C75   C89   A    
C104  C113  A    
C34   C157  S    
C149  O48   A    
C15   C46   A    
C27   C49   A    
C25   C33   A    
C54   C57   A    
C119  C127  A    
C125  C134  A    
O30   Zn3   S    
C48   C150  A    
O45   Zn9   S    
C104  C148  A    
C11   C47   A    
C8    C43   A    
O47   Zn11  S    
C55   C68   A    
C78   C90   A    
C88   H6    S    
C83   F5    S    
C11   C19   A    
C106  O44   A    
O18   Zn9   S    
C95   O21   A    
C68   H59   S    
C31   C40   A    
C98   H10   S    
C80   C89   A    
C79   C88   A    
O33   Zn2   S    
O41   Zn2   S    
C159  O39   A    
C6    C107  S    
C114  H18   S    
C72   C81   A    
C26   C48   A    
C58   H31   S    
O21   Zn10  S    
C95   O34   A    
O22   Zn5   S    
C34   C41   A    
C74   C82   A    
C56   H33   S    
C139  O26   A    
C106  O22   A    
C118  H21   S    
C48   F1    S    
C58   C59   S    
C67   H53   S    
O7    Zn7   S    
C23   C44   A    
C60   C61   S    
C5    O43   A    
C62   H36   S    
O9    Zn1   S    
C9    C14   A    
C1    C123  S    
C7    O41   A    
C87   F8    S    
C12   C15   A    
C140  F17   S    
C119  H22   S    
O11   Zn6   S    
C97   C141  A    
O28   Zn4   S    
C151  O10   A    
C126  C135  A    
C132  F9    S    
C36   C156  S    
C159  O28   A    
C74   C144  S    
C115  C124  A    
C128  C130  S    
C152  O11   A    
C27   C36   A    
C21   C30   A    
C23   C32   A    
C108  C116  A    
O20   Zn11  S    
C75   C83   A    
C13   C50   A    
C1    O18   A    
C65   H42   S    
C4    O42   A    
C158  O27   A    
C35   C52   A    
C89   H5    S    
C6    O33   A    
C5    C108  S    
C72   C143  S    
O5    Zn5   S    
C112  C159  S    
C66   H55   S    
C128  O25   A    
C37   C155  S    
C111  C160  S    
C140  C148  A    
C75   C145  S    
C83   C92   A    
O42   Zn2   S    
C33   C39   A    
C85   F6    S    
C10   C17   A    
C60   H41   S    
O24   Zn1   S    
C86   C94   A    
C21   C43   A    
C28   C50   A    
C26   C34   A    
C30   C153  S    
C22   C44   A    
O34   Zn7   S    
O1    Zn1   S    
C54   F22   S    
O46   Zn10  S    
C121  H25   S    
C113  C158  S    
C76   C88   A    
C136  C145  A    
C100  H13   S    
C81   F3    S    
C60   H40   S    
C71   C80   A    
C155  O6    A    
O13   Zn7   S    
C22   C53   A    
C17   C24   A    
C22   C31   A    
C105  C114  A    
O8    Zn6   S    
O14   Zn8   S    
C101  H14   S    
C63   C64   S    
C65   H44   S    
C111  C120  A    
C67   C69   S    
C69   H50   S    
C61   H39   S    
C2    C49   A    
C53   F21   S    
C63   H49   S    
O2    Zn8   S    
C138  C147  A    
C73   C124  S    
C87   C96   A    
C13   H23   S    
C5    O32   A    
C107  C115  A    
C71   C142  S    
C135  C144  A    
C77   C86   A    
C46   H56   S    
C134  F11   S    
C138  F16   S    
C14   C16   A    
C38   C154  S    
C157  O8    A    
C58   H30   S    
O25   Zn7   S    
C59   H28   S    
C23   C54   A    
O40   Zn12  S    
C9    C44   A    
C6    O40   A    
C86   F7    S    
C154  O5    A    
O12   Zn5   S    
C102  C146  A    
C31   C152  S    
C32   C151  S    
C17   C19   A    
C18   C20   A    
C32   C40   A    
C73   O19   A    
C3    O37   A    
C42   C66   S    
C160  O29   A    
C118  C126  A    
C156  O16   A    
C21   C52   A    
C63   H48   S    
C98   C107  A    
C24   H34   S    
