data_mof_unit_18246.cif
_audit_creation_date              2012-10-26T18:27:07-0400
_audit_creation_method            fapswitch 2.2
_symmetry_space_group_name_H-M    P1
_symmetry_Int_Tables_number       1
_space_group_crystal_system       triclinic
_cell_length_a                    15.016094
_cell_length_b                    10.912978
_cell_length_c                    9.753895
_cell_angle_alpha                 90.088867
_cell_angle_beta                  89.240767
_cell_angle_gamma                 90.735252
_cell_volume                      1598.10028784

loop_
_atom_site_label
_atom_site_type_symbol
_atom_type_description
_atom_site_fract_x
_atom_site_fract_y
_atom_site_fract_z
_atom_type_partial_charge
C1    C     C_R   0.503017 0.265919 0.499416 0.533701
C2    C     C_R   0.185591 0.396553 0.458829 -0.162991
C3    C     C_R   0.232361 0.501295 0.500755 -0.007035
C4    C     C_R   0.329025 0.499745 0.500480 0.573358
C5    C     C_R   0.187393 0.608976 0.535536 0.259210
C6    C     C_2   0.490320 0.934132 0.395954 -0.197538
C7    C     C_2   0.474942 0.864476 0.507861 0.218028
C8    C     C_2   0.481842 0.067088 0.394586 -0.129496
C9    C     C_2   0.513369 0.134982 0.497544 -0.051501
C10   C     C_2   0.504019 0.401469 0.922191 0.025864
C11   C     C_2   0.486135 0.403569 0.074844 0.031012
C12   C     C_R   0.906851 0.603960 0.556712 0.032329
C13   C     C_R   0.494530 0.734291 0.501170 0.549935
C14   C     C_R   0.670814 0.501321 0.499375 0.557905
C15   C     C_R   0.813324 0.605331 0.553261 0.259992
C16   C     C_R   0.767170 0.503975 0.498731 0.021998
C17   C     C_R   0.812681 0.402610 0.447690 -0.172440
C18   C     C_R   0.905398 0.399995 0.451387 -0.034557
C19   C     C_R   0.952899 0.501531 0.503779 0.008762
C20   C     C_3   0.757833 0.793482 0.504543 -0.006409
C21   C     C_3   0.733846 0.915471 0.571742 -0.248938
C22   C     C_3   0.732753 0.018943 0.466626 -0.493780
C23   C     C_R   0.950931 0.296586 0.405029 -0.106636
C24   C     C_3   0.066669 0.145050 0.237076 0.005454
C25   C     C_3   0.022084 0.018461 0.249191 -0.267042
C26   C     C_3   0.999011 0.966191 0.108720 -0.479527
C27   C     C_3   0.221915 0.799287 0.445824 0.012095
C28   C     C_3   0.272573 0.762137 0.314826 -0.267920
C29   C     C_3   0.269936 0.862340 0.206086 -0.466874
C30   C     C_R   0.044585 0.293621 0.405452 0.279944
C31   C     C_R   0.092400 0.396128 0.455503 0.019531
C32   C     C_R   0.046480 0.500672 0.503351 -0.023037
C33   C     C_R   0.094083 0.605240 0.549307 0.013988
C34   C     C_R   0.047681 0.703819 0.607372 -0.142914
C35   C     C_R   0.955148 0.702879 0.611803 -0.134023
Cu1   Cu    Cu3+1 0.500020 0.500020 0.638630 1.095532
Cu2   Cu    Cu3+1 0.499980 0.499980 0.361370 1.052919
H1    H     H_    0.452983 0.109403 0.305032 0.141169
H2    H     H_    0.921725 0.780985 0.656481 0.153626
H3    H     H_    0.512268 0.892405 0.300331 0.157273
H4    H     H_    0.703419 0.765939 0.434650 0.169901
H5    H     H_    0.820491 0.807273 0.443185 0.117793
H6    H     H_    0.667207 0.907117 0.622073 0.205536
H7    H     H_    0.783587 0.938534 0.651439 0.179526
H8    H     H_    0.799680 0.031195 0.418447 0.140534
H9    H     H_    0.714435 0.105979 0.518198 0.145304
H10   H     H_    0.683484 0.998373 0.385628 0.154877
H11   H     H_    0.339397 0.838798 0.823015 0.361604
H12   H     H_    0.547675 0.093923 0.582393 0.159339
H13   H     H_    0.662218 0.752105 0.175946 0.335698
H14   H     H_    0.129201 0.135711 0.175951 0.153986
H15   H     H_    0.023679 0.208373 0.178141 0.122561
H16   H     H_    0.067752 0.955102 0.301273 0.165305
H17   H     H_    0.960280 0.024074 0.312351 0.153398
H18   H     H_    0.951143 0.026541 0.056366 0.156906
H19   H     H_    0.967948 0.873918 0.121284 0.156667
H20   H     H_    0.060094 0.957552 0.044120 0.152776
H21   H     H_    0.246606 0.890752 0.479019 0.217408
H22   H     H_    0.150357 0.810592 0.422285 0.105074
H23   H     H_    0.521191 0.314846 0.875003 0.144375
H24   H     H_    0.342778 0.744553 0.339419 0.207365
H25   H     H_    0.242841 0.676801 0.271969 0.159631
H26   H     H_    0.200283 0.878374 0.174791 0.144289
H27   H     H_    0.309090 0.833521 0.114457 0.179290
H28   H     H_    0.299299 0.949050 0.246034 0.163113
H29   H     H_    0.460745 0.567238 0.887664 0.277287
H30   H     H_    0.462925 0.318814 0.121716 0.089147
H31   H     H_    0.775475 0.324835 0.407611 0.110439
H32   H     H_    0.913319 0.217634 0.370015 0.103308
H33   H     H_    0.222529 0.316487 0.426757 0.169383
H34   H     H_    0.082873 0.782346 0.649250 0.156475
N1    N     N_2   0.499020 0.498660 0.846910 -0.284620
N2    N     N_2   0.499000 0.498630 0.153040 -0.066484
O1    O     O_R   0.500020 0.321960 0.617040 -0.510495
O2    O     O_2   0.492508 0.958272 0.762163 -0.298766
O3    O     O_2   0.361327 0.023031 0.634262 -0.309560
O4    O     O_3   0.362405 0.804057 0.735801 -0.454525
O5    O     O_2   0.636758 0.571824 0.988911 -0.254705
O6    O     O_2   0.516284 0.718292 0.033661 -0.298535
O7    O     O_3   0.631562 0.680675 0.218902 -0.497876
O8    O     O_3   0.090242 0.188128 0.369084 -0.578360
O9    O     O_3   0.235930 0.716387 0.555509 -0.527681
O10   O     O_R   0.499980 0.321920 0.382900 -0.539237
O11   O     O_R   0.370270 0.499990 0.617090 -0.472397
O12   O     O_R   0.370240 0.499950 0.382940 -0.538321
O13   O     O_R   0.500020 0.678080 0.617100 -0.416878
O14   O     O_R   0.499980 0.678040 0.382960 -0.485211
O15   O     O_R   0.629760 0.500050 0.617060 -0.458337
O16   O     O_R   0.629730 0.500010 0.382910 -0.451427
O17   O     O_3   0.766862 0.703503 0.607419 -0.548168
S1    S     S_3+6 0.422357 0.918148 0.662530 0.010349
S2    S     S_3+6 0.570656 0.617365 0.093872 0.111968

loop_
_geom_bond_atom_site_label_1
_geom_bond_atom_site_label_2
_ccdc_geom_bond_type
C24   H15   S    
C29   H26   S    
C23   H32   S    
C10   H23   S    
C26   H18   S    
C20   H4    S    
Cu1   O15   S    
C1    O1    A    
Cu2   O12   S    
Cu1   Cu2   S    
C25   H16   S    
C18   C19   A    
C30   C31   A    
C15   C16   A    
C34   C35   A    
C21   H6    S    
O4    S1    S    
C8    C9    D    
C5    C33   A    
C13   O13   A    
O2    S1    D    
C28   H24   S    
C24   H14   S    
C22   H10   S    
C29   H27   S    
C21   C22   S    
C8    H1    S    
C19   C32   A    
C11   H30   S    
C17   C18   A    
H29   N1    S    
C18   C23   A    
C23   C30   A    
C1    C9    S    
C25   H17   S    
C11   N2    D    
C16   C17   A    
C6    C8    S    
C4    O12   A    
O5    S2    D    
C25   C26   S    
C20   O17   S    
H13   O7    S    
C2    C31   A    
H11   O4    S    
O7    S2    S    
C35   H2    S    
C24   O8    S    
C14   O16   A    
C21   H7    S    
C31   C32   A    
C4    O11   A    
C12   C15   A    
C7    S1    S    
C13   O14   A    
C33   C34   A    
C9    H12   S    
C24   C25   S    
C12   C35   A    
O6    S2    D    
Cu1   O1    S    
C29   H28   S    
C22   H9    S    
C14   C16   S    
C3    C4    S    
Cu2   N2    S    
C28   C29   S    
C17   H31   S    
Cu2   O14   S    
C27   O9    S    
N2    S2    S    
C3    C5    A    
C27   H21   S    
C26   H19   S    
C20   H5    S    
C6    C7    D    
C1    O10   A    
Cu2   O16   S    
Cu1   O13   S    
C32   C33   A    
C30   O8    S    
C2    C3    A    
C14   O15   A    
C27   H22   S    
C15   O17   S    
C5    O9    S    
Cu1   O11   S    
C12   C19   A    
C6    H3    S    
C26   H20   S    
C10   C11   S    
O3    S1    D    
C7    C13   S    
C22   H8    S    
C20   C21   S    
C27   C28   S    
Cu2   O10   S    
C2    H33   S    
C34   H34   S    
Cu1   N1    S    
C28   H25   S    
C10   N1    D    
