data_mof_unit_43235.cif
_audit_creation_date              2012-12-10T19:46:55-0500
_audit_creation_method            fapswitch 2.2
_symmetry_space_group_name_H-M    P1
_symmetry_Int_Tables_number       1
_space_group_crystal_system       triclinic
_cell_length_a                    10.910008
_cell_length_b                    10.935478
_cell_length_c                    13.116322
_cell_angle_alpha                 90.065188
_cell_angle_beta                  90.401708
_cell_angle_gamma                 89.66167
_cell_volume                      1564.79122942

loop_
_atom_site_label
_atom_site_type_symbol
_atom_type_description
_atom_site_fract_x
_atom_site_fract_y
_atom_site_fract_z
_atom_type_partial_charge
C1    C     C_R   0.500814 0.259552 0.499904 0.859011
C2    C     C_R   0.426825 0.844997 0.755679 -0.121148
C3    C     C_R   0.603312 0.126383 0.327177 0.202354
C4    C     C_R   0.372774 0.872339 0.660881 0.165588
C5    C     C_R   0.723436 0.171488 0.330922 -0.121862
C6    C     C_R   0.250506 0.839541 0.642089 -0.151989
C7    C     C_R   0.771742 0.232011 0.246417 -0.146875
C8    C     C_R   0.182527 0.782121 0.718009 -0.144989
C9    C     C_R   0.701039 0.247327 0.158071 -0.118352
C10   C     C_R   0.236825 0.754690 0.812138 -0.115699
C11   C     C_R   0.556062 0.935390 0.419393 0.207190
C12   C     C_R   0.500076 0.740363 0.500121 0.880870
C13   C     C_R   0.447103 0.064649 0.582723 0.205262
C14   C     C_R   0.499940 0.872767 0.500424 -0.190868
C15   C     C_R   0.498958 0.127046 0.499403 -0.190170
C16   C     C_R   0.259553 0.495094 0.499230 0.806796
C17   C     C_R   0.740436 0.504413 0.500591 0.840149
C18   C     C_R   0.443276 0.936944 0.581122 -0.125181
C19   C     C_R   0.550301 0.062556 0.416361 -0.104522
C20   C     C_1   0.500258 0.500206 0.173565 0.145741
C21   C     C_1   0.500030 0.499910 0.826434 0.160569
C22   C     C_1   0.500390 0.500255 0.050679 -0.110900
C23   C     C_R   0.872883 0.503881 0.501768 -0.093493
C24   C     C_1   0.500211 0.500046 0.949316 -0.115356
C25   C     C_R   0.190225 0.519471 0.144931 -0.140267
C26   C     C_R   0.835112 0.530803 0.864764 -0.143019
C27   C     C_R   0.146548 0.541670 0.243132 -0.174479
C28   C     C_R   0.886671 0.494242 0.772620 -0.179530
C29   C     C_R   0.115976 0.443879 0.307247 0.095322
C30   C     C_R   0.883305 0.572075 0.687539 0.047250
C31   C     C_R   0.128982 0.322611 0.271504 0.279329
C32   C     C_R   0.828916 0.690179 0.695533 0.310506
C33   C     C_R   0.172690 0.301539 0.172509 -0.207383
C34   C     C_R   0.127076 0.493625 0.497640 -0.087055
C35   C     C_R   0.776543 0.724609 0.789674 -0.140541
C36   C     C_R   0.203200 0.399606 0.109667 -0.155053
C37   C     C_R   0.780112 0.645589 0.873188 -0.182294
C38   C     C_R   0.932849 0.475671 0.410908 -0.241132
C39   C     C_R   0.066868 0.519544 0.588925 -0.259113
C40   C     C_3   0.568854 0.846603 0.247947 -0.638885
C41   C     C_3   0.276335 0.171903 0.662840 -0.648283
C42   C     C_3   0.197593 0.169013 0.389625 -0.687388
C43   C     C_3   0.800611 0.899585 0.623436 -0.739736
C44   C     C_R   0.940333 0.528870 0.591518 -0.009047
C45   C     C_R   0.059528 0.470604 0.407354 0.043846
C46   C     C_R   0.581439 0.202629 0.154027 -0.146506
C47   C     C_R   0.358934 0.786128 0.830955 -0.142838
C48   C     C_R   0.532328 0.143042 0.238433 -0.108345
Cu1   Cu    Cu3+1 0.499990 0.499990 0.592680 0.996789
Cu2   Cu    Cu3+1 0.500010 0.500010 0.407320 0.972790
H1    H     H_    0.236856 0.382673 0.033482 0.140954
H2    H     H_    0.928893 0.404566 0.767205 0.137109
H3    H     H_    0.182977 0.208966 0.144305 0.127302
H4    H     H_    0.733662 0.812867 0.800233 0.124737
H5    H     H_    0.880795 0.458470 0.341732 0.154188
H6    H     H_    0.118781 0.537378 0.658084 0.166793
H7    H     H_    0.738761 0.294255 0.092898 0.123313
H8    H     H_    0.184160 0.709539 0.870578 0.123193
H9    H     H_    0.526499 0.214826 0.085719 0.130666
H10   H     H_    0.400830 0.765322 0.903990 0.124569
H11   H     H_    0.439372 0.109412 0.234465 0.103542
H12   H     H_    0.739933 0.673577 0.944815 0.140630
H13   H     H_    0.520884 0.870003 0.771219 0.100391
H14   H     H_    0.684970 0.804033 0.372018 0.255636
H15   H     H_    0.569778 0.746794 0.233025 0.224953
H16   H     H_    0.620320 0.892244 0.186208 0.222784
H17   H     H_    0.472093 0.879051 0.246016 0.210672
H18   H     H_    0.423602 0.091402 0.738848 0.246329
H19   H     H_    0.250749 0.218207 0.735088 0.214304
H20   H     H_    0.213551 0.093816 0.650137 0.214859
H21   H     H_    0.265125 0.239246 0.600591 0.226290
H22   H     H_    0.046841 0.156187 0.295361 0.240625
H23   H     H_    0.779035 0.160134 0.399034 0.115249
H24   H     H_    0.258415 0.117776 0.337000 0.212638
H25   H     H_    0.162580 0.104821 0.447933 0.224809
H26   H     H_    0.251227 0.241446 0.428167 0.229463
H27   H     H_    0.891623 0.754079 0.554099 0.243578
H28   H     H_    0.807436 0.947910 0.549238 0.230965
H29   H     H_    0.867822 0.940145 0.677587 0.227433
H30   H     H_    0.705736 0.913087 0.651309 0.236861
H31   H     H_    0.207577 0.860132 0.569340 0.111607
H32   H     H_    0.863882 0.267291 0.249078 0.128802
H33   H     H_    0.087672 0.759184 0.703932 0.138636
H34   H     H_    0.213659 0.595298 0.095938 0.130056
H35   H     H_    0.837599 0.469911 0.929774 0.135169
H36   H     H_    0.135284 0.635143 0.269025 0.128206
N1    N     N_1   0.500030 0.500030 0.268070 -0.133677
N2    N     N_1   0.499970 0.499970 0.731930 -0.126430
N3    N     N_2   0.627731 0.872263 0.344997 -0.419520
N4    N     N_2   0.402280 0.130293 0.669386 -0.404838
N5    N     N_2   0.095853 0.222179 0.334015 -0.451169
N6    N     N_2   0.826525 0.770698 0.609030 -0.452657
O1    O     O_R   0.499980 0.319630 0.578260 -0.548230
O2    O     O_R   0.500020 0.680370 0.421740 -0.581365
O3    O     O_R   0.500000 0.319650 0.421740 -0.581885
O4    O     O_R   0.500000 0.680350 0.578260 -0.565655
O5    O     O_R   0.319630 0.500000 0.578260 -0.580927
O6    O     O_R   0.680370 0.500000 0.421740 -0.591087
O7    O     O_R   0.319650 0.500020 0.421740 -0.576708
O8    O     O_R   0.680350 0.499980 0.578260 -0.570229

loop_
_geom_bond_atom_site_label_1
_geom_bond_atom_site_label_2
_ccdc_geom_bond_type
H27   N6    S    
C46   H9    S    
C27   C29   A    
C8    H33   S    
C14   C18   A    
C30   C44   S    
C37   H12   S    
C43   H28   S    
C15   C19   A    
C11   C19   A    
C42   H25   S    
C17   C23   S    
C13   C18   A    
C35   C37   A    
C13   N4    S    
C11   C14   A    
Cu2   O3    S    
C43   H29   S    
C20   N1    T    
C3    C48   A    
C33   C36   A    
C42   N5    S    
C38   C45   A    
C16   C34   S    
C47   H10   S    
C38   H5    S    
C40   H17   S    
C25   H34   S    
H18   N4    S    
C31   C33   A    
C3    C19   S    
C1    C15   S    
C40   N3    S    
C17   O6    A    
C41   H21   S    
C4    C18   S    
C41   N4    S    
C21   N2    T    
C9    C46   A    
C6    H31   S    
C40   H16   S    
C35   H4    S    
Cu1   N2    S    
C12   O2    A    
H14   N3    S    
C33   H3    S    
C46   C48   A    
Cu2   O6    S    
C42   H24   S    
C34   C39   A    
C32   C35   A    
C4    C6    A    
C5    C7    A    
H22   N5    S    
Cu2   O2    S    
C6    C8    A    
C43   H30   S    
C23   C44   A    
C29   C45   S    
C27   H36   S    
C2    C4    A    
C11   N3    S    
C39   H6    S    
C1    O3    A    
Cu2   O7    S    
C26   C37   A    
C34   C45   A    
C36   H1    S    
Cu2   N1    S    
C1    O1    A    
C20   C22   S    
C31   N5    S    
C40   H15   S    
C13   C15   A    
C22   C24   T    
C2    H13   S    
C41   H19   S    
C7    C9    A    
C10   H8    S    
C26   C28   A    
C12   C14   S    
C3    C5    A    
C16   O7    A    
C39   C44   A    
C2    C47   A    
C25   C27   A    
C23   C38   A    
C42   H26   S    
C43   N6    S    
C28   C30   A    
C29   C31   A    
Cu1   O8    S    
C30   C32   A    
C28   H2    S    
C48   H11   S    
C32   N6    S    
C26   H35   S    
C9    H7    S    
Cu1   O4    S    
C5    H23   S    
C16   O5    A    
C17   O8    A    
C25   C36   A    
Cu1   O5    S    
C7    H32   S    
C8    C10   A    
Cu1   Cu2   S    
C21   C24   S    
C10   C47   A    
C12   O4    A    
Cu1   O1    S    
C41   H20   S    
