data_mof_unit_45331.cif
_audit_creation_date              2013-03-05T16:04:28-0500
_audit_creation_method            fapswitch 2.2
_symmetry_space_group_name_H-M    P1
_symmetry_Int_Tables_number       1
_space_group_crystal_system       triclinic
_cell_length_a                    10.888958
_cell_length_b                    9.668756
_cell_length_c                    15.12934
_cell_angle_alpha                 89.153067
_cell_angle_beta                  95.518519
_cell_angle_gamma                 90.177848
_cell_volume                      1585.29932792

loop_
_atom_site_label
_atom_site_type_symbol
_atom_site_description
_atom_site_fract_x
_atom_site_fract_y
_atom_site_fract_z
_atom_type_partial_charge
O1    O     O_R   0.319640 0.618740 0.499990 -0.546565
O2    O     O_R   0.680360 0.381260 0.500010 -0.546565
O3    O     O_R   0.680360 0.618740 0.500010 -0.539668
O4    O     O_R   0.319640 0.381260 0.499990 -0.539669
C1    C     C_R   0.262531 0.499825 0.500273 0.908028
C2    C     C_R   0.737469 0.500175 0.499727 0.908028
O5    O     O_R   0.499970 0.618800 0.370260 -0.536769
O6    O     O_R   0.500030 0.381200 0.629740 -0.536769
O7    O     O_R   0.500030 0.618800 0.629740 -0.611813
O8    O     O_R   0.499970 0.381200 0.370260 -0.611813
C3    C     C_R   0.499949 0.500996 0.328852 0.817042
C4    C     C_R   0.500051 0.499004 0.671148 0.817043
Cu1   Cu    Cu3+1 0.500000 0.640660 0.500000 1.008913
Cu2   Cu    Cu3+1 0.500000 0.359340 0.500000 1.008913
C5    C     C_R   0.518887 0.374273 0.817785 0.559287
C6    C     C_R   0.481113 0.625727 0.182215 0.559287
C7    C     C_R   0.498982 0.497390 0.768150 -0.169960
C8    C     C_R   0.501018 0.502610 0.231850 -0.169960
C9    C     C_R   0.477847 0.620982 0.811360 -0.318505
C10   C     C_R   0.522153 0.379018 0.188640 -0.318506
C11   C     C_R   0.476636 0.624231 0.903805 0.111623
C12   C     C_R   0.523364 0.375769 0.096195 0.111623
C13   C     C_R   0.499481 0.499991 0.953508 -0.026053
C14   C     C_R   0.500519 0.500009 0.046492 -0.026053
C15   C     C_R   0.521095 0.375398 0.910208 -0.030662
C16   C     C_R   0.478905 0.624602 0.089792 -0.030662
C17   C     C_R   0.453039 0.748269 0.947766 0.146796
C18   C     C_R   0.546961 0.251731 0.052234 0.146796
C19   C     C_R   0.454706 0.746691 0.040273 -0.153084
C20   C     C_R   0.545295 0.253309 0.959728 -0.153084
H1    H     H_    0.461471 0.714605 0.772071 0.207447
H2    H     H_    0.538529 0.285395 0.227929 0.207447
H3    H     H_    0.436143 0.841533 0.073776 0.195549
H4    H     H_    0.563857 0.158467 0.926224 0.195549
C21   C     C_R   0.061520 0.375736 0.488664 0.496815
C22   C     C_R   0.938480 0.624264 0.511336 0.496815
C23   C     C_R   0.934295 0.376233 0.487151 0.492990
C24   C     C_R   0.065705 0.623767 0.512849 0.492990
C25   C     C_R   0.871478 0.500356 0.499171 -0.483884
C26   C     C_R   0.128522 0.499644 0.500829 -0.483884
C27   C     C_R   0.420058 0.075238 0.441121 0.251503
C28   C     C_R   0.579942 0.924762 0.558879 0.251503
C29   C     C_R   0.580850 0.073121 0.558184 0.254397
C30   C     C_R   0.419150 0.926879 0.441816 0.254397
N1    N     N_R   0.500000 0.852070 0.500000 -0.187734
N2    N     N_R   0.500000 0.147930 0.500000 -0.187734
F1    F     F_    0.536441 0.252965 0.776750 -0.691442
F2    F     F_    0.463559 0.747035 0.223250 -0.691442
C31   C     C_3   0.424996 0.882717 0.897938 -0.839428
H5    H     H_    0.342108 0.870181 0.849930 0.255684
H6    H     H_    0.405657 0.967696 0.943171 0.233810
H7    H     H_    0.504989 0.914139 0.861897 0.239873
C32   C     C_3   0.575005 0.117283 0.102062 -0.839428
H8    H     H_    0.657893 0.129819 0.150070 0.255684
H9    H     H_    0.495013 0.085861 0.138102 0.239873
H10   H     H_    0.594344 0.032304 0.056829 0.233810
F3    F     F_    0.118012 0.253114 0.477878 -0.597106
F4    F     F_    0.881987 0.746886 0.522122 -0.597106
F5    F     F_    0.873401 0.254694 0.472455 -0.588012
F6    F     F_    0.126599 0.745306 0.527545 -0.588012
C33   C     C_3   0.333543 0.148358 0.370736 -0.676890
H11   H     H_    0.325404 0.259467 0.376292 0.273390
H12   H     H_    0.364088 0.129096 0.304081 0.177674
H13   H     H_    0.237732 0.110350 0.372662 0.253752
C34   C     C_3   0.666457 0.851642 0.629264 -0.676890
H14   H     H_    0.674596 0.740533 0.623708 0.273390
H15   H     H_    0.762268 0.889650 0.627338 0.253752
H16   H     H_    0.635912 0.870904 0.695919 0.177673
C35   C     C_3   0.677146 0.143926 0.621446 -0.624865
H17   H     H_    0.670930 0.255442 0.625309 0.267947
H18   H     H_    0.671297 0.106126 0.690413 0.225614
H19   H     H_    0.770560 0.121609 0.601835 0.244307
C36   C     C_3   0.322854 0.856074 0.378554 -0.624865
H20   H     H_    0.329070 0.744558 0.374691 0.267947
H21   H     H_    0.229439 0.878391 0.398165 0.244307
H22   H     H_    0.328703 0.893874 0.309587 0.225614

loop_
_geom_bond_atom_site_label_1
_geom_bond_atom_site_label_2
_geom_bond_distance
_ccdc_geom_bond_type
Cu1   N1    2.044072 S    
C3    C8    1.468604 S    
C17   C19   1.397791 A    
C36   H20   1.083347 S    
C5    F1    1.357725 S    
O3    C2    1.306138 A    
C9    H1    1.081317 S    
C6    F2    1.357724 S    
Cu2   N2    2.044073 S    
C32   H8    1.110272 S    
O5    C3    1.308013 A    
O1    C1    1.305602 A    
C9    C11   1.400787 A    
C14   C16   1.410848 A    
C22   F4    1.356557 S    
C35   H17   1.083347 S    
C5    C15   1.396404 A    
C19   H3    1.083180 S    
C15   C20   1.400711 A    
C35   H18   1.108028 S    
C33   H12   1.110281 S    
O7    Cu1   1.971087 S    
C7    C9    1.400734 A    
C34   H15   1.107913 S    
C4    C7    1.468603 S    
C28   C34   1.519935 S    
C27   N2    1.382324 A    
C27   C33   1.519935 S    
O3    Cu1   1.975973 S    
C31   H7    1.110468 S    
C11   C17   1.415996 A    
C29   C35   1.518579 S    
C12   C18   1.415996 A    
Cu1   Cu2   2.720014 S    
C36   H21   1.109302 S    
O2    C2    1.305601 A    
O7    C4    1.308660 A    
C32   H9    1.110467 S    
C6    C16   1.396403 A    
C20   H4    1.083180 S    
O8    Cu2   1.971087 S    
C31   H6    1.110481 S    
C28   N1    1.382322 A    
C33   H13   1.107913 S    
O6    C4    1.308011 A    
C34   H16   1.110281 S    
C23   F5    1.358143 S    
C24   F6    1.358143 S    
C10   C12   1.400787 A    
C34   H14   1.083378 S    
C11   C13   1.417567 A    
C27   C30   1.434344 A    
C12   C14   1.417567 A    
O1    Cu1   1.974667 S    
C28   C29   1.434344 A    
C35   H19   1.109301 S    
C30   N1    1.381748 A    
C10   H2    1.081317 S    
C32   H10   1.110481 S    
C30   C36   1.518578 S    
C5    C7    1.404199 A    
O6    Cu2   1.977300 S    
C21   C23   1.383359 A    
C22   C25   1.405954 A    
O4    C1    1.306138 A    
C18   C32   1.510184 S    
C21   F3    1.356557 S    
C22   C24   1.383359 A    
C21   C26   1.405954 A    
C23   C25   1.405949 A    
C24   C26   1.405949 A    
C18   C20   1.397789 A    
C36   H22   1.108028 S    
C8    C10   1.400734 A    
C13   C15   1.410848 A    
O4    Cu2   1.975974 S    
C33   H11   1.083378 S    
O2    Cu2   1.974666 S    
C29   N2    1.381746 A    
O8    C3    1.308660 A    
C13   C14   1.405743 A    
O5    Cu1   1.977300 S    
C16   C19   1.400711 A    
C6    C8    1.404198 A    
C31   H5    1.110272 S    
C1    C26   1.460048 S    
C2    C25   1.460048 S    
C17   C31   1.510183 S    
