data_mof_unit_34520.cif
_audit_creation_date              2012-10-26T19:41:50-0400
_audit_creation_method            fapswitch 2.2
_symmetry_space_group_name_H-M    P1
_symmetry_Int_Tables_number       1
_space_group_crystal_system       triclinic
_cell_length_a                    10.632276
_cell_length_b                    10.87396
_cell_length_c                    9.605988
_cell_angle_alpha                 88.520539
_cell_angle_beta                  89.585577
_cell_angle_gamma                 92.662127
_cell_volume                      1108.98784037

loop_
_atom_site_label
_atom_site_type_symbol
_atom_type_description
_atom_site_fract_x
_atom_site_fract_y
_atom_site_fract_z
_atom_type_partial_charge
C1    C     C_R   0.492113 0.262638 0.501968 0.539575
C2    C     C_R   0.409057 0.058597 0.607160 0.022995
C3    C     C_R   0.479537 0.128601 0.504586 -0.018809
C4    C     C_R   0.259523 0.500705 0.500435 0.539038
C5    C     C_R   0.533845 0.070756 0.393402 -0.170130
C6    C     C_R   0.524031 0.944770 0.382178 -0.018346
C7    C     C_R   0.472407 0.870774 0.493925 -0.003273
C8    C     C_R   0.676978 0.653078 0.138400 -0.051633
C9    C     C_R   0.766381 0.725378 0.063961 -0.177570
C10   C     C_R   0.764482 0.728237 0.920598 -0.154922
C11   C     C_R   0.674819 0.656961 0.850817 -0.059822
C12   C     C_3   0.959956 0.480347 0.368711 -0.141073
C13   C     C_R   0.586598 0.576165 0.922482 0.158541
C14   C     C_R   0.587123 0.575234 0.071958 0.181987
C15   C     C_R   0.417030 0.428246 0.076686 0.002530
C16   C     C_R   0.490794 0.737150 0.498159 0.526494
C17   C     C_R   0.417070 0.428302 0.928896 -0.004235
C18   C     C_R   0.740345 0.499136 0.499422 0.547272
C19   C     C_3   0.040151 0.519761 0.630896 -0.086675
C20   C     C_3   0.953660 0.409262 0.585928 -0.139292
C21   C     C_3   0.877092 0.498396 0.497789 0.053937
C22   C     C_3   0.962797 0.606234 0.540544 0.146869
C23   C     C_3   0.038505 0.390984 0.456886 -0.143400
C24   C     C_3   0.046701 0.591046 0.412274 -0.114978
C25   C     C_2   0.563672 0.898217 0.247005 0.227601
C26   C     C_3   0.010198 0.810215 0.630365 -0.320836
C27   C     C_3   0.122648 0.501498 0.501198 0.021374
C28   C     C_R   0.335687 0.114745 0.709151 -0.105258
C29   C     C_R   0.269994 0.044555 0.811284 -0.121244
C30   C     C_R   0.270242 0.917134 0.810019 -0.110179
C31   C     C_R   0.334029 0.859094 0.704943 -0.099334
C32   C     C_R   0.407331 0.927970 0.603557 0.012382
Cu1   Cu    Cu3+1 0.499990 0.499990 0.640660 0.910704
Cu2   Cu    Cu3+1 0.500010 0.500010 0.359340 0.946822
H1    H     H_    0.912758 0.334629 0.655751 0.115370
H2    H     H_    0.074875 0.537294 0.737618 0.113329
H3    H     H_    0.087013 0.666469 0.343127 0.116925
H4    H     H_    0.924576 0.463664 0.262062 0.125167
H5    H     H_    0.073276 0.301897 0.422435 0.110281
H6    H     H_    0.581487 0.125086 0.310637 0.132467
H7    H     H_    0.323860 0.212526 0.709291 0.130407
H8    H     H_    0.215665 0.089253 0.889439 0.104183
H9    H     H_    0.657931 0.921286 0.207639 0.078507
H10   H     H_    0.855268 0.759286 0.510743 0.235264
H11   H     H_    0.965065 0.895282 0.662114 0.136798
H12   H     H_    0.216138 0.862812 0.887412 0.117433
H13   H     H_    0.079760 0.834385 0.545991 0.149427
H14   H     H_    0.058720 0.771245 0.722106 0.149270
H15   H     H_    0.319125 0.760469 0.701821 0.151767
H16   H     H_    0.348968 0.369333 0.134007 0.115973
H17   H     H_    0.678348 0.666778 0.247360 0.176093
H18   H     H_    0.834379 0.783446 0.118217 0.100850
H19   H     H_    0.831191 0.788394 0.862978 0.137608
H20   H     H_    0.678300 0.670543 0.741079 0.199163
H21   H     H_    0.348623 0.369946 0.876284 0.101003
N1    N     N_R   0.501210 0.501210 0.147910 -0.239565
N2    N     N_R   0.501250 0.501290 0.852040 -0.248289
N3    N     N_2   0.915347 0.722236 0.582647 -0.534850
O1    O     O_R   0.499990 0.319640 0.618810 -0.504463
O2    O     O_R   0.500000 0.319660 0.381240 -0.506123
O3    O     O_R   0.316850 0.499960 0.618770 -0.525082
O4    O     O_R   0.316860 0.499980 0.381190 -0.496427
O5    O     O_R   0.500000 0.680340 0.618760 -0.539198
O6    O     O_R   0.500010 0.680360 0.381190 -0.471650
O7    O     O_R   0.683140 0.500020 0.618810 -0.510781
O8    O     O_R   0.683150 0.500040 0.381230 -0.537554
O9    O     O_2   0.487381 0.844521 0.172913 -0.480413

loop_
_geom_bond_atom_site_label_1
_geom_bond_atom_site_label_2
_ccdc_geom_bond_type
C22   N3    S    
C14   N1    A    
C20   C23   S    
Cu2   N1    S    
C6    C7    A    
C16   O5    A    
C23   C27   S    
C29   H8    S    
C18   O8    A    
C18   C21   S    
C11   C13   A    
C9    C10   A    
C17   H21   S    
C19   C20   S    
C25   O9    D    
C24   C27   S    
C26   H14   S    
C30   C31   A    
Cu1   O5    S    
C12   C23   S    
C15   N1    A    
C25   H9    S    
Cu2   O6    S    
C2    C3    A    
Cu1   O7    S    
Cu1   O1    S    
C21   C22   S    
C18   O7    A    
Cu2   O2    S    
C26   N3    S    
C8    H17   S    
Cu2   O8    S    
C29   C30   A    
C9    H18   S    
C26   H13   S    
C31   H15   S    
C23   H5    S    
C4    O3    A    
C2    C32   A    
C11   H20   S    
C28   C29   A    
Cu1   N2    S    
Cu1   Cu2   S    
C19   H2    S    
C1    O1    A    
C12   H4    S    
C5    C6    A    
C1    O2    A    
C22   C24   S    
C15   H16   S    
C6    C25   S    
C13   N2    A    
C10   C11   A    
C4    O4    A    
C28   H7    S    
Cu2   O4    S    
C4    C27   S    
C19   C27   S    
C20   C21   S    
Cu1   O3    S    
C19   C22   S    
C5    H6    S    
H10   N3    S    
C24   H3    S    
C15   C17   A    
C10   H19   S    
C12   C24   S    
C2    C28   A    
C7    C16   S    
C8    C14   A    
C7    C32   A    
C16   O6    A    
C26   H11   S    
C3    C5    A    
C13   C14   A    
C20   H1    S    
C12   C21   S    
C30   H12   S    
C31   C32   A    
C17   N2    A    
C8    C9    A    
C1    C3    S    
