data_mof_unit_55189.cif
_audit_creation_date              2012-12-11T15:34:21-0500
_audit_creation_method            fapswitch 2.2
_symmetry_space_group_name_H-M    P1
_symmetry_Int_Tables_number       1
_space_group_crystal_system       triclinic
_cell_length_a                    15.061189
_cell_length_b                    15.068939
_cell_length_c                    34.958431
_cell_angle_alpha                 90.574816
_cell_angle_beta                  90.165213
_cell_angle_gamma                 60.032495
_cell_volume                      6872.9541075

loop_
_atom_site_label
_atom_site_type_symbol
_atom_type_description
_atom_site_fract_x
_atom_site_fract_y
_atom_site_fract_z
_atom_type_partial_charge
C1    C     C_R   0.302526 0.608255 0.555709 0.540414
C2    C     C_R   0.656429 0.653216 0.670070 -0.013407
C3    C     C_R   0.204320 0.699275 0.274498 -0.165570
C4    C     C_R   0.142141 0.674114 0.296189 0.061150
C5    C     C_R   0.072280 0.651433 0.278135 0.255108
C6    C     C_R   0.065751 0.654647 0.238006 -0.114698
C7    C     C_R   0.129198 0.678696 0.216275 -0.003018
C8    C     C_R   0.201215 0.567271 0.353921 -0.098038
C9    C     C_R   0.238836 0.552618 0.391029 -0.170336
C10   C     C_R   0.177343 0.735578 0.397403 0.243521
C11   C     C_R   0.143664 0.748382 0.359572 -0.048553
C12   C     C_R   0.158036 0.664172 0.337552 0.023500
C13   C     C_R   0.575496 0.730285 0.649057 -0.047727
C14   C     C_R   0.232930 0.635026 0.412429 0.004202
C15   C     C_R   0.736035 0.025058 0.943188 0.543447
C16   C     C_R   0.745634 0.722859 0.945141 0.543947
C17   C     C_R   0.038218 0.733910 0.948253 0.568125
C18   C     C_R   0.723712 0.037324 0.053260 0.547742
C19   C     C_R   0.733905 0.734852 0.054880 0.538827
C20   C     C_R   0.026365 0.745599 0.058214 0.542180
C21   C     C_R   0.565226 0.717415 0.609891 0.234094
C22   C     C_R   0.666388 0.669090 0.789514 0.345261
C23   C     C_R   0.660843 0.660589 0.712038 0.347661
C24   C     C_R   0.754719 0.594817 0.851276 -0.122186
C25   C     C_R   0.773340 0.607257 0.889447 -0.124243
C26   C     C_R   0.627086 0.779359 0.889353 -0.132909
C27   C     C_R   0.608594 0.766985 0.851141 -0.124946
C28   C     C_R   0.674779 0.676108 0.831319 0.033532
C29   C     C_R   0.611434 0.589072 0.555013 0.536908
C30   C     C_R   0.712227 0.701140 0.908349 0.022294
C31   C     C_R   0.723529 0.070581 0.904979 0.021487
C32   C     C_R   0.636055 0.093644 0.883245 -0.123025
C33   C     C_R   0.633816 0.112239 0.844238 -0.118358
C34   C     C_R   0.718279 0.109500 0.826321 0.033905
C35   C     C_R   0.802434 0.094704 0.848389 -0.118586
C36   C     C_R   0.805286 0.074917 0.887482 -0.127182
C37   C     C_R   0.741707 0.186572 0.767089 -0.130846
C38   C     C_R   0.734795 0.198059 0.727493 -0.164022
C39   C     C_R   0.707245 0.138529 0.704505 0.063523
C40   C     C_R   0.590407 0.300468 0.553584 0.546824
C41   C     C_R   0.691467 0.063046 0.721494 0.247607
C42   C     C_R   0.697311 0.053068 0.761498 -0.110576
C43   C     C_R   0.720064 0.116165 0.784369 -0.007818
C44   C     C_R   0.592492 0.180646 0.647864 -0.070301
C45   C     C_R   0.564420 0.218955 0.610987 -0.130104
C46   C     C_R   0.724533 0.218847 0.604084 -0.126301
C47   C     C_R   0.752815 0.179946 0.640945 -0.127097
C48   C     C_R   0.685848 0.163038 0.663488 0.070094
C49   C     C_R   0.628669 0.241604 0.589199 0.019496
C50   C     C_R   0.091598 0.697503 0.910986 0.060894
C51   C     C_R   0.297347 0.611543 0.446888 0.533469
C52   C     C_R   0.115256 0.762933 0.890481 -0.173056
C53   C     C_R   0.138516 0.746673 0.851711 -0.139603
C54   C     C_R   0.140113 0.663901 0.832597 -0.000684
C55   C     C_R   0.127148 0.592229 0.853470 -0.109459
C56   C     C_R   0.102819 0.608110 0.892749 0.240679
C57   C     C_R   0.214690 0.564258 0.772105 -0.107729
C58   C     C_R   0.223143 0.559743 0.732305 -0.106787
C59   C     C_R   0.164090 0.647801 0.710330 0.032419
C60   C     C_R   0.094572 0.739693 0.728829 -0.107092
C61   C     C_R   0.086650 0.744309 0.768571 -0.105258
C62   C     C_R   0.608225 0.590341 0.445559 0.540455
C63   C     C_R   0.147736 0.657056 0.790536 0.035151
C64   C     C_R   0.188574 0.725566 0.651454 -0.111698
C65   C     C_R   0.220864 0.716744 0.613595 -0.113012
C66   C     C_R   0.232703 0.550664 0.608613 -0.125985
C67   C     C_R   0.200214 0.559619 0.646491 -0.117963
C68   C     C_R   0.181442 0.645496 0.668654 0.032658
C69   C     C_R   0.247058 0.627464 0.592282 0.019524
C70   C     C_R   0.695338 0.721874 0.091829 0.021712
C71   C     C_R   0.621181 0.808349 0.112038 -0.127138
C72   C     C_R   0.601848 0.800752 0.150479 -0.121725
C73   C     C_R   0.588345 0.301842 0.444079 0.549385
C74   C     C_R   0.655327 0.706433 0.169154 0.027858
C75   C     C_R   0.723679 0.618582 0.148243 -0.120939
C76   C     C_R   0.743821 0.626286 0.109897 -0.126017
C77   C     C_R   0.637355 0.620557 0.226873 -0.114571
C78   C     C_R   0.634445 0.612322 0.266442 -0.112906
C79   C     C_R   0.640475 0.684070 0.290525 0.010161
C80   C     C_R   0.649683 0.764175 0.274768 -0.119381
C81   C     C_R   0.652067 0.772806 0.235134 -0.115065
C82   C     C_R   0.646218 0.700820 0.210902 0.026888
C83   C     C_R   0.552525 0.742185 0.354874 0.253656
C84   C     C_R   0.634565 0.622876 0.591789 0.009694
C85   C     C_R   0.548576 0.718367 0.393132 -0.053400
C86   C     C_R   0.713159 0.563080 0.386960 -0.137005
C87   C     C_R   0.718798 0.586230 0.348928 -0.143719
C88   C     C_R   0.637873 0.673402 0.332172 0.014876
C89   C     C_R   0.626083 0.626782 0.408954 -0.032500
C90   C     C_R   0.704385 0.090338 0.090462 -0.008771
C91   C     C_R   0.779577 0.107758 0.106922 -0.145606
C92   C     C_R   0.774786 0.132311 0.145618 -0.177018
C93   C     C_R   0.695171 0.139324 0.168332 0.065594
C94   C     C_R   0.615006 0.130080 0.151713 0.243597
C95   C     C_R   0.720648 0.550845 0.612319 -0.162797
C96   C     C_R   0.619850 0.106285 0.112582 -0.123676
C97   C     C_R   0.623479 0.242015 0.227006 -0.084046
C98   C     C_R   0.616558 0.251988 0.266552 -0.122957
C99   C     C_R   0.684877 0.170986 0.289602 0.055051
C100  C     C_R   0.761941 0.080284 0.272930 -0.048370
C101  C     C_R   0.769067 0.068700 0.232991 0.003159
C102  C     C_R   0.698355 0.150679 0.209967 0.079663
C103  C     C_R   0.744887 0.189983 0.354129 0.252326
C104  C     C_R   0.720134 0.221842 0.392491 -0.117259
C105  C     C_R   0.556803 0.228349 0.385139 -0.140544
C106  C     C_R   0.731442 0.565844 0.650879 -0.140474
C107  C     C_R   0.580457 0.197579 0.347175 -0.170373
C108  C     C_R   0.672322 0.182068 0.331203 0.062953
C109  C     C_R   0.624262 0.245445 0.407591 -0.009364
C110  C     C_R   0.074436 0.715274 0.096050 0.022721
C111  C     C_R   0.081555 0.629435 0.114360 -0.125675
C112  C     C_R   0.104069 0.614651 0.153258 -0.117323
C113  C     C_R   0.119534 0.685557 0.174339 0.034936
C114  C     C_R   0.119477 0.767228 0.155423 -0.123199
C115  C     C_R   0.097790 0.781593 0.116581 -0.124905
C116  C     C_R   0.198397 0.700982 0.234872 -0.131709
Cr1   Cr    Cr6+3 0.421670 0.426920 0.499620 1.020303
Cr2   Cr    Cr6+3 0.427030 0.651190 0.500980 1.053244
Cr3   Cr    Cr6+3 0.651280 0.421870 0.499380 1.020333
Cr4   Cr    Cr6+3 0.910810 0.908010 0.001130 1.009538
Cr5   Cr    Cr6+3 0.682800 0.909890 0.998370 1.012312
Cr6   Cr    Cr6+3 0.908370 0.682300 0.002180 1.057830
H1    H     H_    0.776903 0.478936 0.599337 0.144250
H2    H     H_    0.873832 0.057239 0.903439 0.125198
H3    H     H_    0.825365 0.166523 0.652390 0.107396
H4    H     H_    0.746585 0.256817 0.714940 0.120843
H5    H     H_    0.759726 0.235573 0.784352 0.125775
H6    H     H_    0.567396 0.125408 0.827727 0.109597
H7    H     H_    0.683394 0.996587 0.774903 0.105457
H8    H     H_    0.538528 0.170263 0.664933 0.148676
H9    H     H_    0.489848 0.236191 0.600441 0.132341
H10   H     H_    0.868174 0.092737 0.835003 0.106188
H11   H     H_    0.775797 0.235315 0.587943 0.129112
H12   H     H_    0.108984 0.831139 0.903714 0.136653
H13   H     H_    0.193364 0.497714 0.658878 0.108369
H14   H     H_    0.278612 0.488270 0.718845 0.106338
H15   H     H_    0.262528 0.496154 0.788539 0.106957
H16   H     H_    0.151058 0.801397 0.836228 0.120260
H17   H     H_    0.047066 0.808242 0.712573 0.114139
H18   H     H_    0.032655 0.816191 0.782211 0.112375
H19   H     H_    0.175312 0.792381 0.667906 0.112975
H20   H     H_    0.839073 0.545333 0.903426 0.142641
H21   H     H_    0.231029 0.777297 0.601818 0.151560
H22   H     H_    0.129952 0.527258 0.838749 0.093919
H23   H     H_    0.251618 0.481202 0.592821 0.128718
H24   H     H_    0.582851 0.883188 0.098935 0.128337
H25   H     H_    0.801302 0.558457 0.095005 0.126759
H26   H     H_    0.784515 0.533328 0.331911 0.134946
H27   H     H_    0.627323 0.550061 0.278367 0.117666
H28   H     H_    0.632576 0.564404 0.208731 0.106336
H29   H     H_    0.547783 0.869206 0.165995 0.116875
H30   H     H_    0.655330 0.819446 0.293148 0.132222
H31   H     H_    0.796310 0.506107 0.666014 0.144070
H32   H     H_    0.660954 0.834205 0.223411 0.121086
H33   H     H_    0.480894 0.768805 0.409733 0.168605
H34   H     H_    0.766068 0.545049 0.162122 0.107313
H35   H     H_    0.774283 0.492145 0.398384 0.147509
H36   H     H_    0.845307 0.096489 0.090470 0.135294
H37   H     H_    0.561265 0.093293 0.100181 0.113624
H38   H     H_    0.524610 0.191023 0.329577 0.128528
H39   H     H_    0.557060 0.322618 0.279301 0.110402
H40   H     H_    0.568768 0.304729 0.209569 0.126821
H41   H     H_    0.518843 0.800254 0.663080 0.161408
H42   H     H_    0.835650 0.141217 0.158283 0.115390
H43   H     H_    0.814160 0.017997 0.291108 0.136598
H44   H     H_    0.773155 0.233785 0.409770 0.116782
H45   H     H_    0.482621 0.245413 0.396038 0.145162
H46   H     H_    0.064321 0.576835 0.099194 0.129032
H47   H     H_    0.092871 0.848516 0.103285 0.130777
H48   H     H_    0.108004 0.823946 0.347032 0.148069
H49   H     H_    0.806231 0.523178 0.836960 0.132440
H50   H     H_    0.259468 0.715143 0.288332 0.128670
H51   H     H_    0.248760 0.718714 0.218739 0.120025
H52   H     H_    0.105991 0.549770 0.167126 0.110146
H53   H     H_    0.010282 0.639924 0.223828 0.092807
H54   H     H_    0.212919 0.501619 0.337002 0.144789
H55   H     H_    0.279221 0.475156 0.401835 0.141003
H56   H     H_    0.130402 0.823468 0.171037 0.106016
H57   H     H_    0.578177 0.852472 0.903254 0.129167
H58   H     H_    0.545553 0.830557 0.836695 0.131368
H59   H     H_    0.571623 0.091319 0.895820 0.130372
N1    N     N_R   0.736591 0.584858 0.770049 -0.237917
N2    N     N_R   0.733643 0.580582 0.732130 -0.233766
N3    N     N_R   0.590163 0.744821 0.731468 -0.237475
N4    N     N_R   0.593204 0.749163 0.769470 -0.238489
O1    O     O_R   0.502070 0.323090 0.541280 -0.516161
O2    O     O_R   0.520720 0.641670 0.461580 -0.502676
O3    O     O_R   0.674120 0.502090 0.457500 -0.513723
O4    O     O_R   0.640110 0.338380 0.459630 -0.501134
O5    O     O_3   0.499990 0.499990 0.499990 -0.242790
O6    O     O_R   0.017640 0.822070 0.960410 -0.539615
O7    O     O_R   0.822000 0.989470 0.960340 -0.503199
O8    O     O_R   0.666920 0.007430 0.955290 -0.518831
O9    O     O_R   0.694410 0.812480 0.959650 -0.506558
O10   O     O_R   0.831550 0.656950 0.958960 -0.497388
O11   O     O_R   0.998590 0.685540 0.963930 -0.430218
O12   O     O_R   0.338340 0.520690 0.539540 -0.505755
O13   O     O_R   0.008220 0.831200 0.045060 -0.521864
O14   O     O_R   0.813270 0.997930 0.038810 -0.500162
O15   O     O_R   0.657500 0.016560 0.039940 -0.520209
O16   O     O_R   0.685680 0.820940 0.038120 -0.504858
O17   O     O_R   0.822130 0.666070 0.043610 -0.520351
O18   O     O_R   0.989860 0.694000 0.042400 -0.502885
O19   O     O_3   0.833990 0.833400 0.000560 -0.246732
O20   O     O_R   0.324760 0.674070 0.543580 -0.503613
O21   O     O_R   0.522400 0.640310 0.540110 -0.481887
O22   O     O_R   0.675940 0.500630 0.542210 -0.522678
O23   O     O_R   0.641790 0.337020 0.538150 -0.502072
O24   O     O_R   0.500260 0.324550 0.456580 -0.515860
O25   O     O_R   0.336660 0.522040 0.461020 -0.507059
O26   O     O_R   0.322940 0.675540 0.458880 -0.492530
O27   O     O_3   0.670310 0.000587 0.698632 -0.704595
H60   H     H_    0.661484 0.952202 0.715035 0.331275
O28   O     O_3   0.485474 0.797312 0.590919 -0.688868
H61   H     H_    0.506886 0.795575 0.564037 0.333914
O29   O     O_3   0.085071 0.540260 0.913047 -0.685061
H62   H     H_    0.095169 0.483089 0.895909 0.311134
O30   O     O_3   0.468842 0.829323 0.340811 -0.696541
H63   H     H_    0.475741 0.833818 0.312919 0.332903
C117  C     C_3   0.848555 0.967976 0.215633 -0.396539
H64   H     H_    0.810621 0.935646 0.197547 0.147984
H65   H     H_    0.902867 0.979395 0.197852 0.134495
H66   H     H_    0.893650 0.910916 0.237921 0.134360
O31   O     O_3   0.835618 0.173068 0.337901 -0.701727
H67   H     H_    0.877244 0.182673 0.357787 0.325279
O32   O     O_3   0.536344 0.138765 0.174603 -0.709587
H68   H     H_    0.487307 0.129073 0.158602 0.314886
O33   O     O_3   0.011130 0.627630 0.300133 -0.701675
H69   H     H_    0.966365 0.614293 0.283014 0.319455
O34   O     O_3   0.157272 0.822099 0.418034 -0.676666
H70   H     H_    0.152201 0.808990 0.445423 0.336597

loop_
_geom_bond_atom_site_label_1
_geom_bond_atom_site_label_2
_ccdc_geom_bond_type
C7    C116  A    
C112  H52   S    
C55   C56   A    
C40   O23   A    
C101  C102  A    
C52   H12   S    
C41   C42   A    
C25   H20   S    
C51   O25   A    
Cr3   O5    S    
C10   O34   S    
Cr6   O10   S    
C115  H47   S    
O31   H67   S    
C117  H65   S    
C97   C98   A    
C90   C91   A    
Cr1   O12   S    
C104  C109  A    
C39   C41   A    
C77   C78   A    
C52   C53   A    
C23   N2    A    
C99   C108  S    
C105  C107  A    
C46   C49   A    
C26   C27   A    
C93   C94   A    
C116  H51   S    
C64   C68   A    
C73   O24   A    
Cr1   O25   S    
C36   H2    S    
C3    C116  A    
Cr4   O7    S    
C5    C6    A    
C65   H21   S    
C3    H50   S    
C66   C69   A    
C40   O1    A    
C6    H53   S    
C44   H8    S    
C40   C49   S    
C62   C89   S    
C19   O16   A    
Cr4   O14   S    
N3    N4    A    
C34   C35   A    
C85   H33   S    
Cr6   O19   S    
C61   C63   A    
C24   H49   S    
Cr3   O3    S    
C79   C88   S    
C91   H36   S    
C103  C104  A    
Cr2   O2    S    
N1    N2    A    
C41   O27   S    
C75   H34   S    
C78   C79   A    
C35   C36   A    
C76   H25   S    
C8    C9    A    
C114  H56   S    
Cr4   O13   S    
C107  C108  A    
C97   H40   S    
C57   C63   A    
C103  C108  A    
O29   H62   S    
C4    C12   S    
C1    O20   A    
C31   C36   A    
C97   C102  A    
C72   H29   S    
C66   C67   A    
C59   C60   A    
C22   C28   S    
C15   O7    A    
C94   O32   S    
C74   C82   S    
Cr1   O5    S    
Cr5   O8    S    
C112  C113  A    
C38   H4    S    
C13   H41   S    
C47   H3    S    
C45   H9    S    
C87   H26   S    
C13   C21   A    
C53   H16   S    
C18   C90   S    
C47   C48   A    
Cr3   O4    S    
C32   H59   S    
Cr2   O20   S    
C24   C25   A    
C20   O18   A    
C29   C84   S    
C72   C74   A    
C74   C75   A    
Cr4   O6    S    
C91   C92   A    
C83   O30   S    
C85   C89   A    
C86   C87   A    
C4    C5    A    
O33   H69   S    
C58   H14   S    
C58   C59   A    
C53   C54   A    
C15   C31   S    
C2    C106  A    
C33   H6    S    
C81   C82   A    
C81   H32   S    
C67   C68   A    
C100  H43   S    
C84   C95   A    
Cr6   O18   S    
C37   C43   A    
C17   C50   S    
C67   H13   S    
C75   C76   A    
Cr5   O15   S    
C26   H57   S    
C37   C38   A    
C95   C106  A    
C51   O26   A    
C103  O31   S    
C54   C63   S    
C50   C52   A    
C14   C51   S    
C21   C84   A    
C45   C49   A    
C8    C12   A    
C106  H31   S    
O30   H63   S    
C71   H24   S    
C18   O14   A    
C33   C34   A    
C9    C14   A    
C57   H15   S    
C110  C111  A    
C46   C47   A    
C27   H58   S    
C94   C96   A    
C2    C13   A    
C20   O13   A    
C70   C71   A    
C11   H48   S    
C20   C110  S    
C83   C85   A    
C98   C99   A    
C50   C56   A    
C10   C14   A    
Cr4   O19   S    
Cr3   O22   S    
C42   C43   A    
C70   C76   A    
C3    C4    A    
Cr5   O9    S    
C2    C23   S    
C98   H39   S    
C9    H55   S    
C44   C45   A    
C62   O3    A    
C113  C114  A    
C95   H1    S    
C25   C30   A    
C80   H30   S    
C105  C109  A    
C54   C55   A    
C55   H22   S    
C111  C112  A    
Cr2   O21   S    
O28   H61   S    
C93   C102  S    
C31   C32   A    
C1    O12   A    
C34   C43   S    
C24   C28   A    
Cr5   O19   S    
Cr6   O11   S    
C80   C81   A    
C17   O11   A    
C86   C89   A    
C114  C115  A    
C77   H28   S    
C62   O2    A    
C11   C12   A    
C8    H54   S    
C61   H18   S    
C90   C96   A    
C6    C7    A    
C111  H46   S    
C29   O22   A    
C5    O33   S    
Cr1   O1    S    
C64   C65   A    
C7    C113  S    
C22   N4    A    
Cr1   O24   S    
Cr5   O16   S    
C23   N3    A    
Cr2   O26   S    
C16   O10   A    
C107  H38   S    
C99   C100  A    
C32   C33   A    
C46   H11   S    
C18   O15   A    
Cr2   O5    S    
C101  C117  S    
C92   H42   S    
C57   C58   A    
C38   C39   A    
C77   C82   A    
C65   C69   A    
C110  C115  A    
C92   C93   A    
C117  H64   S    
C83   C88   A    
C42   H7    S    
C73   C109  S    
C19   O17   A    
O34   H70   S    
C86   H35   S    
C1    C69   S    
C56   O29   S    
C16   O9    A    
C10   C11   A    
C29   O21   A    
C60   H17   S    
C104  H44   S    
C79   C80   A    
C15   O8    A    
C105  H45   S    
Cr6   O17   S    
C71   C72   A    
C96   H37   S    
O27   H60   S    
C87   C88   A    
C22   N1    A    
O32   H68   S    
C64   H19   S    
C27   C28   A    
C66   H23   S    
C21   O28   S    
C60   C61   A    
C59   C68   S    
C100  C101  A    
Cr3   O23   S    
C19   C70   S    
C16   C30   S    
C35   H10   S    
C117  H66   S    
C73   O4    A    
C44   C48   A    
C78   H27   S    
C17   O6    A    
C39   C48   S    
C37   H5    S    
C26   C30   A    
