data_mof_unit_58506.cif
_audit_creation_date              2012-10-26T19:57:52-0400
_audit_creation_method            fapswitch 2.2
_symmetry_space_group_name_H-M    P1
_symmetry_Int_Tables_number       1
_space_group_crystal_system       triclinic
_cell_length_a                    7.630177
_cell_length_b                    8.705776
_cell_length_c                    13.029441
_cell_angle_alpha                 84.174767
_cell_angle_beta                  77.498473
_cell_angle_gamma                 103.700722
_cell_volume                      810.220548601

loop_
_atom_site_label
_atom_site_type_symbol
_atom_type_description
_atom_site_fract_x
_atom_site_fract_y
_atom_site_fract_z
_atom_type_partial_charge
C1    C     C_R   0.451822 0.199567 0.503919 0.527477
C2    C     C_R   0.734570 0.593790 0.107084 0.258153
C3    C     C_R   0.593259 0.547568 0.854160 -0.158073
C4    C     C_R   0.406739 0.452433 0.145840 -0.158069
C5    C     C_R   0.585411 0.538782 0.962592 -0.011998
C6    C     C_R   0.414589 0.461212 0.037408 -0.011994
C7    C     C_2   0.426128 0.030277 0.506787 -0.152767
C8    C     C_2   0.573872 0.969723 0.493212 -0.152766
C9    C     C_3   0.063968 0.143570 0.111470 -0.265120
C10   C     C_3   0.936068 0.856410 0.888533 -0.265107
C11   C     C_3   0.950260 0.197786 0.638826 -0.209126
C12   C     C_R   0.548177 0.800433 0.496081 0.527474
C13   C     C_3   0.049735 0.802206 0.361165 -0.209128
C14   C     C_R   0.462180 0.491456 0.702146 0.551097
C15   C     C_R   0.537819 0.508542 0.297853 0.551094
C16   C     C_R   0.563227 0.518071 0.181867 -0.021131
C17   C     C_R   0.436773 0.481926 0.818132 -0.021129
C18   C     C_R   0.254814 0.393450 0.002231 0.195376
C19   C     C_R   0.745189 0.606537 0.997768 0.195369
C20   C     C_R   0.265433 0.406196 0.892916 0.258158
Cl1   Cl    Cl    0.940726 0.676900 0.144863 -0.651876
Cl2   Cl    Cl    0.059283 0.323069 0.855136 -0.651869
Cu1   Cu    Cu3+1 0.686350 0.517570 0.488220 0.990004
Cu2   Cu    Cu3+1 0.313650 0.482430 0.511780 0.990006
H1    H     H_    0.277924 0.392893 0.204083 0.157530
H2    H     H_    0.082004 0.915870 0.843746 0.162682
H3    H     H_    0.900027 0.918273 0.957389 0.199106
H4    H     H_    0.842593 0.868025 0.835374 0.122978
H5    H     H_    0.772998 0.326987 0.616466 0.294727
H6    H     H_    0.834461 0.117944 0.703112 0.111434
H7    H     H_    0.076337 0.214019 0.669240 0.230935
H8    H     H_    0.963218 0.137376 0.567546 0.122343
H9    H     H_    0.227002 0.673015 0.383534 0.294725
H10   H     H_    0.165528 0.882041 0.296873 0.111441
H11   H     H_    0.036785 0.862629 0.432440 0.122337
H12   H     H_    0.722071 0.607116 0.795916 0.157522
H13   H     H_    0.923652 0.785965 0.330757 0.230936
H14   H     H_    0.284865 0.955175 0.520789 0.121780
H15   H     H_    0.715135 0.044825 0.479210 0.121780
H16   H     H_    0.035934 0.370876 0.135267 0.292763
H17   H     H_    0.918031 0.084094 0.156243 0.162692
H18   H     H_    0.157426 0.131975 0.164641 0.122967
H19   H     H_    0.100049 0.081708 0.042619 0.199091
H20   H     H_    0.964057 0.629094 0.864728 0.292760
N1    N     N_2   0.033570 0.455950 0.529530 -0.016504
N2    N     N_2   0.966430 0.544050 0.470470 -0.016505
N3    N     N_2   0.081719 0.310563 0.075263 -0.461864
N4    N     N_2   0.918289 0.689409 0.924735 -0.461864
N5    N     N_2   0.909226 0.349015 0.615202 -0.359087
N6    N     N_2   0.090774 0.650982 0.384796 -0.359085
O1    O     O_R   0.621060 0.286250 0.492350 -0.527235
O2    O     O_R   0.378940 0.713750 0.507650 -0.527238
O3    O     O_R   0.306310 0.256580 0.512240 -0.528636
O4    O     O_R   0.693690 0.743420 0.487760 -0.528638
O5    O     O_R   0.631800 0.512400 0.642670 -0.533839
O6    O     O_R   0.368200 0.487600 0.357330 -0.533837
O7    O     O_R   0.317060 0.482730 0.662570 -0.441126
O8    O     O_R   0.682940 0.517270 0.337430 -0.441129

loop_
_geom_bond_atom_site_label_1
_geom_bond_atom_site_label_2
_ccdc_geom_bond_type
C10   H3    S    
C4    C16   A    
Cu1   O8    S    
H20   N4    S    
Cu1   Cu2   S    
Cu1   O5    S    
C5    C19   A    
C8    H15   S    
C9    H17   S    
H16   N3    S    
C2    C16   A    
N2    N6    S    
Cu1   O1    S    
N1    N5    S    
C8    C12   S    
C18   N3    S    
C10   H2    S    
C2    Cl1   S    
C14   O5    A    
H9    N6    S    
C11   H7    S    
C7    C8    D    
Cu1   N2    S    
H5    N5    S    
N1    N2    D    
C15   O6    A    
C1    O1    A    
C14   C17   S    
C9    H18   S    
C3    H12   S    
C11   N5    S    
Cu2   N1    S    
C12   O2    A    
C7    H14   S    
C20   Cl2   S    
C11   H8    S    
C3    C17   A    
C18   C20   A    
Cu2   O2    S    
C10   N4    S    
C5    C6    A    
C6    C18   A    
C15   O8    A    
C9    H19   S    
C9    N3    S    
Cu2   O6    S    
C15   C16   S    
C4    H1    S    
C13   H10   S    
C17   C20   A    
Cu2   O3    S    
Cu1   O4    S    
C4    C6    A    
C10   H4    S    
C14   O7    A    
C1    O3    A    
C19   N4    S    
C2    C19   A    
C1    C7    S    
C13   H13   S    
C13   H11   S    
C12   O4    A    
C13   N6    S    
C11   H6    S    
Cu2   O7    S    
C3    C5    A    
