data_mof_unit_25156.cif
_audit_creation_date              2012-12-10T17:03:38-0500
_audit_creation_method            fapswitch 2.2
_symmetry_space_group_name_H-M    P1
_symmetry_Int_Tables_number       1
_space_group_crystal_system       triclinic
_cell_length_a                    10.023313
_cell_length_b                    10.587506
_cell_length_c                    13.118785
_cell_angle_alpha                 91.828183
_cell_angle_beta                  71.636434
_cell_angle_gamma                 93.549954
_cell_volume                      1318.6468509

loop_
_atom_site_label
_atom_site_type_symbol
_atom_type_description
_atom_site_fract_x
_atom_site_fract_y
_atom_site_fract_z
_atom_type_partial_charge
C1    C     C_R   0.504923 0.738252 0.498269 0.898034
C2    C     C_R   0.392800 0.587758 0.808249 -0.214357
C3    C     C_2   0.547802 0.069870 0.584662 0.143287
C4    C     C_R   0.428264 0.529993 0.698737 0.881944
C5    C     C_2   0.460974 0.132770 0.546860 -0.082323
C6    C     C_2   0.533931 0.933094 0.585318 -0.140815
C7    C     C_2   0.516640 0.872257 0.499469 -0.272765
C8    C     C_2   0.091214 0.419519 0.444657 0.232436
C9    C     C_2   0.937619 0.412041 0.454376 -0.119796
C10   C     C_R   0.490458 0.262700 0.512595 0.932268
C11   C     C_R   0.576564 0.500513 0.296467 0.882452
C12   C     C_R   0.448966 0.592315 0.976681 -0.006810
C13   C     C_R   0.782106 0.473820 0.004892 -0.134963
C14   C     C_R   0.620156 0.508607 0.180637 -0.057008
C15   C     C_R   0.257636 0.629784 0.861346 -0.081974
C16   C     C_R   0.215591 0.649062 0.972697 0.131054
C17   C     C_R   0.303445 0.615273 0.031564 -0.049012
C18   C     C_1   0.164892 0.660320 0.801721 0.261792
C19   C     C_1   0.235156 0.600798 0.145465 0.220120
C20   C     C_1   0.703332 0.691049 0.718703 0.197008
C21   C     C_R   0.494785 0.598188 0.863064 0.017157
C22   C     C_R   0.551938 0.559740 0.025500 0.087938
C23   C     C_R   0.687780 0.525161 0.960045 0.150950
C24   C     C_R   0.733502 0.555624 0.852440 -0.235826
C25   C     C_R   0.641628 0.607521 0.808213 0.035292
C26   C     C_R   0.529012 0.563266 0.135710 -0.209384
C27   C     C_R   0.746081 0.461613 0.115458 -0.156086
H1    H     H_    0.817873 0.420003 0.149925 0.169367
H2    H     H_    0.542728 0.882729 0.653413 0.166999
H3    H     H_    0.510119 0.921511 0.429891 0.159566
H4    H     H_    0.082711 0.554337 0.556310 0.154008
H5    H     H_    0.897402 0.331038 0.418167 0.196120
H6    H     H_    0.894696 0.580283 0.523342 0.174552
H7    H     H_    0.843396 0.549297 0.805572 0.158610
H8    H     H_    0.884324 0.445411 0.954580 0.155116
H9    H     H_    0.446119 0.615018 0.188906 0.166597
I1    I     I_    0.253225 0.053091 0.557511 -0.253497
I2    I     I_    0.212172 0.287763 0.334353 -0.248553
I3    I     I_    0.015611 0.726191 0.053016 -0.340812
I4    I     I_    0.714941 0.150934 0.637587 -0.277560
N1    N     N_2   0.148270 0.498670 0.498870 -0.199615
N2    N     N_2   0.852610 0.498640 0.498840 -0.195900
N3    N     N_1   0.091400 0.685704 0.753731 -0.191856
N4    N     N_1   0.178009 0.590244 0.236641 -0.170544
N5    N     N_1   0.756129 0.759175 0.648443 -0.170750
O1    O     O_R   0.386950 0.680940 0.500020 -0.596824
O2    O     O_R   0.613110 0.680900 0.499980 -0.602399
O3    O     O_R   0.330780 0.500000 0.653640 -0.606861
O4    O     O_R   0.556930 0.499960 0.653610 -0.600226
O5    O     O_R   0.386890 0.319100 0.500020 -0.562923
O6    O     O_R   0.613050 0.319060 0.499980 -0.598841
O7    O     O_R   0.443070 0.500040 0.346390 -0.590844
O8    O     O_R   0.669220 0.500000 0.346360 -0.602656
Zn1   Zn    Zn3+2 0.349000 0.500030 0.500020 1.010666
Zn2   Zn    Zn3+2 0.651000 0.499970 0.499980 0.988449

loop_
_geom_bond_atom_site_label_1
_geom_bond_atom_site_label_2
_ccdc_geom_bond_type
C12   C17   A    
C15   C18   S    
C2    C4    S    
C23   C24   A    
C6    C7    D    
C5    I1    S    
C14   C27   A    
C1    O2    A    
C20   N5    T    
C11   O8    A    
C4    O4    A    
C3    C6    S    
O1    Zn1   S    
C2    C21   A    
C5    C10   S    
C7    H3    S    
O4    Zn2   S    
C18   N3    T    
C19   N4    T    
O3    Zn1   S    
C2    C15   A    
C9    N2    D    
O5    Zn1   S    
C8    I2    S    
H6    N2    S    
C26   H9    S    
C17   C19   S    
O7    Zn1   S    
C3    I4    S    
C13   H8    S    
O6    Zn2   S    
O8    Zn2   S    
N1    Zn1   S    
C22   C26   A    
N2    Zn2   S    
C11   C14   S    
C24   H7    S    
C1    O1    A    
C16   C17   A    
C20   C25   S    
C10   O6    A    
C16   I3    S    
C15   C16   A    
C10   O5    A    
C12   C22   A    
C6    H2    S    
C24   C25   A    
C13   C23   A    
O2    Zn2   S    
C4    O3    A    
C27   H1    S    
C21   C25   A    
C22   C23   A    
C13   C27   A    
C11   O7    A    
H4    N1    S    
C9    H5    S    
C8    N1    D    
C1    C7    S    
C12   C21   A    
C14   C26   A    
C8    C9    S    
C3    C5    D    
