data_mof_unit_62484.cif
_audit_creation_date              2012-12-10T18:28:40-0500
_audit_creation_method            fapswitch 2.2
_symmetry_space_group_name_H-M    P1
_symmetry_Int_Tables_number       1
_space_group_crystal_system       triclinic
_cell_length_a                    21.759098
_cell_length_b                    21.739355
_cell_length_c                    21.267962
_cell_angle_alpha                 120.853478
_cell_angle_beta                  120.78721
_cell_angle_gamma                 89.86996
_cell_volume                      6942.2700213

loop_
_atom_site_label
_atom_site_type_symbol
_atom_type_description
_atom_site_fract_x
_atom_site_fract_y
_atom_site_fract_z
_atom_type_partial_charge
C1    C     C_R   0.084664 0.584644 0.669229 0.783926
C2    C     C_R   0.974330 0.247260 0.183746 -0.081831
C3    C     C_R   0.243780 0.444078 0.423766 -0.212002
C4    C     C_R   0.313251 0.504819 0.500971 -0.099092
C5    C     C_R   0.317755 0.564116 0.577740 0.075835
C6    C     C_R   0.252113 0.560531 0.574434 -0.170077
C7    C     C_R   0.183887 0.499055 0.498155 -0.046262
C8    C     C_R   0.179258 0.440034 0.422339 0.007856
C9    C     C_R   0.416101 0.646914 0.746846 -0.254839
C10   C     C_R   0.481541 0.710465 0.827372 0.249227
C11   C     C_R   0.520530 0.759145 0.824204 0.241873
C12   C     C_R   0.117784 0.499203 0.498550 0.790522
C13   C     C_R   0.493170 0.743194 0.739531 0.249969
C14   C     C_R   0.427760 0.679255 0.659343 -0.144020
C15   C     C_R   0.388823 0.630562 0.662240 0.014378
C16   C     C_1   0.136175 0.635965 0.771747 -0.148149
C17   C     C_1   0.178740 0.678427 0.856712 0.017318
C18   C     C_1   0.229037 0.728723 0.957474 0.026540
C19   C     C_1   0.271452 0.771166 0.042449 0.041061
C20   C     C_1   0.321785 0.821549 0.143236 0.037575
C21   C     C_1   0.364228 0.864057 0.228219 -0.150404
C22   C     C_R   0.979999 0.461653 0.720122 -0.125901
C23   C     C_R   0.915223 0.415350 0.330756 0.798883
C24   C     C_R   0.912021 0.448605 0.644361 0.326200
C25   C     C_R   0.890190 0.510929 0.647988 -0.021290
C26   C     C_R   0.937880 0.585970 0.728550 0.257686
C27   C     C_R   0.005286 0.597872 0.803856 -0.145466
C28   C     C_R   0.026342 0.535960 0.799617 -0.207435
C29   C     C_R   0.752066 0.496455 0.566546 0.264543
C30   C     C_R   0.687721 0.499808 0.501290 -0.173748
C31   C     C_R   0.689482 0.505665 0.438982 -0.006056
C32   C     C_R   0.753639 0.504282 0.439681 -0.188367
C33   C     C_R   0.816952 0.501080 0.503735 -0.081704
C34   C     C_R   0.882340 0.500798 0.501753 0.811616
C35   C     C_R   0.817752 0.499058 0.569205 0.025097
C36   C     C_R   0.592656 0.472718 0.284371 -0.183716
C37   C     C_R   0.543785 0.492787 0.228931 -0.111321
C38   C     C_R   0.532402 0.562324 0.267504 0.341418
C39   C     C_R   0.568501 0.610964 0.361420 -0.209147
C40   C     C_R   0.616703 0.590624 0.416943 -0.168222
C41   C     C_R   0.629691 0.521589 0.378854 0.131999
C42   C     C_1   0.863526 0.364048 0.228210 -0.137781
C43   C     C_1   0.820901 0.321531 0.143228 0.021808
C44   C     C_1   0.770709 0.271081 0.042452 0.050238
C45   C     C_R   0.021626 0.247899 0.259931 -0.117304
C46   C     C_1   0.728406 0.228608 0.957481 0.094385
C47   C     C_1   0.678124 0.178340 0.856692 0.068902
C48   C     C_1   0.635719 0.135906 0.771728 -0.144236
C49   C     C_R   0.495727 0.619790 0.499862 0.803162
C50   C     C_R   0.379956 0.502700 0.500291 0.798570
C51   C     C_R   0.502378 0.379959 0.499744 0.842795
C52   C     C_R   0.620227 0.499247 0.500169 0.857311
C53   C     C_R   0.500484 0.119414 0.501351 0.800968
C54   C     C_R   0.415434 0.915372 0.330782 0.788647
C55   C     C_R   0.500686 0.881834 0.501191 0.783890
C56   C     C_R   0.088411 0.311058 0.338178 -0.106571
C57   C     C_R   0.584558 0.084637 0.669210 0.796894
C58   C     C_R   0.251481 0.510157 0.260001 -0.141410
C59   C     C_R   0.321340 0.564987 0.306450 -0.007848
C60   C     C_R   0.350054 0.635899 0.391040 -0.129383
C61   C     C_R   0.304712 0.652838 0.423159 0.232870
C62   C     C_R   0.234662 0.597027 0.374893 0.288191
C63   C     C_R   0.209150 0.525897 0.294479 -0.242641
C64   C     C_R   0.430149 0.757814 0.447081 -0.140268
C65   C     C_R   0.500634 0.815126 0.501361 -0.074341
C66   C     C_R   0.569060 0.808015 0.555166 0.012352
C67   C     C_R   0.107776 0.374209 0.340711 0.074784
C68   C     C_R   0.565607 0.743482 0.553763 -0.185904
C69   C     C_R   0.495293 0.686083 0.499206 -0.070103
C70   C     C_R   0.426509 0.693119 0.445560 0.025686
C71   C     C_R   0.692518 0.860236 0.589295 -0.113898
C72   C     C_R   0.764809 0.916104 0.648122 -0.158127
C73   C     C_R   0.790060 0.979380 0.734687 -0.058703
C74   C     C_R   0.742875 0.987298 0.763117 0.048686
C75   C     C_R   0.669769 0.931592 0.703154 -0.222466
C76   C     C_R   0.644557 0.868050 0.616367 0.114510
C77   C     C_R   0.499047 0.245667 0.254565 -0.145443
C78   C     C_R   0.059806 0.373566 0.264393 -0.157537
C79   C     C_R   0.479564 0.241774 0.305992 -0.196011
C80   C     C_R   0.536135 0.254299 0.388578 -0.006428
C81   C     C_R   0.612307 0.267950 0.417482 0.266487
C82   C     C_R   0.631259 0.271658 0.365469 -0.176741
C83   C     C_R   0.574932 0.260873 0.284449 0.282609
C84   C     C_R   0.514630 0.188843 0.445854 -0.154587
C85   C     C_R   0.500081 0.186205 0.501433 -0.036078
C86   C     C_R   0.485537 0.247136 0.555721 0.131674
C87   C     C_R   0.487391 0.310478 0.554564 -0.140121
C88   C     C_R   0.501662 0.312864 0.498742 -0.073850
C89   C     C_R   0.993521 0.310000 0.185936 -0.126644
C90   C     C_R   0.515159 0.251594 0.443457 0.053572
C91   C     C_R   0.394843 0.221837 0.587501 0.017987
C92   C     C_R   0.383728 0.226866 0.649157 -0.277796
C93   C     C_R   0.445628 0.257808 0.738188 -0.163663
C94   C     C_R   0.520131 0.284054 0.767676 0.291518
C95   C     C_R   0.533269 0.278533 0.707055 0.191443
C96   C     C_R   0.470714 0.247845 0.616748 -0.041494
Cu1   Cu    Cu3+1 0.000010 0.438210 0.500020 1.019204
Cu2   Cu    Cu3+1 0.999990 0.561790 0.499980 1.056429
Cu3   Cu    Cu3+1 0.457530 0.457560 0.415050 0.999942
Cu4   Cu    Cu3+1 0.542470 0.542480 0.584950 1.070786
Cu5   Cu    Cu3+1 0.561810 0.000000 0.500000 1.037776
Cu6   Cu    Cu3+1 0.438190 0.000000 0.500000 1.023073
H1    H     H_    0.922730 0.198300 0.123139 0.169519
H2    H     H_    0.407622 0.666900 0.594510 0.171130
H3    H     H_    0.078852 0.545631 0.857959 0.176431
H4    H     H_    0.997043 0.414026 0.717404 0.177383
H5    H     H_    0.041755 0.655355 0.865727 0.179634
H6    H     H_    0.755363 0.508304 0.391768 0.160615
H7    H     H_    0.006715 0.199327 0.258208 0.150321
H8    H     H_    0.603107 0.420061 0.254025 0.193295
H9    H     H_    0.516237 0.455119 0.156340 0.181862
H10   H     H_    0.560314 0.665120 0.391498 0.151260
H11   H     H_    0.646098 0.629883 0.489882 0.132884
H12   H     H_    0.155176 0.483033 0.256994 0.170419
H13   H     H_    0.228813 0.455153 0.195955 0.193944
H14   H     H_    0.125069 0.310760 0.396585 0.138510
H15   H     H_    0.377601 0.763572 0.405895 0.168629
H16   H     H_    0.618091 0.737842 0.595305 0.163825
H17   H     H_    0.673805 0.811029 0.522705 0.139491
H18   H     H_    0.801586 0.910091 0.626855 0.158168
H19   H     H_    0.846591 0.021668 0.779548 0.176874
H20   H     H_    0.632813 0.936972 0.724212 0.161125
H21   H     H_    0.455130 0.236602 0.191412 0.176528
H22   H     H_    0.420463 0.229498 0.281820 0.174473
H23   H     H_    0.073624 0.422175 0.265762 0.157935
H24   H     H_    0.689590 0.282270 0.387415 0.225128
H25   H     H_    0.525774 0.141865 0.404212 0.163943
H26   H     H_    0.476942 0.357840 0.596767 0.145729
H27   H     H_    0.326547 0.207218 0.628510 0.158682
H28   H     H_    0.435467 0.261898 0.784771 0.189330
H29   H     H_    0.956747 0.309569 0.127035 0.163665
H30   H     H_    0.240118 0.398426 0.365109 0.168411
H31   H     H_    0.254094 0.605903 0.631886 0.147528
H32   H     H_    0.386517 0.609920 0.750182 0.182927
O1    O     O_R   0.061970 0.509790 0.623960 -0.568023
O2    O     O_R   0.535870 0.626050 0.571740 -0.563015
O3    O     O_R   0.373960 0.464160 0.428260 -0.588289
O4    O     O_R   0.445680 0.535880 0.571730 -0.584569
O5    O     O_R   0.464130 0.373990 0.428260 -0.597873
O6    O     O_R   0.535860 0.445700 0.571730 -0.554080
O7    O     O_R   0.554320 0.464170 0.428270 -0.580784
O8    O     O_R   0.626040 0.535880 0.571740 -0.539109
O9    O     O_R   0.552180 0.090160 0.499970 -0.558029
O10   O     O_R   0.447790 0.090160 0.499970 -0.571775
O11   O     O_R   0.490230 0.938030 0.376060 -0.553942
O12   O     O_R   0.061960 0.614160 0.623930 -0.549276
O13   O     O_R   0.385840 0.938030 0.376050 -0.560190
O14   O     O_R   0.552210 0.909840 0.500030 -0.576476
O15   O     O_R   0.447820 0.909840 0.500030 -0.561700
O16   O     O_R   0.614160 0.061970 0.623950 -0.548923
O17   O     O_R   0.509770 0.061970 0.623940 -0.559688
O18   O     O_R   0.090190 0.447820 0.500020 -0.591565
O19   O     O_R   0.090170 0.552190 0.499990 -0.539398
O20   O     O_R   0.938040 0.385840 0.376070 -0.551651
O21   O     O_R   0.938030 0.490210 0.376040 -0.554939
O22   O     O_R   0.909830 0.447810 0.500010 -0.553181
O23   O     O_R   0.909810 0.552180 0.499980 -0.569963
O24   O     O_R   0.464140 0.554340 0.428270 -0.596596
Br1   Br    Br    0.610443 0.846808 0.934730 -0.311369
Br2   Br    Br    0.543194 0.807666 0.730617 -0.418485
Br3   Br    Br    0.852208 0.345097 0.537388 -0.434696
Br4   Br    Br    0.913127 0.673858 0.738447 -0.470848
Br5   Br    Br    0.752408 0.488789 0.653506 -0.368051
Br6   Br    Br    0.469857 0.592037 0.192369 -0.473467
C97   C     C_2   0.362589 0.548572 0.264901 0.451915
H33   H     H_    0.413022 0.592633 0.296054 0.084977
O25   O     O_2   0.340661 0.485723 0.195280 -0.523416
Br7   Br    Br    0.336104 0.752985 0.530230 -0.406839
Br8   Br    Br    0.171092 0.615766 0.415346 -0.443163
C98   C     C_2   0.769443 0.052451 0.855403 0.351299
H34   H     H_    0.732816 0.056443 0.876749 0.081146
O26   O     O_2   0.832324 0.102349 0.908715 -0.550125
Br9   Br    Br    0.601635 0.265006 0.213689 -0.493878
Br10  Br    Br    0.691208 0.280202 0.526405 -0.362694
C99   C     C_2   0.325350 0.188989 0.494157 0.385817
H35   H     H_    0.269218 0.172618 0.477766 0.068731
O27   O     O_2   0.328992 0.179159 0.434449 -0.542417
Br11  Br    Br    0.602015 0.329455 0.892481 -0.430765
Br12  Br    Br    0.636552 0.313875 0.748012 -0.385809
Br13  Br    Br    0.515296 0.728654 0.940171 -0.368668

loop_
_geom_bond_atom_site_label_1
_geom_bond_atom_site_label_2
_ccdc_geom_bond_type
C66   C68   A    
C87   C88   A    
Cu5   O14   S    
Cu5   Cu6   S    
C23   O21   A    
C75   H20   S    
C11   C13   A    
C73   C74   A    
C12   O18   A    
C95   C96   A    
C12   O19   A    
C43   C44   S    
Cu1   Cu2   S    
C36   C41   A    
C50   O3    A    
C11   Br1   S    
C7    C8    A    
C99   O27   D    
C85   C86   A    
Cu5   O11   S    
C26   C27   A    
C97   H33   S    
C23   C42   S    
Cu6   O10   S    
C36   C37   A    
C6    H31   S    
C21   C54   S    
C45   H7    S    
C98   H34   S    
C77   C83   A    
Cu5   O16   S    
C18   C19   T    
C94   Br11  S    
Cu1   O22   S    
C29   Br5   S    
C82   H24   S    
Cu4   O6    S    
C86   C96   S    
C68   H16   S    
C91   C96   A    
C46   C47   S    
C63   H12   S    
C99   H35   S    
C45   C56   A    
C68   C69   A    
C24   Br3   S    
C64   C70   A    
C29   C30   A    
C9    C10   A    
C13   Br2   S    
C61   C62   A    
C59   C97   S    
Cu6   O17   S    
C72   C73   A    
C51   O6    A    
C84   H25   S    
C38   Br6   S    
Cu2   O19   S    
C59   C60   A    
C97   O25   D    
C49   C69   S    
C13   C14   A    
C80   C90   S    
Cu3   O5    S    
C1    O12   A    
C94   C95   A    
C67   C78   A    
C84   C90   A    
C87   H26   S    
C55   C65   S    
C44   C46   T    
C55   O15   A    
C77   C79   A    
C78   C89   A    
C7    C12   S    
C74   C98   S    
C74   C75   A    
C3    H30   S    
C48   C57   S    
C38   C39   A    
C84   C85   A    
C3    C8    A    
C10   C11   A    
C91   C92   A    
C86   C87   A    
C16   C17   T    
Cu2   O12   S    
C25   C26   A    
C22   H4    S    
C26   Br4   S    
C40   H11   S    
C81   C82   A    
C64   H15   S    
C32   C33   A    
C4    C50   S    
C60   C61   A    
C53   O9    A    
C2    C89   A    
C75   C76   A    
C37   C38   A    
C77   H21   S    
Cu6   O13   S    
C14   H2    S    
C47   C48   T    
Cu2   O23   S    
C60   C70   S    
C28   H3    S    
C66   C76   S    
C57   O16   A    
C72   H18   S    
C62   C63   A    
C17   C18   S    
C56   H14   S    
C91   C99   S    
C1    C16   S    
Cu1   O20   S    
C24   C25   A    
Cu4   O4    S    
C25   C35   S    
C54   O11   A    
C95   Br12  S    
C40   C41   A    
C49   O2    A    
C88   C90   A    
C30   C31   A    
C73   H19   S    
C83   Br9   S    
C36   H8    S    
C58   H13   S    
C22   C24   A    
C49   O24   A    
C23   O20   A    
C42   C43   T    
Cu1   O1    S    
C3    C4    A    
C71   C76   A    
C39   C40   A    
C79   H22   S    
C58   C63   A    
C62   Br8   S    
C30   C52   S    
Cu2   O21   S    
C39   H10   S    
C31   C41   S    
Cu3   O7    S    
C31   C32   A    
C80   C81   A    
C51   C88   S    
C53   C85   S    
C50   O4    A    
C6    C7    A    
C34   O22   A    
C56   C67   A    
C93   C94   A    
C29   C35   A    
C52   O7    A    
C89   H29   S    
Cu3   Cu4   S    
C71   H17   S    
C61   Br7   S    
C10   Br13  S    
C81   Br10  S    
C53   O10   A    
C19   C20   S    
C92   H27   S    
C58   C59   A    
C71   C72   A    
Cu4   O8    S    
C9    H32   S    
Cu5   O9    S    
C27   H5    S    
C55   O14   A    
C5    C6    A    
C98   O26   D    
C2    H1    S    
C57   O17   A    
C64   C65   A    
C92   C93   A    
C33   C35   A    
Cu1   O18   S    
C33   C34   S    
C65   C66   A    
C9    C15   A    
C69   C70   A    
C52   O8    A    
C5    C15   S    
C2    C45   A    
Cu6   O15   S    
C79   C80   A    
C34   O23   A    
Cu4   O2    S    
C4    C5    A    
C37   H9    S    
C20   C21   T    
C8    C67   S    
C82   C83   A    
C32   H6    S    
Cu3   O24   S    
C27   C28   A    
C14   C15   A    
Cu3   O3    S    
C22   C28   A    
C1    O1    A    
C78   H23   S    
C93   H28   S    
C54   O13   A    
C51   O5    A    
