data_mof_unit_62954.cif
_audit_creation_date              2012-12-10T19:31:57-0500
_audit_creation_method            fapswitch 2.2
_symmetry_space_group_name_H-M    P1
_symmetry_Int_Tables_number       1
_space_group_crystal_system       triclinic
_cell_length_a                    18.625079
_cell_length_b                    18.755277
_cell_length_c                    18.778902
_cell_angle_alpha                 109.546329
_cell_angle_beta                  109.505792
_cell_angle_gamma                 109.19303
_cell_volume                      5060.1816504

loop_
_atom_site_label
_atom_site_type_symbol
_atom_type_description
_atom_site_fract_x
_atom_site_fract_y
_atom_site_fract_z
_atom_type_partial_charge
C1    C     C_R   0.380178 0.380155 0.500420 0.885412
C2    C     C_3   0.809254 0.499348 0.807686 0.148703
C3    C     C_3   0.819702 0.591812 0.843699 -0.509781
C4    C     C_3   0.715205 0.433285 0.780950 -0.367552
C5    C     C_R   0.252610 0.236098 0.427280 0.111203
C6    C     C_R   0.315339 0.315291 0.502116 -0.095684
C7    C     C_R   0.313139 0.330332 0.579942 -0.215114
C8    C     C_R   0.248888 0.265151 0.579983 -0.214289
C9    C     C_R   0.185943 0.186157 0.501837 -0.089554
C10   C     C_R   0.190016 0.174441 0.426943 0.081453
C11   C     C_3   0.149564 0.111559 0.332690 -0.226501
C12   C     C_R   0.623623 0.502954 0.620565 0.846348
C13   C     C_3   0.221093 0.182865 0.332811 -0.508573
C14   C     C_R   0.258036 0.430243 0.230925 0.086578
C15   C     C_R   0.314126 0.501979 0.313940 -0.101332
C16   C     C_R   0.304515 0.576652 0.332385 -0.207014
C17   C     C_R   0.239903 0.576784 0.267169 -0.223581
C18   C     C_R   0.184002 0.501763 0.184346 -0.088563
C19   C     C_R   0.195146 0.429940 0.169105 0.114786
C20   C     C_3   0.163233 0.339735 0.101691 -0.062989
C21   C     C_3   0.235061 0.339687 0.173074 -0.463698
C22   C     C_R   0.761046 0.685934 0.508523 0.092504
C23   C     C_R   0.620059 0.619789 0.500095 0.881035
C24   C     C_R   0.683849 0.685194 0.498578 -0.089302
C25   C     C_R   0.670432 0.751527 0.488357 -0.207063
C26   C     C_R   0.734787 0.816021 0.487748 -0.216629
C27   C     C_R   0.813401 0.815337 0.500044 -0.091008
C28   C     C_R   0.824020 0.749489 0.511160 0.113369
C29   C     C_3   0.885131 0.714127 0.526358 -0.514070
C30   C     C_3   0.813308 0.641983 0.525050 -0.234262
C31   C     C_R   0.997740 0.380073 0.877537 0.866239
C32   C     C_R   0.876462 0.499820 0.876561 0.853263
C33   C     C_R   0.996935 0.619798 0.116807 0.879411
C34   C     C_R   0.379467 0.500352 0.379344 0.883245
C35   C     C_R   0.117934 0.500019 0.117585 0.885167
C36   C     C_R   0.999222 0.119688 0.619143 0.877342
C37   C     C_R   0.120004 0.119641 0.500034 0.879888
C38   C     C_R   0.000952 0.880441 0.380502 0.885162
C39   C     C_R   0.879829 0.880258 0.500045 0.880863
C40   C     C_R   0.974692 0.233282 0.802603 0.142408
C41   C     C_R   0.997785 0.314988 0.811054 -0.115412
C42   C     C_R   0.022468 0.332534 0.752848 -0.210364
C43   C     C_R   0.022439 0.267596 0.688282 -0.220165
C44   C     C_R   0.000084 0.186368 0.683780 -0.081332
C45   C     C_3   0.751479 0.478734 0.655234 -0.379723
C46   C     C_R   0.977586 0.172308 0.742728 0.120799
C47   C     C_3   0.946434 0.106145 0.768170 -0.505880
C48   C     C_3   0.943454 0.176251 0.837404 -0.473573
C49   C     C_R   0.017484 0.690979 0.261997 0.121701
C50   C     C_R   0.996699 0.685200 0.181736 -0.085196
C51   C     C_R   0.977953 0.747138 0.166667 -0.215836
C52   C     C_R   0.978970 0.811861 0.232305 -0.183911
C53   C     C_R   0.001596 0.816124 0.313844 -0.102471
C54   C     C_R   0.021531 0.754767 0.325987 0.138248
C55   C     C_3   0.046664 0.723608 0.388684 -0.470433
C56   C     C_3   0.822586 0.478150 0.726574 0.025444
C57   C     C_3   0.042991 0.650972 0.315392 -0.501296
C58   C     C_3   0.749873 0.594699 0.773624 -0.124774
C59   C     C_3   0.646463 0.434372 0.708914 -0.449751
C60   C     C_3   0.692250 0.503641 0.688326 0.089414
H1    H     H_    0.783155 0.525784 0.637010 0.138761
H2    H     H_    0.705312 0.450860 0.838371 0.175885
H3    H     H_    0.707553 0.609938 0.799073 0.154793
H4    H     H_    0.811917 0.608994 0.902442 0.157348
H5    H     H_    0.361231 0.391243 0.640224 0.160920
H6    H     H_    0.247678 0.276580 0.639972 0.151847
H7    H     H_    0.081504 0.096283 0.292643 0.156408
H8    H     H_    0.270340 0.166826 0.321990 0.213918
H9    H     H_    0.194765 0.211297 0.294488 0.184467
H10   H     H_    0.347054 0.634636 0.396168 0.165316
H11   H     H_    0.710551 0.413657 0.594908 0.205801
H12   H     H_    0.233048 0.634360 0.281405 0.146450
H13   H     H_    0.095145 0.293352 0.081092 0.166587
H14   H     H_    0.208362 0.294173 0.194916 0.171680
H15   H     H_    0.289065 0.337767 0.160914 0.217662
H16   H     H_    0.610561 0.752881 0.480115 0.152526
H17   H     H_    0.723905 0.866622 0.479235 0.161513
H18   H     H_    0.896831 0.691689 0.470653 0.191880
H19   H     H_    0.945332 0.758756 0.591463 0.206737
H20   H     H_    0.831586 0.643963 0.588652 0.154481
H21   H     H_    0.040368 0.395239 0.756407 0.167650
H22   H     H_    0.040438 0.280811 0.642990 0.150758
H23   H     H_    0.880645 0.049519 0.715963 0.203972
H24   H     H_    0.997409 0.089871 0.796165 0.213676
H25   H     H_    0.875928 0.159846 0.825254 0.210831
H26   H     H_    0.992469 0.200264 0.905400 0.204949
H27   H     H_    0.961673 0.744749 0.104549 0.146770
H28   H     H_    0.963342 0.858743 0.219808 0.162629
H29   H     H_    0.113851 0.770850 0.445441 0.211463
H30   H     H_    0.887504 0.530849 0.746590 0.168120
H31   H     H_    0.994713 0.699303 0.404827 0.194858
H32   H     H_    0.108154 0.656672 0.329442 0.198734
H33   H     H_    0.989285 0.584748 0.289651 0.215357
H34   H     H_    0.887223 0.641159 0.865492 0.189160
H35   H     H_    0.601404 0.448806 0.730301 0.169521
H36   H     H_    0.606077 0.368662 0.649437 0.183301
H37   H     H_    0.705443 0.366227 0.758114 0.186136
O1    O     O_R   0.408690 0.356690 0.448570 -0.620907
O2    O     O_R   0.049530 0.460080 0.906210 -0.624137
O3    O     O_R   0.853510 0.448360 0.905260 -0.629873
O4    O     O_R   0.956950 0.551730 0.905200 -0.637702
O5    O     O_R   0.945130 0.540000 0.088470 -0.621634
O6    O     O_R   0.048570 0.643360 0.088400 -0.618218
O7    O     O_R   0.037700 0.448350 0.089480 -0.627791
O8    O     O_R   0.141150 0.551720 0.089410 -0.614779
O9    O     O_R   0.051500 0.091600 0.643170 -0.622757
O10   O     O_R   0.947510 0.091650 0.539220 -0.622085
O11   O     O_R   0.143610 0.091630 0.552030 -0.618430
O12   O     O_R   0.408080 0.460090 0.551420 -0.625558
O13   O     O_R   0.039620 0.091690 0.448080 -0.628380
O14   O     O_R   0.052490 0.908450 0.460880 -0.620280
O15   O     O_R   0.948500 0.908500 0.356930 -0.629332
O16   O     O_R   0.960380 0.908410 0.552020 -0.622935
O17   O     O_R   0.856390 0.908470 0.448070 -0.623584
O18   O     O_R   0.592400 0.448300 0.540680 -0.630769
O19   O     O_R   0.591790 0.551700 0.643540 -0.631865
O20   O     O_R   0.591920 0.539910 0.448580 -0.616796
O21   O     O_R   0.591310 0.643310 0.551430 -0.619531
O22   O     O_R   0.408210 0.448300 0.356460 -0.620937
O23   O     O_R   0.407600 0.551700 0.459320 -0.629177
O24   O     O_R   0.946090 0.356720 0.906270 -0.620417
Zn1   Zn    Zn3+2 0.500410 0.430960 0.431320 0.957801
Zn2   Zn    Zn3+2 0.499590 0.569040 0.568680 0.949633
Zn3   Zn    Zn3+2 0.928260 0.431020 0.997380 0.942349
Zn4   Zn    Zn3+2 0.066400 0.569060 0.997290 0.952941
Zn5   Zn    Zn3+2 0.069430 0.000010 0.569450 0.952603
Zn6   Zn    Zn3+2 0.930570 0.000090 0.430650 0.950927
C61   C     C_1   0.160307 0.034695 0.319452 0.198817
N1    N     N_1   0.169190 0.974473 0.309242 -0.204793
C62   C     C_3   0.179011 0.337292 0.026221 -0.865432
H38   H     H_    0.247774 0.385194 0.050388 0.255995
H39   H     H_    0.165359 0.271033 0.984345 0.246309
H40   H     H_    0.134309 0.352960 0.986419 0.234593
C63   C     C_1   0.773426 0.554854 0.450399 0.237259
N2    N     N_1   0.741979 0.486227 0.391672 -0.213866
C64   C     C_3   0.824046 0.392006 0.690143 -0.936600
H41   H     H_    0.837456 0.383502 0.635362 0.248346
H42   H     H_    0.876807 0.392614 0.740686 0.240514
H43   H     H_    0.760302 0.335144 0.665439 0.253158
C65   C     C_1   0.791430 0.665714 0.758148 0.142458
N3    N     N_1   0.823815 0.721263 0.745993 -0.221317

loop_
_geom_bond_atom_site_label_1
_geom_bond_atom_site_label_2
_ccdc_geom_bond_type
C8    C9    A    
C45   C60   S    
C8    H6    S    
O19   Zn2   S    
C45   H11   S    
C41   C42   A    
C2    C4    S    
C19   C20   S    
C32   O4    A    
O20   Zn1   S    
C61   N1    T    
C23   O21   A    
C7    C8    A    
O2    Zn4   S    
C3    H4    S    
C40   C46   A    
C26   C27   A    
C13   H9    S    
C14   C21   S    
C28   C29   S    
C57   H32   S    
C5    C6    A    
C58   C60   S    
C49   C54   A    
C4    H2    S    
C34   O22   A    
C49   C57   S    
C2    C32   S    
C18   C19   A    
C40   C48   S    
O15   Zn6   S    
C55   H31   S    
C1    O12   A    
C54   C55   S    
C29   H18   S    
C45   C56   S    
C44   C46   A    
C16   C17   A    
C39   O16   A    
O4    Zn4   S    
C23   C24   S    
C47   H23   S    
C22   C30   S    
C18   C35   S    
C15   C34   S    
C5    C13   S    
O23   Zn2   S    
O13   Zn6   S    
C12   O18   A    
C30   H20   S    
C56   H30   S    
C59   C60   S    
O18   Zn1   S    
C57   H33   S    
C4    H37   S    
C36   O10   A    
C42   H21   S    
C59   H35   S    
C64   H43   S    
O5    Zn3   S    
C56   C64   S    
C11   H7    S    
C17   C18   A    
C34   O23   A    
C26   H17   S    
C36   O9    A    
C33   O5    A    
C52   H28   S    
C16   H10   S    
C65   N3    T    
C31   O24   A    
C37   O11   A    
C64   H42   S    
C35   O7    A    
C51   H27   S    
O12   Zn2   S    
C48   H26   S    
O16   Zn5   S    
C30   C63   S    
C33   C50   S    
C53   C54   A    
C21   H14   S    
C32   O3    A    
O3    Zn3   S    
C62   H39   S    
C43   C44   A    
C29   C30   S    
C35   O8    A    
C7    H5    S    
C47   C48   S    
C29   H19   S    
C39   O17   A    
O14   Zn5   S    
C9    C37   S    
C50   C51   A    
C47   H24   S    
C24   C25   A    
C37   O13   A    
C6    C7    A    
C40   C41   A    
C31   O2    A    
C55   C57   S    
C22   C24   A    
C36   C44   S    
C62   H40   S    
C59   H36   S    
C38   O15   A    
C27   C28   A    
C52   C53   A    
C9    C10   A    
O22   Zn1   S    
C58   C65   S    
C58   H3    S    
O1    Zn1   S    
C21   H15   S    
C46   C47   S    
C31   C41   S    
C33   O6    A    
C14   C19   A    
C48   H25   S    
C20   C62   S    
C64   H41   S    
C1    O1    A    
C23   O20   A    
C63   N2    T    
O7    Zn3   S    
O9    Zn5   S    
O8    Zn4   S    
C25   H16   S    
C62   H38   S    
C25   C26   A    
O10   Zn6   S    
C51   C52   A    
C55   H29   S    
C2    C56   S    
O17   Zn6   S    
C11   C13   S    
C38   C53   S    
C27   C39   S    
C4    C59   S    
C45   H1    S    
C20   H13   S    
C2    C3    S    
C3    H34   S    
C11   C61   S    
O21   Zn2   S    
O6    Zn4   S    
C10   C11   S    
C12   C60   S    
C3    C58   S    
C5    C10   A    
C20   C21   S    
C17   H12   S    
C49   C50   A    
C42   C43   A    
C1    C6    S    
O24   Zn3   S    
C43   H22   S    
C14   C15   A    
C22   C28   A    
O11   Zn5   S    
C38   O14   A    
C15   C16   A    
C12   O19   A    
C13   H8    S    
