data_mof_unit_32748.cif
_audit_creation_date              2012-12-10T21:26:04-0500
_audit_creation_method            fapswitch 2.2
_symmetry_space_group_name_H-M    P1
_symmetry_Int_Tables_number       1
_space_group_crystal_system       triclinic
_cell_length_a                    8.496911
_cell_length_b                    16.075732
_cell_length_c                    16.770539
_cell_angle_alpha                 88.735014
_cell_angle_beta                  89.365178
_cell_angle_gamma                 101.111972
_cell_volume                      2246.98756225

loop_
_atom_site_label
_atom_site_type_symbol
_atom_type_description
_atom_site_fract_x
_atom_site_fract_y
_atom_site_fract_z
_atom_type_partial_charge
C1    C     C_R   0.494808 0.489040 0.653874 0.850708
C2    C     C_R   0.509227 0.511039 0.346854 0.930516
C3    C     C_R   0.450113 0.758385 0.451065 -0.020841
C4    C     C_R   0.544168 0.240075 0.549787 -0.028970
C5    C     C_R   0.451339 0.845831 0.453771 -0.280043
C6    C     C_R   0.542293 0.152751 0.546088 -0.272082
C7    C     C_R   0.524855 0.893081 0.517964 0.332149
C8    C     C_R   0.473260 0.106911 0.480123 0.333050
C9    C     C_R   0.594411 0.849899 0.577328 -0.300763
C10   C     C_R   0.407570 0.151433 0.420214 -0.304121
C11   C     C_R   0.589036 0.762437 0.572591 -0.033466
C12   C     C_R   0.412546 0.238854 0.426233 -0.008703
C13   C     C_R   0.798745 0.520950 0.514382 0.939524
C14   C     C_R   0.201149 0.477681 0.514232 0.925434
C15   C     C_2   0.961591 0.532832 0.543227 -0.139652
C16   C     C_2   0.036661 0.465340 0.543645 -0.157261
C17   C     C_R   0.479468 0.479316 0.741473 -0.114456
C18   C     C_R   0.528199 0.517865 0.260223 -0.101189
C19   C     C_R   0.386603 0.526377 0.787737 0.019164
C20   C     C_R   0.631586 0.472247 0.219144 -0.015448
C21   C     C_R   0.357749 0.504800 0.868882 0.086025
C22   C     C_R   0.631937 0.474180 0.134915 0.094547
C23   C     C_R   0.441099 0.447642 0.906175 0.224821
C24   C     C_R   0.534593 0.521502 0.094470 0.275610
C25   C     C_R   0.532181 0.402235 0.861607 -0.259137
C26   C     C_R   0.446019 0.571637 0.134965 -0.303820
C27   C     C_R   0.550184 0.416436 0.779596 0.065960
C28   C     C_R   0.440755 0.569859 0.217657 0.059954
H1    H     H_    0.596240 0.358611 0.891375 0.157243
H2    H     H_    0.375045 0.609488 0.101949 0.146218
H3    H     H_    0.596812 0.274558 0.600394 0.140775
H4    H     H_    0.392277 0.722331 0.402216 0.147911
H5    H     H_    0.594416 0.121946 0.594364 0.153302
H6    H     H_    0.394917 0.875587 0.406344 0.152889
H7    H     H_    0.650852 0.883716 0.627866 0.150042
H8    H     H_    0.353132 0.118537 0.368774 0.144343
H9    H     H_    0.638978 0.729707 0.619861 0.137081
H10   H     H_    0.362074 0.272507 0.379477 0.137294
N1    N     N_2   0.456805 0.446899 0.989309 -0.171884
N2    N     N_2   0.522502 0.518490 0.011555 -0.179960
N3    N     N_R   0.519180 0.718290 0.509780 -0.087860
N4    N     N_R   0.480820 0.281710 0.490220 -0.087797
N5    N     N_2   0.530996 0.982372 0.526094 -0.190262
N6    N     N_2   0.466652 0.017594 0.471433 -0.189670
O1    O     O_R   0.493140 0.422050 0.612640 -0.615810
O2    O     O_R   0.506860 0.577950 0.387360 -0.594184
O3    O     O_R   0.505450 0.562230 0.618920 -0.651666
O4    O     O_R   0.494550 0.437770 0.381080 -0.631959
O5    O     O_R   0.723530 0.446300 0.497600 -0.628366
O6    O     O_R   0.276470 0.553700 0.502400 -0.635776
O7    O     O_R   0.735850 0.586490 0.503880 -0.627538
O8    O     O_R   0.264150 0.413510 0.496120 -0.611676
Zn1   Zn    Zn3+2 0.491780 0.406400 0.495810 0.920506
Zn2   Zn    Zn3+2 0.508220 0.593600 0.504190 0.911884
C29   C     C_3   0.046945 0.623063 0.563841 -0.371711
C30   C     C_3   0.943448 0.673589 0.612045 -0.343395
C31   C     C_3   0.043481 0.741850 0.661740 -0.940700
H11   H     H_    0.097505 0.711706 0.711662 0.271229
H12   H     H_    0.138819 0.781910 0.624314 0.279418
H13   H     H_    0.965218 0.782810 0.687241 0.254424
H14   H     H_    0.876786 0.706998 0.569604 0.249799
H15   H     H_    0.857690 0.630643 0.652287 0.225548
H16   H     H_    0.152112 0.618948 0.600526 0.229284
H17   H     H_    0.089042 0.659388 0.507897 0.209735
C32   C     C_3   0.956311 0.376690 0.573432 -0.390199
C33   C     C_3   0.048371 0.344777 0.642580 -0.358034
C34   C     C_3   0.969973 0.254843 0.669443 -0.896754
H18   H     H_    0.844281 0.252390 0.689493 0.251038
H19   H     H_    0.970924 0.210478 0.619656 0.269402
H20   H     H_    0.037733 0.233938 0.719887 0.254722
H21   H     H_    0.174071 0.343950 0.624860 0.255496
H22   H     H_    0.050766 0.387763 0.693797 0.213964
H23   H     H_    0.834751 0.376588 0.597764 0.239872
H24   H     H_    0.946773 0.332179 0.523137 0.216775
C35   C     C_3   0.749322 0.427665 0.263348 -0.414817
C36   C     C_3   0.888862 0.492619 0.295503 -0.345098
C37   C     C_3   0.018435 0.449335 0.330177 -0.856749
H25   H     H_    0.967446 0.403940 0.378926 0.264545
H26   H     H_    0.070822 0.414921 0.283104 0.254254
H27   H     H_    0.115573 0.497925 0.354423 0.255876
H28   H     H_    0.942739 0.536765 0.246289 0.213263
H29   H     H_    0.844834 0.530402 0.342484 0.219863
H30   H     H_    0.689804 0.384890 0.311848 0.230996
H31   H     H_    0.799854 0.384501 0.224219 0.192821
C38   C     C_3   0.338217 0.607695 0.758477 -0.385204
C39   C     C_3   0.465884 0.683888 0.783008 -0.307562
C40   C     C_3   0.414557 0.768122 0.765733 -0.921345
H32   H     H_    0.384104 0.773575 0.702052 0.277686
H33   H     H_    0.308911 0.773421 0.803487 0.266611
H34   H     H_    0.514265 0.821170 0.779482 0.250631
H35   H     H_    0.489073 0.679801 0.847943 0.228239
H36   H     H_    0.580361 0.682756 0.750868 0.216090
H37   H     H_    0.320142 0.609657 0.694034 0.207832
H38   H     H_    0.219627 0.612644 0.784367 0.214508
N7    N     N_3   0.731584 0.430244 0.088498 -0.451807
H39   H     H_    0.851668 0.452242 0.102717 0.182159
H40   H     H_    0.699461 0.365236 0.101449 0.177375
N8    N     N_3   0.248626 0.544257 0.914138 -0.474170
H41   H     H_    0.170828 0.497399 0.947205 0.190073
H42   H     H_    0.312597 0.587427 0.953200 0.195004
N9    N     N_3   0.650613 0.370827 0.736033 -0.462589
H43   H     H_    0.605128 0.306028 0.744884 0.176056
H44   H     H_    0.765330 0.384098 0.760274 0.185831
N10   N     N_3   0.342309 0.619043 0.258281 -0.455345
H45   H     H_    0.383886 0.682863 0.242555 0.182280
H46   H     H_    0.225375 0.601934 0.237458 0.180192

loop_
_geom_bond_atom_site_label_1
_geom_bond_atom_site_label_2
_ccdc_geom_bond_type
C29   C30   S    
N9    H43   S    
C2    C18   S    
C22   N7    S    
N7    H39   S    
C35   C36   S    
C1    O1    A    
N10   H46   S    
C37   H25   S    
C2    O2    A    
O6    Zn2   S    
C22   C24   A    
C19   C21   A    
C24   C26   A    
C39   H35   S    
N4    Zn1   S    
C23   N1    S    
C35   H31   S    
C31   H12   S    
C15   C16   D    
C32   H23   S    
C30   C31   S    
C11   H9    S    
C12   N4    A    
C17   C19   A    
C13   O7    A    
C38   H37   S    
C14   O8    A    
C29   H16   S    
C7    N5    S    
C30   H15   S    
C33   C34   S    
O1    Zn1   S    
N9    H44   S    
C5    H6    S    
N10   H45   S    
C37   H26   S    
C25   H1    S    
O4    Zn1   S    
C33   H22   S    
C34   H18   S    
C17   C27   A    
C18   C28   A    
C36   C37   S    
C4    C6    A    
C36   H29   S    
N1    N2    D    
C5    C7    A    
C39   C40   S    
C1    O3    A    
C31   H13   S    
C6    C8    A    
C3    C5    A    
C38   C39   S    
C27   N9    S    
C32   H24   S    
C20   C35   S    
C34   H19   S    
C15   C29   S    
N5    N6    D    
C38   H38   S    
C28   N10   S    
C33   H21   S    
C29   H17   S    
O2    Zn2   S    
C9    C11   A    
C10   C12   A    
O3    Zn2   S    
C13   O5    A    
C20   C22   A    
C26   H2    S    
N8    H42   S    
C13   C15   S    
C14   C16   S    
O8    Zn1   S    
C37   H27   S    
C7    C9    A    
C3    N3    A    
C26   C28   A    
C8    N6    S    
C19   C38   S    
C36   H28   S    
N7    H40   S    
C25   C27   A    
C1    C17   S    
C6    H5    S    
C34   H20   S    
C2    O4    A    
O7    Zn2   S    
C21   C23   A    
C32   C33   S    
C39   H36   S    
C21   N8    S    
C35   H30   S    
C31   H11   S    
C14   O6    A    
C4    N4    A    
O5    Zn1   S    
C24   N2    S    
C11   N3    A    
C18   C20   A    
C23   C25   A    
C12   H10   S    
C3    H4    S    
N3    Zn2   S    
C4    H3    S    
C40   H32   S    
C8    C10   A    
N8    H41   S    
C40   H34   S    
C9    H7    S    
C40   H33   S    
C30   H14   S    
C10   H8    S    
C16   C32   S    
