data_mof_unit_59659.cif
_audit_creation_date              2012-10-26T21:21:07-0400
_audit_creation_method            fapswitch 2.2
_symmetry_space_group_name_H-M    P1
_symmetry_Int_Tables_number       1
_space_group_crystal_system       triclinic
_cell_length_a                    10.99819
_cell_length_b                    11.002798
_cell_length_c                    10.0179
_cell_angle_alpha                 92.84005
_cell_angle_beta                  90.681245
_cell_angle_gamma                 90.537746
_cell_volume                      1210.63977585

loop_
_atom_site_label
_atom_site_type_symbol
_atom_type_description
_atom_site_fract_x
_atom_site_fract_y
_atom_site_fract_z
_atom_type_partial_charge
C1    C     C_R   0.495370 0.268021 0.496531 0.581799
C2    C     C_2   0.474739 0.139560 0.483521 0.245902
C3    C     C_2   0.492253 0.405223 0.923528 0.411728
C4    C     C_R   0.264106 0.511889 0.500718 0.595986
C5    C     C_2   0.531028 0.410502 0.070422 0.438641
C6    C     C_R   0.508024 0.733807 0.503145 0.596496
C7    C     C_R   0.738335 0.504889 0.500524 0.547267
C8    C     C_R   0.117399 0.633265 0.735101 0.202733
C9    C     C_R   0.039226 0.657103 0.842488 0.212955
C10   C     C_R   0.916775 0.647007 0.817246 0.210460
C11   C     C_R   0.885091 0.539104 0.746259 0.254466
C12   C     C_R   0.069694 0.558204 0.624556 -0.072815
C13   C     C_R   0.943271 0.526367 0.623791 -0.078464
C14   C     C_R   0.131635 0.538544 0.504801 0.001805
C15   C     C_R   0.067524 0.573095 0.393050 0.278440
C16   C     C_R   0.939638 0.557005 0.387104 0.270916
C17   C     C_R   0.875546 0.520625 0.501832 -0.014393
C18   C     C_2   0.548528 0.938432 0.413054 0.231706
C19   C     C_2   0.528002 0.866214 0.516246 0.227529
C20   C     C_2   0.566738 0.068176 0.441374 0.221674
Cl1   Cl    Cl    0.133722 0.698320 0.318409 -0.259746
Cl2   Cl    Cl    0.419476 0.269025 0.867383 -0.357837
Cl3   Cl    Cl    0.634112 0.301482 0.123386 -0.313290
Cl4   Cl    Cl    0.356166 0.553967 0.113681 -0.285810
Cl5   Cl    Cl    0.878081 0.783960 0.741565 -0.535120
Cl6   Cl    Cl    0.862460 0.605185 0.244981 -0.342542
Cl7   Cl    Cl    0.533028 0.931445 0.682391 -0.413150
Cl8   Cl    Cl    0.716049 0.125945 0.422631 -0.432955
Cu1   Cu    Cu3+1 0.500020 0.500020 0.638630 1.264100
Cu2   Cu    Cu3+1 0.499980 0.499980 0.361370 1.316904
H1    H     H_    0.147382 0.182861 0.474768 0.396181
H2    H     H_    0.658417 0.782655 0.833290 0.413571
H3    H     H_    0.110682 0.909824 0.710422 0.399931
H4    H     H_    0.904914 0.771554 0.046525 0.385832
H5    H     H_    0.766780 0.282935 0.706541 0.372647
H6    H     H_    0.572812 0.977265 0.054490 0.411728
N1    N     N_2   0.498640 0.498660 0.846910 -0.086666
N2    N     N_2   0.498610 0.498630 0.153040 -0.059473
O1    O     O_R   0.500020 0.321960 0.617040 -0.472579
O2    O     O_2   0.293664 0.065798 0.636408 -0.153484
O3    O     O_3   0.230573 0.207195 0.449364 -0.503988
O4    O     O_2   0.504346 0.712924 0.984974 -0.151523
O5    O     O_2   0.685115 0.587291 0.003365 -0.229876
O6    O     O_3   0.650136 0.699068 0.792761 -0.443927
O7    O     O_2   0.338062 0.723523 0.791087 -0.136864
O8    O     O_2   0.255956 0.767835 0.571094 -0.262409
O9    O     O_3   0.169998 0.883659 0.778112 -0.364183
O10   O     O_2   0.085979 0.581819 0.073553 -0.170577
O11   O     O_2   0.210024 0.756148 0.012393 -0.058020
O12   O     O_R   0.499980 0.321920 0.382900 -0.478505
O13   O     O_3   0.987154 0.798111 0.077289 -0.357301
O14   O     O_2   0.985557 0.325378 0.800527 -0.222049
O15   O     O_2   0.879814 0.432242 0.983110 -0.118971
O16   O     O_3   0.749943 0.325154 0.793907 -0.442350
O17   O     O_2   0.645003 0.797383 0.216955 -0.192382
O18   O     O_2   0.425420 0.839148 0.204132 -0.123214
O19   O     O_3   0.576741 0.010763 0.148093 -0.405897
O20   O     O_R   0.319670 0.500020 0.617100 -0.489276
O21   O     O_R   0.319630 0.499980 0.382950 -0.437946
O22   O     O_R   0.500020 0.678080 0.617100 -0.407667
O23   O     O_R   0.499980 0.678040 0.382960 -0.447643
O24   O     O_R   0.680370 0.500020 0.617050 -0.490230
O25   O     O_R   0.680330 0.499980 0.382900 -0.438665
O26   O     O_2   0.291975 0.982048 0.404775 -0.178064
S1    S     S_3+6 0.320162 0.092601 0.494148 0.111472
S2    S     S_3+6 0.584599 0.623856 0.911560 0.187405
S3    S     S_3+6 0.225350 0.751368 0.714317 0.139263
S4    S     S_3+6 0.085439 0.699558 0.004191 0.216813
S5    S     S_3+6 0.877925 0.403695 0.835052 0.124927
S6    S     S_3+6 0.548540 0.891309 0.241850 0.158575

loop_
_geom_bond_atom_site_label_1
_geom_bond_atom_site_label_2
_ccdc_geom_bond_type
C18   S6    S    
Cl4   N2    S    
C11   S5    S    
C7    O24   A    
O7    S3    D    
Cu1   Cu2   S    
O11   S4    D    
O19   S6    S    
C19   Cl7   S    
C9    C10   A    
C3    C5    S    
O6    S2    S    
C5    Cl3   S    
Cu1   O22   S    
C13   C17   A    
C8    C12   A    
C2    S1    S    
O15   S5    D    
O26   S1    D    
Cu1   O1    S    
H2    O6    S    
C9    S4    S    
O8    S3    D    
C5    N2    D    
O10   S4    D    
H5    O16   S    
C4    C14   S    
C6    C19   S    
C11   C13   A    
C7    O25   A    
H4    O13   S    
Cu1   O24   S    
O16   S5    S    
O5    S2    D    
H3    O9    S    
C1    C2    S    
C10   Cl5   S    
O9    S3    S    
C12   C14   A    
C18   C19   D    
C18   C20   S    
O13   S4    S    
N1    S2    S    
C16   Cl6   S    
O2    S1    D    
Cu2   O12   S    
O17   S6    D    
Cu1   N1    S    
C10   C11   A    
C1    O1    A    
C2    C20   D    
C15   C16   A    
C4    O21   A    
C20   Cl8   S    
C6    O22   A    
C15   Cl1   S    
O18   S6    D    
Cu1   O20   S    
C6    O23   A    
C8    S3    S    
H6    O19   S    
C1    O12   A    
Cu2   O23   S    
C4    O20   A    
O4    S2    D    
Cu2   O21   S    
C14   C15   A    
C16   C17   A    
C3    Cl2   S    
O3    S1    S    
O14   S5    D    
H1    O3    S    
Cu2   N2    S    
C12   C13   A    
Cu2   O25   S    
C3    N1    D    
C8    C9    A    
C7    C17   S    
