data_mof_unit_27454.cif
_audit_creation_date              2012-12-10T20:51:46-0500
_audit_creation_method            fapswitch 2.2
_symmetry_space_group_name_H-M    P1
_symmetry_Int_Tables_number       1
_space_group_crystal_system       triclinic
_cell_length_a                    8.089136
_cell_length_b                    8.934609
_cell_length_c                    16.697293
_cell_angle_alpha                 89.56135
_cell_angle_beta                  95.268881
_cell_angle_gamma                 90.021146
_cell_volume                      1201.63370462

loop_
_atom_site_label
_atom_site_type_symbol
_atom_type_description
_atom_site_fract_x
_atom_site_fract_y
_atom_site_fract_z
_atom_type_partial_charge
C1    C     C_R   0.499962 0.217915 0.500020 0.939559
C2    C     C_R   0.589501 0.395968 0.141717 0.190606
C3    C     C_R   0.551432 0.556298 0.906999 0.239305
C4    C     C_R   0.448503 0.442831 0.093020 0.239321
C5    C     C_R   0.688816 0.498512 0.873090 -0.189826
C6    C     C_R   0.311143 0.500779 0.126889 -0.189816
C7    C     C_R   0.683835 0.477452 0.790490 0.153684
C8    C     C_R   0.316168 0.522169 0.209466 0.153676
C9    C     C_1   0.499963 0.065171 0.500007 -0.163280
C10   C     C_1   0.500037 0.934829 0.499993 -0.163294
C11   C     C_R   0.500038 0.782084 0.499979 0.939594
C12   C     C_R   0.522876 0.499362 0.654455 0.908181
C13   C     C_R   0.477117 0.500603 0.345537 0.908109
C14   C     C_R   0.538593 0.517923 0.741428 -0.142016
C15   C     C_R   0.461417 0.481847 0.258559 -0.141987
C16   C     C_R   0.404694 0.583584 0.776011 -0.255073
C17   C     C_R   0.595311 0.416021 0.224022 -0.255084
C18   C     C_R   0.410444 0.603302 0.858333 0.190632
H1    H     H_    0.705614 0.380393 0.260940 0.204474
H2    H     H_    0.294394 0.619337 0.739108 0.204484
H3    H     H_    0.796506 0.462237 0.911700 0.204145
H4    H     H_    0.203473 0.536983 0.088259 0.204158
I1    I     I_    0.797872 0.298570 0.093673 -0.277554
I2    I     I_    0.202043 0.700564 0.906441 -0.277623
I3    I     I_    0.895650 0.372083 0.748854 -0.273936
I4    I     I_    0.104400 0.627743 0.251034 -0.273852
N1    N     N_1   0.073640 0.500030 0.499990 -0.007035
N2    N     N_1   0.926360 0.499970 0.500010 -0.007030
N3    N     N_2   0.548992 0.548864 0.990460 -0.131123
N4    N     N_2   0.450982 0.450171 0.009560 -0.131107
O1    O     O_R   0.636850 0.285340 0.500000 -0.610787
O2    O     O_R   0.363150 0.714660 0.500000 -0.610785
O3    O     O_R   0.363100 0.285350 0.500000 -0.610964
O4    O     O_R   0.636900 0.714650 0.500000 -0.610954
O5    O     O_R   0.652140 0.498630 0.616140 -0.593796
O6    O     O_R   0.347860 0.501370 0.383860 -0.593789
O7    O     O_R   0.378390 0.498650 0.616130 -0.617085
O8    O     O_R   0.621610 0.501350 0.383870 -0.617047
Zn1   Zn    Zn3+2 0.682780 0.499990 0.500010 1.032459
Zn2   Zn    Zn3+2 0.317220 0.500010 0.499990 1.032455

loop_
_geom_bond_atom_site_label_1
_geom_bond_atom_site_label_2
_ccdc_geom_bond_type
C2    C4    A    
N3    N4    D    
C8    C15   A    
C8    I4    S    
C9    C10   T    
O5    Zn1   S    
C7    I3    S    
C1    O1    A    
N1    Zn2   S    
C16   H2    S    
C13   C15   S    
C1    O3    A    
C2    C17   A    
C3    N3    S    
C13   O8    A    
C13   O6    A    
C18   I2    S    
C16   C18   A    
C17   H1    S    
O1    Zn1   S    
C11   O2    A    
O7    Zn2   S    
C5    C7    A    
O2    Zn2   S    
O8    Zn1   S    
C14   C16   A    
O3    Zn2   S    
C10   C11   S    
O4    Zn1   S    
C6    H4    S    
C3    C5    A    
O6    Zn2   S    
C1    C9    S    
C3    C18   A    
C4    C6    A    
C12   O7    A    
C2    I1    S    
C15   C17   A    
C11   O4    A    
C6    C8    A    
N2    Zn1   S    
C12   O5    A    
C7    C14   A    
C4    N4    S    
C12   C14   S    
N1    N2    T    
C5    H3    S    
