data_mof_unit_68137.cif
_audit_creation_date              2012-12-11T16:07:30-0500
_audit_creation_method            fapswitch 2.2
_symmetry_space_group_name_H-M    P1
_symmetry_Int_Tables_number       1
_space_group_crystal_system       triclinic
_cell_length_a                    7.110595
_cell_length_b                    14.582506
_cell_length_c                    16.006456
_cell_angle_alpha                 90.34472
_cell_angle_beta                  89.953263
_cell_angle_gamma                 89.018159
_cell_volume                      1659.43971146

loop_
_atom_site_label
_atom_site_type_symbol
_atom_type_description
_atom_site_fract_x
_atom_site_fract_y
_atom_site_fract_z
_atom_type_partial_charge
O1    O     O_R   0.494320 0.415010 0.412140 -0.505871
O2    O     O_R   0.824010 0.404260 0.587250 -0.527449
O3    O     O_R   0.994320 0.584990 0.587860 -0.547185
C1    C     C_R   0.656212 0.381144 0.614886 0.768180
O4    O     O_R   0.824040 0.403870 0.412760 -0.519126
O5    O     O_R   0.994350 0.584590 0.412130 -0.555223
C2    C     C_R   0.656205 0.378673 0.386927 0.904170
O6    O     O_R   0.494300 0.415410 0.587870 -0.560258
O7    O     O_3   0.660800 0.559290 0.500000 -0.379811
V1    V     V_3+5 0.935650 0.489000 0.500000 1.618459
O8    O     O_R   0.324060 0.595740 0.412750 -0.505407
C3    C     C_R   0.155794 0.608814 0.378293 0.776042
O9    O     O_R   0.324040 0.596130 0.587240 -0.530560
C4    C     C_R   0.154237 0.618792 0.615253 0.761016
V2    V     V_3+5 0.435660 0.511000 0.500000 1.651944
O10   O     O_3   0.160640 0.440710 0.500000 -0.363164
C5    C     C_3   0.958356 0.732984 0.721108 -0.140532
C6    C     C_3   0.029916 0.715658 0.811276 0.032483
H1    H     H_    0.943656 0.686226 0.861917 0.235672
H2    H     H_    0.813738 0.719751 0.698612 0.196892
C7    C     C_3   0.123312 0.810645 0.811875 -0.109652
C8    C     C_3   0.050989 0.828748 0.722433 -0.254198
C9    C     C_3   0.233290 0.784232 0.687463 0.422716
C10   C     C_3   0.307339 0.767502 0.776647 -0.163530
C11   C     C_3   0.213769 0.671856 0.775331 -0.087867
C12   C     C_3   0.142007 0.689543 0.685648 -0.139972
H3    H     H_    0.984849 0.893533 0.699908 0.161272
H4    H     H_    0.452284 0.781412 0.798531 0.165269
H5    H     H_    0.279387 0.606996 0.797898 0.219919
C13   C     C_3   0.241733 0.834912 0.262749 0.301772
H6    H     H_    0.161724 0.891153 0.295057 0.144763
C14   C     C_3   0.270298 0.756025 0.325214 -0.289264
H7    H     H_    0.239200 0.782282 0.389128 0.205010
H8    H     H_    0.418080 0.729466 0.325793 0.244705
H9    H     H_    0.348578 0.726115 0.129374 0.215358
C15   C     C_3   0.204564 0.711681 0.147636 0.181446
C16   C     C_3   0.930218 0.782937 0.219797 -0.308952
C17   C     C_3   0.124910 0.804722 0.183326 -0.266606
H10   H     H_    0.843631 0.751441 0.170806 0.294911
H11   H     H_    0.865314 0.848382 0.241266 0.240068
C18   C     C_3   0.145418 0.675334 0.304427 -0.230315
C19   C     C_3   0.204581 0.634362 0.215895 0.261399
C20   C     C_3   0.941846 0.715094 0.294049 -0.392539
H12   H     H_    0.896734 0.751220 0.352385 0.232360
H13   H     H_    0.841236 0.658646 0.283366 0.220835
C21   C     C_3   0.486713 0.243099 0.672456 -0.368725
H14   H     H_    0.349875 0.280021 0.663914 0.142324
H15   H     H_    0.514001 0.203108 0.614329 0.252014
C22   C     C_3   0.468121 0.175522 0.746534 -0.365721
C23   C     C_3   0.604071 0.363162 0.771310 0.177002
C24   C     C_3   0.833148 0.253946 0.696910 -0.304780
C25   C     C_3   0.648229 0.312521 0.687150 -0.041320
H16   H     H_    0.954972 0.297656 0.711000 0.185202
H17   H     H_    0.868834 0.217821 0.637896 0.210294
C26   C     C_3   0.622312 0.191261 0.813647 -0.039702
C27   C     C_3   0.613170 0.293946 0.845565 0.212433
C28   C     C_3   0.814035 0.181015 0.766532 -0.429630
H18   H     H_    0.746216 0.305194 0.880451 0.148809
C29   C     C_3   0.436322 0.298314 0.287590 0.211016
H19   H     H_    0.376870 0.368707 0.279337 0.160185
C30   C     C_3   0.433102 0.254692 0.197860 0.317716
H20   H     H_    0.446182 0.315473 0.156410 0.191164
H21   H     H_    0.543813 0.110067 0.290007 0.289984
C31   C     C_3   0.737917 0.210137 0.330866 0.387580
C32   C     C_3   0.751424 0.344720 0.238297 -0.442994
C33   C     C_3   0.645110 0.308060 0.315935 -0.279006
H22   H     H_    0.681657 0.407735 0.214486 0.229363
C34   C     C_3   0.610929 0.194409 0.181358 -0.244632
C35   C     C_3   0.667581 0.143451 0.263890 -0.424168
C36   C     C_3   0.754884 0.269722 0.165745 -0.297895
H23   H     H_    0.739725 0.303716 0.104318 0.238223
H24   H     H_    0.876910 0.229357 0.160957 0.290326
H25   H     H_    0.778058 0.089865 0.252368 0.187337
O11   O     O_R   0.771990 0.083520 0.910980 -0.560698
O12   O     O_R   0.442180 0.095020 0.086060 -0.489669
O13   O     O_R   0.271950 0.914280 0.086680 -0.500153
C37   C     C_R   0.608998 0.124568 0.108388 0.787222
O14   O     O_R   0.442270 0.094630 0.911580 -0.516734
O15   O     O_R   0.272040 0.913890 0.910940 -0.550239
C38   C     C_R   0.610894 0.118893 0.884201 0.715126
O16   O     O_R   0.771900 0.083910 0.086710 -0.564117
O17   O     O_3   0.605520 0.939610 0.998840 -0.361194
V3    V     V_3+5 0.330640 0.009880 0.998810 1.676642
O18   O     O_R   0.942330 0.902710 0.911540 -0.538935
C39   C     C_R   0.111891 0.880683 0.882958 0.752957
O19   O     O_R   0.942240 0.903100 0.086030 -0.524191
C40   C     C_R   0.111958 0.880630 0.115096 0.798225
V4    V     V_3+5 0.830640 0.987830 0.998780 1.574490
O20   O     O_3   0.105630 0.058150 0.998800 -0.362896
S1    S     S_3+6 0.422424 0.567976 0.206238 -0.039248
O21   O     O_2   0.500894 0.538517 0.288440 -0.399793
O22   O     O_2   0.378692 0.484590 0.154864 -0.294646
O23   O     O_3   0.592467 0.624990 0.156452 -0.493008
H26   H     H_    0.693676 0.578793 0.146010 0.388715
S2    S     S_3+6 0.105988 0.673018 0.049039 0.033057
O24   O     O_2   0.071125 0.571597 0.049438 -0.244569
O25   O     O_2   0.924910 0.721948 0.027764 -0.329973
O26   O     O_3   0.264274 0.694706 0.973984 -0.512287
H27   H     H_    0.367714 0.649433 0.982797 0.396547
H28   H     H_    0.092066 0.584983 0.200902 0.141557
H29   H     H_    0.480994 0.104119 0.722390 0.171407
H30   H     H_    0.325371 0.182033 0.773744 0.178452
H31   H     H_    0.457262 0.390259 0.765839 0.112457
S3    S     S_3+6 0.429360 0.320284 0.919144 0.103379
O27   O     O_2   0.497392 0.286394 0.001676 -0.330372
O28   O     O_2   0.396192 0.422176 0.926115 -0.234650
O29   O     O_3   0.225254 0.270377 0.894679 -0.478759
H32   H     H_    0.166626 0.310954 0.852278 0.340172
H33   H     H_    0.827418 0.111103 0.738541 0.178179
H34   H     H_    0.933307 0.188268 0.810808 0.178859
S4    S     S_3+6 0.744707 0.464099 0.791528 0.013605
O30   O     O_2   0.758033 0.482151 0.883862 -0.225279
O31   O     O_2   0.940986 0.453950 0.757479 -0.381164
O32   O     O_3   0.638520 0.555655 0.747368 -0.518925
H35   H     H_    0.683247 0.556099 0.688829 0.326500
S5    S     S_3+6 0.287385 0.249690 0.367851 0.095092
O33   O     O_2   0.111169 0.306384 0.366863 -0.356545
O34   O     O_2   0.244470 0.150642 0.353097 -0.240923
O35   O     O_3   0.373639 0.259738 0.465034 -0.467328
H36   H     H_    0.268542 0.242979 0.502320 0.359782
S6    S     S_3+6 0.214522 0.231496 0.158216 0.043194
O36   O     O_2   0.118501 0.321615 0.174875 -0.346909
O37   O     O_2   0.203833 0.217893 0.065545 -0.255400
O38   O     O_3   0.118472 0.141702 0.207045 -0.501452
H37   H     H_    0.127607 0.089653 0.167276 0.351400
S7    S     S_3+6 0.740359 0.158573 0.432658 0.072303
O39   O     O_2   0.759460 0.231803 0.497662 -0.390877
O40   O     O_2   0.567538 0.103553 0.448928 -0.242389
O41   O     O_3   0.927918 0.087185 0.438504 -0.436310
H38   H     H_    0.937096 0.070312 0.498240 0.378800
H39   H     H_    0.890133 0.367945 0.258497 0.268984
S8    S     S_3+6 0.367701 0.834624 0.606378 0.033004
O42   O     O_2   0.523485 0.769993 0.579684 -0.310792
O43   O     O_2   0.242386 0.855013 0.533108 -0.320797
O44   O     O_3   0.460853 0.932621 0.641531 -0.482377
H40   H     H_    0.350805 0.972865 0.654271 0.319068
H41   H     H_    0.888365 0.214149 0.316972 0.227463
S9    S     S_3+6 0.465394 0.879690 0.244391 -0.033651
O45   O     O_2   0.583317 0.876826 0.322394 -0.313960
O46   O     O_2   0.560675 0.829476 0.174105 -0.373702
O47   O     O_3   0.436111 0.986692 0.217075 -0.504164
H42   H     H_    0.562303 0.995066 0.193994 0.340853

loop_
_geom_bond_atom_site_label_1
_geom_bond_atom_site_label_2
_ccdc_geom_bond_type
O15   V3    S    
C26   C27   S    
S7    O39   D    
C13   S9    S    
C6    C7    S    
C18   C19   S    
C15   C19   S    
S2    O24   D    
C30   C34   S    
C1    O6    A    
S3    O28   D    
O32   H35   S    
S2    O26   S    
O44   H40   S    
C21   C22   S    
C16   C17   S    
C1    C25   S    
C5    C12   S    
C16   H11   S    
C29   C33   S    
C22   H29   S    
C13   H6    S    
O19   V4    S    
V2    O10   S    
C21   C25   S    
C5    H2    S    
S5    O33   D    
C13   C17   S    
C30   S6    S    
C6    H1    S    
C9    C12   S    
S6    O38   S    
C34   C35   S    
O8    V2    S    
O14   V3    S    
C28   H33   S    
H21   C35   S    
S5    O34   D    
S8    O42   D    
C32   H22   S    
C23   C25   S    
O29   H32   S    
C35   H25   S    
C36   H23   S    
C24   C28   S    
O7    V1    S    
C29   H19   S    
O11   C38   A    
O9    C4    A    
C18   C20   S    
C6    C11   S    
C19   S1    S    
O13   V3    S    
S3    O27   D    
C32   H39   S    
C21   H15   S    
C31   H41   S    
C11   H5    S    
V3    O20   S    
C7    C39   S    
C29   C30   S    
C24   C25   S    
O18   V4    S    
O18   C39   A    
C10   C11   S    
C27   S3    S    
C22   H30   S    
O4    C2    A    
O19   C40   A    
C29   S5    S    
S7    O41   S    
C11   C12   S    
C22   C26   S    
O17   V3    S    
C23   C27   S    
C24   H16   S    
H9    C15   S    
C14   H8    S    
C16   C20   S    
O2    C1    A    
C20   H12   S    
C3    C18   S    
C19   H28   S    
C20   H13   S    
S1    O22   D    
C28   H34   S    
C37   O16   A    
C14   C18   S    
C5    C6    S    
S4    O31   D    
O23   H26   S    
C31   C35   S    
C4    C12   S    
O12   C37   A    
O13   C40   A    
S6    O36   D    
O3    C4    A    
S9    O46   D    
O1    V2    S    
S8    O43   D    
C32   C33   S    
O6    V2    S    
C31   S7    S    
C8    H3    S    
C26   C28   S    
O2    V1    S    
O5    C3    A    
O15   C39   A    
S1    O23   S    
O41   H38   S    
C34   C37   S    
C21   H14   S    
S7    O40   D    
S4    O30   D    
O1    C2    A    
C10   H4    S    
S9    O47   S    
O5    V1    S    
O35   H36   S    
S2    O25   D    
C5    C8    S    
S5    O35   S    
C17   C40   S    
C24   H17   S    
C14   H7    S    
O9    V2    S    
O7    V2    S    
O4    V1    S    
C16   H10   S    
O3    V1    S    
V1    O10   S    
O47   H42   S    
C2    C33   S    
C13   C14   S    
C26   C38   S    
C15   S2    S    
O12   V3    S    
S1    O21   D    
S8    O44   S    
O17   V4    S    
C15   C17   S    
C23   S4    S    
C27   H18   S    
C9    S8    S    
S4    O32   S    
O14   C38   A    
C30   H20   S    
S6    O37   D    
O16   V4    S    
S9    O45   D    
C9    C10   S    
C23   H31   S    
V4    O20   S    
C34   C36   S    
O26   H27   S    
C7    C10   S    
C8    C9    S    
C36   H24   S    
O11   V4    S    
C7    C8    S    
S3    O29   S    
C32   C36   S    
O8    C3    A    
C31   C33   S    
O38   H37   S    
