data_mof_unit_64615.cif
_audit_creation_date              2012-12-10T19:49:11-0500
_audit_creation_method            fapswitch 2.2
_symmetry_space_group_name_H-M    P1
_symmetry_Int_Tables_number       1
_space_group_crystal_system       triclinic
_cell_length_a                    28.277646
_cell_length_b                    18.236551
_cell_length_c                    21.597904
_cell_angle_alpha                 88.688528
_cell_angle_beta                  139.797842
_cell_angle_gamma                 91.00229
_cell_volume                      7187.38516538

loop_
_atom_site_label
_atom_site_type_symbol
_atom_type_description
_atom_site_fract_x
_atom_site_fract_y
_atom_site_fract_z
_atom_type_partial_charge
Br1   Br    Br    0.903526 0.138219 0.565832 -0.488057
Br2   Br    Br    0.093414 0.860336 0.412892 -0.507136
Br3   Br    Br    0.905623 0.860544 0.243542 -0.489038
Br4   Br    Br    0.091181 0.141209 0.771655 -0.507936
Br5   Br    Br    0.404925 0.639066 0.567076 -0.488691
Br6   Br    Br    0.593035 0.360064 0.412524 -0.507177
Br7   Br    Br    0.405262 0.360759 0.243142 -0.488989
Br8   Br    Br    0.592677 0.640155 0.773182 -0.507403
C1    C     C_R   0.858698 0.999999 0.858696 0.918442
C2    C     C_R   0.000002 0.141250 0.500405 0.968551
C3    C     C_R   0.500002 0.358749 0.499606 0.968913
C4    C     C_R   0.500003 0.641250 0.500400 0.968835
C5    C     C_R   0.999980 0.004068 0.621202 0.953825
C6    C     C_R   0.000046 0.996060 0.378814 0.953830
C7    C     C_R   0.499991 0.503980 0.621219 0.953817
C8    C     C_R   0.500043 0.496038 0.378813 0.953819
C9    C     C_R   0.499995 0.140805 0.499402 0.916314
C10   C     C_R   0.499998 0.859195 0.500591 0.916330
C11   C     C_R   0.999995 0.640805 0.499402 0.916316
C12   C     C_R   0.141299 0.000001 0.141310 0.916429
C13   C     C_R   0.999998 0.359195 0.500591 0.916319
C14   C     C_R   0.640802 0.999999 0.640802 0.919417
C15   C     C_R   0.359196 0.000000 0.359196 0.920257
C16   C     C_R   0.140801 0.499999 0.640802 0.919405
C17   C     C_R   0.859196 0.500000 0.359196 0.920255
C18   C     C_1   0.000002 0.782239 0.498646 -0.131097
C19   C     C_1   0.000004 0.217760 0.501367 -0.131098
C20   C     C_1   0.500002 0.282239 0.498644 -0.131079
C21   C     C_1   0.500005 0.717761 0.501364 -0.131071
C22   C     C_1   0.499997 0.217384 0.498360 -0.150191
C23   C     C_R   0.358698 0.499999 0.858686 0.918475
C24   C     C_1   0.500002 0.782616 0.501638 -0.150177
C25   C     C_1   0.999997 0.717384 0.498361 -0.150164
C26   C     C_1   0.000001 0.282616 0.501639 -0.150186
C27   C     C_R   0.999208 0.001314 0.877550 0.889258
C28   C     C_R   0.999145 0.998684 0.120801 0.889063
C29   C     C_R   0.499130 0.501316 0.877474 0.889134
C30   C     C_R   0.499166 0.498684 0.120823 0.889101
C31   C     C_3   0.934403 0.059277 0.718642 0.264935
C32   C     C_3   0.079936 0.970549 0.294017 0.276832
C33   C     C_3   0.935273 0.939726 0.151126 0.265719
C34   C     C_R   0.641299 0.500000 0.141313 0.916395
C35   C     C_3   0.079545 0.030710 0.865385 0.277304
C36   C     C_3   0.434958 0.559959 0.719134 0.265451
C37   C     C_3   0.579878 0.470324 0.293973 0.276827
C38   C     C_3   0.435128 0.439900 0.150965 0.265664
C39   C     C_3   0.579780 0.529853 0.865674 0.277018
C40   C     C_3   0.930349 0.049817 0.642624 0.131956
C41   C     C_3   0.073919 0.959782 0.360240 0.105907
C42   C     C_3   0.931096 0.949229 0.218903 0.130967
C43   C     C_3   0.073303 0.041452 0.786910 0.104804
C44   C     C_3   0.430823 0.550470 0.643041 0.131293
C45   C     C_1   0.717345 0.999998 0.717336 -0.166237
C46   C     C_3   0.573822 0.459565 0.360157 0.105731
C47   C     C_3   0.430973 0.449396 0.218765 0.131137
C48   C     C_3   0.573692 0.540610 0.787347 0.105544
C49   C     C_3   0.984902 0.927235 0.769369 -0.455653
C50   C     C_3   0.983717 0.072557 0.199219 -0.455927
C51   C     C_3   0.484056 0.427378 0.768545 -0.455847
C52   C     C_3   0.483936 0.572593 0.199445 -0.455874
C53   C     C_3   0.999707 0.006214 0.809711 0.074397
C54   C     C_3   0.999731 0.993797 0.189722 0.074471
C55   C     C_3   0.499688 0.506209 0.809695 0.074433
C56   C     C_1   0.282649 0.000002 0.282659 -0.167836
C57   C     C_3   0.499737 0.493793 0.189729 0.074450
C58   C     C_3   0.999587 0.007643 0.688562 -0.068301
C59   C     C_3   0.999696 0.992460 0.310713 -0.068373
C60   C     C_3   0.499626 0.507574 0.688606 -0.068325
C61   C     C_3   0.499687 0.492441 0.310706 -0.068346
C62   C     C_3   0.992891 0.927662 0.706745 -0.584804
C63   C     C_3   0.991763 0.072312 0.277870 -0.585094
C64   C     C_3   0.492082 0.427680 0.705962 -0.585030
C65   C     C_3   0.491972 0.572317 0.278087 -0.585065
C66   C     C_1   0.782178 0.999998 0.782170 -0.191748
C67   C     C_1   0.217345 0.499999 0.717335 -0.166297
C68   C     C_1   0.217815 0.000002 0.217828 -0.193959
C69   C     C_1   0.282178 0.499998 0.782164 -0.191745
C70   C     C_1   0.717815 0.500001 0.217829 -0.193928
C71   C     C_3   0.858837 0.037127 0.671989 -0.903011
C72   C     C_3   0.137440 0.032701 0.337239 -0.931598
C73   C     C_3   0.859360 0.960642 0.046320 -0.903228
C74   C     C_3   0.137982 0.969413 0.938011 -0.932042
C75   C     C_3   0.359151 0.538645 0.672226 -0.903138
C76   C     C_3   0.637549 0.532325 0.337376 -0.931656
C77   C     C_3   0.359275 0.461035 0.046214 -0.903221
C78   C     C_1   0.782649 0.500001 0.282659 -0.167797
C79   C     C_3   0.637582 0.467972 0.937733 -0.931704
C80   C     C_3   0.942801 0.142457 0.741364 -0.735623
C81   C     C_3   0.114551 0.903023 0.296169 -0.746871
C82   C     C_3   0.944973 0.856649 0.146621 -0.735373
C83   C     C_3   0.113222 0.098720 0.931508 -0.746193
C84   C     C_3   0.444242 0.643070 0.742663 -0.735382
C85   C     C_3   0.614327 0.402709 0.295964 -0.746605
C86   C     C_3   0.444598 0.356802 0.146208 -0.735540
C87   C     C_3   0.614103 0.597537 0.932452 -0.746707
C88   C     C_R   0.000002 0.858749 0.499608 0.969085
H1    H     H_    0.882498 0.014092 0.584594 0.154377
H2    H     H_    0.020363 0.115247 0.215401 0.218770
H3    H     H_    0.928541 0.092565 0.130913 0.193675
H4    H     H_    0.022228 0.885127 0.827129 0.218435
H5    H     H_    0.428983 0.407088 0.726614 0.193808
H6    H     H_    0.520704 0.615182 0.215753 0.218715
H7    H     H_    0.428818 0.592758 0.131190 0.193750
H8    H     H_    0.520919 0.384873 0.825861 0.218672
H9    H     H_    0.944438 0.899938 0.637922 0.201786
H10   H     H_    0.040086 0.105509 0.339715 0.198871
H11   H     H_    0.942912 0.099318 0.249412 0.202336
H12   H     H_    0.119543 0.990934 0.427113 0.161472
H13   H     H_    0.041695 0.895209 0.741968 0.199339
H14   H     H_    0.443355 0.400447 0.636852 0.202156
H15   H     H_    0.540382 0.605383 0.340028 0.198955
H16   H     H_    0.443191 0.599451 0.249694 0.202235
H17   H     H_    0.540556 0.394718 0.740895 0.199018
H18   H     H_    0.841681 0.980676 0.644188 0.217256
H19   H     H_    0.859191 0.042766 0.723391 0.247647
H20   H     H_    0.814505 0.073072 0.608921 0.265744
H21   H     H_    0.129813 0.081977 0.357881 0.233251
H22   H     H_    0.194003 0.013688 0.404647 0.253663
H23   H     H_    0.882718 0.984245 0.180690 0.154705
H24   H     H_    0.136278 0.049785 0.286389 0.249240
H25   H     H_    0.841339 0.016843 0.038880 0.217102
H26   H     H_    0.859771 0.954917 0.995692 0.248226
H27   H     H_    0.815601 0.924046 0.021376 0.265879
H28   H     H_    0.131126 0.920096 0.902800 0.233389
H29   H     H_    0.194258 0.989311 0.983491 0.253972
H30   H     H_    0.137025 0.952194 0.986716 0.248444
H31   H     H_    0.341404 0.482367 0.643868 0.217141
H32   H     H_    0.359543 0.544335 0.723660 0.248042
H33   H     H_    0.315208 0.575036 0.609495 0.265836
H34   H     H_    0.119403 0.011062 0.811697 0.161839
H35   H     H_    0.630059 0.581611 0.358170 0.233280
H36   H     H_    0.694063 0.513156 0.404725 0.253727
H37   H     H_    0.636421 0.549431 0.286565 0.249096
H38   H     H_    0.341406 0.517280 0.038938 0.217135
H39   H     H_    0.359677 0.455327 0.995575 0.248123
H40   H     H_    0.315413 0.424552 0.021150 0.265826
H41   H     H_    0.630203 0.418684 0.902054 0.233293
H42   H     H_    0.694059 0.487263 0.983387 0.253744
H43   H     H_    0.636480 0.450844 0.986310 0.248992
H44   H     H_    0.890909 0.172462 0.679740 0.258440
H45   H     H_    0.382607 0.515231 0.584654 0.154603
H46   H     H_    0.954774 0.154126 0.802114 0.241427
H47   H     H_    0.983456 0.170080 0.751854 0.273917
H48   H     H_    0.126847 0.915948 0.259053 0.235491
H49   H     H_    0.167940 0.888582 0.371388 0.256711
H50   H     H_    0.082062 0.852628 0.264701 0.243389
H51   H     H_    0.893527 0.825869 0.104888 0.258208
H52   H     H_    0.957270 0.845030 0.110191 0.241390
H53   H     H_    0.985974 0.829704 0.217873 0.273876
H54   H     H_    0.126147 0.085837 0.993741 0.235914
H55   H     H_    0.166187 0.114176 0.962384 0.256702
H56   H     H_    0.619531 0.490586 0.427124 0.161541
H57   H     H_    0.079825 0.148514 0.897448 0.243194
H58   H     H_    0.392650 0.673602 0.681356 0.258298
H59   H     H_    0.456437 0.654706 0.803601 0.241411
H60   H     H_    0.485131 0.670236 0.753329 0.273860
H61   H     H_    0.626721 0.415620 0.258962 0.235566
H62   H     H_    0.667649 0.388098 0.371156 0.256738
H63   H     H_    0.581681 0.352416 0.264290 0.243371
H64   H     H_    0.393070 0.326161 0.104390 0.258170
H65   H     H_    0.456846 0.345173 0.109722 0.241400
H66   H     H_    0.485533 0.329736 0.217383 0.273898
H67   H     H_    0.382686 0.484537 0.180646 0.154649
H68   H     H_    0.626568 0.584645 0.994303 0.235642
H69   H     H_    0.667380 0.612275 0.963834 0.256666
H70   H     H_    0.581343 0.647754 0.898750 0.243340
H71   H     H_    0.619471 0.509702 0.811858 0.161586
H72   H     H_    0.930056 0.906346 0.727684 0.194098
O1    O     O_R   0.892660 0.939370 0.892650 -0.616443
O2    O     O_R   0.000020 0.060630 0.092620 -0.631063
O3    O     O_R   0.000020 0.939370 0.092620 -0.638050
O4    O     O_R   0.999980 0.060630 0.907380 -0.638117
O5    O     O_R   0.499980 0.439370 0.907380 -0.631017
O6    O     O_R   0.500020 0.560630 0.092620 -0.631031
O7    O     O_R   0.500020 0.439370 0.092620 -0.638059
O8    O     O_R   0.499980 0.560630 0.907380 -0.638070
O9    O     O_R   0.939350 0.892680 0.439340 -0.605004
O10   O     O_R   0.060650 0.107320 0.560660 -0.612729
O11   O     O_R   0.060650 0.892680 0.560660 -0.612253
O12   O     O_R   0.107340 0.060630 0.107350 -0.620072
O13   O     O_R   0.939350 0.107320 0.439340 -0.604847
O14   O     O_R   0.439350 0.392680 0.439340 -0.605002
O15   O     O_R   0.560650 0.607320 0.560660 -0.612431
O16   O     O_R   0.560650 0.392680 0.560660 -0.612374
O17   O     O_R   0.439350 0.607320 0.439340 -0.604987
O18   O     O_R   0.939380 1.000000 0.531980 -0.614949
O19   O     O_R   0.060620 0.000000 0.468020 -0.626556
O20   O     O_R   0.439380 0.500000 0.531980 -0.615385
O21   O     O_R   0.560620 0.500000 0.468020 -0.626739
O22   O     O_R   0.060570 1.000000 0.653170 -0.627500
O23   O     O_R   0.107340 0.939370 0.107350 -0.619979
O24   O     O_R   0.939430 0.000000 0.346830 -0.615548
O25   O     O_R   0.560570 0.500000 0.653170 -0.626860
O26   O     O_R   0.439430 0.500000 0.346830 -0.615446
O27   O     O_R   0.499910 0.107290 0.447610 -0.595245
O28   O     O_R   0.500090 0.892710 0.552390 -0.595225
O29   O     O_R   0.500090 0.107290 0.552390 -0.629843
O30   O     O_R   0.499910 0.892710 0.447610 -0.629831
O31   O     O_R   0.999910 0.607290 0.447610 -0.595248
O32   O     O_R   0.000090 0.392710 0.552390 -0.595190
O33   O     O_R   0.000090 0.607290 0.552390 -0.629834
O34   O     O_R   0.892660 0.060630 0.892650 -0.616361
O35   O     O_R   0.999910 0.392710 0.447610 -0.629844
O36   O     O_R   0.607280 0.000000 0.555010 -0.616722
O37   O     O_R   0.392720 0.000000 0.444990 -0.617360
O38   O     O_R   0.107280 0.500000 0.555010 -0.616760
O39   O     O_R   0.892720 0.500000 0.444990 -0.617357
O40   O     O_R   0.607300 1.000000 0.659580 -0.616499
O41   O     O_R   0.392700 1.000000 0.340420 -0.617114
O42   O     O_R   0.107300 0.500000 0.659580 -0.616472
O43   O     O_R   0.892700 0.500000 0.340420 -0.617104
O44   O     O_R   0.392660 0.439370 0.892650 -0.616483
O45   O     O_R   0.607340 0.560630 0.107350 -0.620029
O46   O     O_R   0.607340 0.439370 0.107350 -0.619975
O47   O     O_R   0.392660 0.560630 0.892650 -0.616425
O48   O     O_R   0.999980 0.939370 0.907380 -0.630931
Zn1   Zn    Zn3+2 0.000000 0.919050 0.000000 0.950186
Zn2   Zn    Zn3+2 0.500050 0.000000 0.569860 0.996223
Zn3   Zn    Zn3+2 0.999950 0.500000 0.430140 0.996187
Zn4   Zn    Zn3+2 0.000050 0.500000 0.569860 0.996308
Zn5   Zn    Zn3+2 0.000000 0.080950 0.000000 0.949993
Zn6   Zn    Zn3+2 0.500000 0.419050 0.000000 0.950090
Zn7   Zn    Zn3+2 0.500000 0.580950 0.000000 0.950075
Zn8   Zn    Zn3+2 0.919050 0.000000 0.419040 1.022875
Zn9   Zn    Zn3+2 0.080950 0.000000 0.580960 1.008988
Zn10  Zn    Zn3+2 0.419050 0.500000 0.419040 1.022527
Zn11  Zn    Zn3+2 0.580950 0.500000 0.580960 1.009389
Zn12  Zn    Zn3+2 0.499950 1.000000 0.430140 0.996212

loop_
_geom_bond_atom_site_label_1
_geom_bond_atom_site_label_2
_ccdc_geom_bond_type
C2    C19   S    
C50   C54   S    
O1    Zn1   S    
C72   H24   S    
C9    C22   S    
O8    Zn7   S    
C71   H19   S    
C4    C21   S    
O22   Zn9   S    
C13   O35   A    
C1    O1    A    
C45   C66   T    
C50   H2    S    
Br7   C47   S    
C75   H32   S    
C36   C75   S    
C37   C85   S    
Br8   C48   S    
C12   O23   A    
O42   Zn4   S    
C12   O12   A    
C49   H72   S    
O44   Zn6   S    
C88   O11   A    
C81   H49   S    
C40   H1    S    
O39   Zn4   S    
O27   Zn12  S    
C73   H27   S    
C51   H8    S    
C31   C80   S    
C62   H13   S    
C79   H41   S    
C83   H57   S    
C21   C24   T    
O20   Zn10  S    
C39   C55   S    
O19   Zn9   S    
C28   C54   S    
C50   C63   S    
C30   O6    A    
C4    O15   A    
C23   O47   A    
C4    O17   A    
C32   C41   S    
C52   C65   S    
C11   O33   A    
C32   C54   S    
C12   C68   S    
C85   H63   S    
C74   H28   S    
C49   C53   S    
C17   O43   A    
C74   H30   S    
O10   Zn9   S    
C82   H52   S    
O4    Zn5   S    
O46   Zn6   S    
C43   H34   S    
C80   H44   S    
C23   O44   A    
C38   C47   S    
C10   O30   A    
C6    C59   S    
C32   C72   S    
Br5   C44   S    
C61   C65   S    
O41   Zn12  S    
C88   O9    A    
O36   Zn12  S    
C52   H7    S    
C27   O48   A    
C86   H66   S    
C80   H47   S    
C44   C60   S    
C51   C64   S    
C38   C77   S    
C6    O24   A    
C36   C44   S    
C33   C82   S    
C36   C55   S    
C71   H20   S    
C15   O37   A    
O13   Zn8   S    
O40   Zn2   S    
C27   O4    A    
O34   Zn5   S    
O23   Zn1   S    
O21   Zn11  S    
C3    O14   A    
C33   C54   S    
Br6   C46   S    
C82   H53   S    
C52   H6    S    
O5    Zn6   S    
C87   H69   S    
C80   H46   S    
C29   C55   S    
Br3   C42   S    
O30   Zn12  S    
C23   C69   S    
C14   C45   S    
C72   H22   S    
C5    C58   S    
C19   C26   T    
C18   C88   S    
C81   H50   S    
C31   C53   S    
C64   H14   S    
O37   Zn2   S    
O6    Zn7   S    
Br4   C43   S    
C10   O28   A    
C42   H23   S    
C51   H5    S    
C65   H15   S    
O31   Zn3   S    
O48   Zn1   S    
O25   Zn11  S    
C38   C57   S    
C84   H60   S    
C11   C25   S    
O15   Zn11  S    
C16   O42   A    
O14   Zn10  S    
O47   Zn7   S    
C46   H56   S    
C13   C26   S    
C15   O41   A    
C48   C60   S    
C49   H4    S    
C29   O5    A    
C64   H17   S    
C76   H36   S    
C35   C83   S    
C5    O22   A    
C73   H25   S    
C43   C58   S    
C31   C71   S    
O11   Zn9   S    
C85   H61   S    
C74   H29   S    
C82   H51   S    
C34   O46   A    
Br2   C41   S    
O2    Zn5   S    
C63   H10   S    
C18   C25   T    
C77   H40   S    
C38   C86   S    
C30   C57   S    
C41   H12   S    
C60   C64   S    
C33   C73   S    
C56   C68   T    
C14   O40   A    
O12   Zn5   S    
C27   C53   S    
C16   C67   S    
O3    Zn1   S    
C9    O29   A    
C67   C69   T    
C86   H65   S    
O24   Zn8   S    
C47   C61   S    
C77   H39   S    
C15   C56   S    
C52   C57   S    
C34   C70   S    
C37   C57   S    
C32   C81   S    
C9    O27   A    
C37   C76   S    
C10   C24   S    
C1    C66   S    
C79   H42   S    
O29   Zn2   S    
C87   H70   S    
C33   C42   S    
C35   C53   S    
C65   H16   S    
C42   C59   S    
C11   O31   A    
C2    O13   A    
O18   Zn8   S    
C72   H21   S    
C28   O3    A    
C86   H64   S    
C5    O18   A    
C41   C59   S    
C63   H11   S    
C51   C55   S    
C1    O34   A    
C3    O16   A    
O33   Zn4   S    
C79   H43   S    
C50   H3    S    
C62   H9    S    
C36   C84   S    
C37   C46   S    
C83   H54   S    
O28   Zn2   S    
Br1   C40   S    
C75   H33   S    
O35   Zn3   S    
O38   Zn3   S    
C81   H48   S    
O43   Zn3   S    
C7    O20   A    
C8    C61   S    
C76   H35   S    
C28   O2    A    
C44   H45   S    
C14   O36   A    
C73   H26   S    
C40   C58   S    
O26   Zn10  S    
C20   C22   T    
C47   H67   S    
C34   O45   A    
C87   H68   S    
C29   O8    A    
C83   H55   S    
C6    O19   A    
O45   Zn7   S    
C35   C43   S    
C30   O7    A    
C58   C62   S    
C46   C61   S    
C3    C20   S    
O32   Zn4   S    
C7    C60   S    
C48   H71   S    
C16   O38   A    
C17   C78   S    
O7    Zn6   S    
C84   H59   S    
C59   C63   S    
O9    Zn8   S    
C85   H62   S    
C75   H31   S    
C8    O26   A    
C8    O21   A    
C49   C62   S    
O17   Zn10  S    
C7    O25   A    
C70   C78   T    
C71   H18   S    
C35   C74   S    
C39   C87   S    
C31   C40   S    
C84   H58   S    
C13   O32   A    
O16   Zn11  S    
C77   H38   S    
C17   O39   A    
C76   H37   S    
C2    O10   A    
C39   C79   S    
C39   C48   S    
