data_mof_unit_26043.cif
_audit_creation_date              2012-12-11T17:29:41-0500
_audit_creation_method            fapswitch 2.2
_symmetry_space_group_name_H-M    P1
_symmetry_Int_Tables_number       1
_space_group_crystal_system       triclinic
_cell_length_a                    8.231339
_cell_length_b                    16.354288
_cell_length_c                    18.862114
_cell_angle_alpha                 99.693762
_cell_angle_beta                  91.695056
_cell_angle_gamma                 92.897461
_cell_volume                      2497.84773656

loop_
_atom_site_label
_atom_site_type_symbol
_atom_type_description
_atom_site_fract_x
_atom_site_fract_y
_atom_site_fract_z
_atom_type_partial_charge
Ba1   Ba    Ba6+2 0.845660 0.536000 0.465120 1.649233
Ba2   Ba    Ba6+2 0.344160 0.464070 0.534880 1.646479
C1    C     C_3   0.559241 0.789651 0.207849 -0.050739
C2    C     C_R   0.917735 0.414899 0.091035 -0.136057
C3    C     C_R   0.777441 0.437447 0.952601 -0.108147
C4    C     C_3   0.082830 0.695514 0.268363 0.398662
C5    C     C_R   0.936920 0.467873 0.976421 0.024858
C6    C     C_R   0.722490 0.434886 0.882062 -0.090838
C7    C     C_R   0.822356 0.464188 0.831993 -0.033372
C8    C     C_R   0.976964 0.502968 0.855727 -0.003050
C9    C     C_R   0.034212 0.505485 0.928639 0.024382
C10   C     C_R   0.771026 0.456647 0.759023 -0.007827
C11   C     C_R   0.874419 0.485554 0.710121 -0.299890
C12   C     C_3   0.693050 0.766497 0.258408 0.301528
C13   C     C_R   0.021069 0.530179 0.732756 0.044015
C14   C     C_R   0.072849 0.540039 0.806903 -0.040008
C15   C     C_R   0.152461 0.502151 0.071789 0.021258
C16   C     C_3   0.079311 0.714824 0.191637 0.275848
C17   C     C_R   0.209758 0.500757 0.144297 -0.024767
C18   C     C_R   0.116618 0.457425 0.190772 -0.057142
C19   C     C_R   0.976197 0.408928 0.160031 0.170505
C20   C     C_R   0.216308 0.585951 0.834224 -0.027036
C21   C     C_R   0.273437 0.587776 0.905011 -0.098872
C22   C     C_R   0.187697 0.545350 0.953155 0.004665
C23   C     C_3   0.477550 0.321580 0.314831 0.400492
C24   C     C_R   0.247567 0.543421 0.025127 0.021197
C25   C     C_R   0.402017 0.579079 0.051691 -0.091145
C26   C     C_R   0.359202 0.544202 0.170475 -0.048068
C27   C     C_R   0.455697 0.579373 0.122459 -0.116541
C28   C     C_3   0.201999 0.719752 0.624381 0.317440
C29   C     C_R   0.406398 0.551844 0.244138 -0.002449
C30   C     C_R   0.311316 0.512261 0.289372 -0.275312
C31   C     C_R   0.168926 0.465452 0.265189 0.027363
C32   C     C_R   0.373065 0.732147 0.475795 -0.208045
C33   C     C_R   0.522560 0.759870 0.510164 0.039562
C34   C     C_3   0.436589 0.282785 0.236757 0.338360
C35   C     C_R   0.577257 0.843171 0.515554 -0.124998
C36   C     C_R   0.481651 0.899530 0.486083 0.246080
C37   C     C_R   0.328963 0.870656 0.452761 -0.156113
C38   C     C_R   0.274343 0.787125 0.448190 0.032018
C39   C     C_R   0.620277 0.146612 0.489236 -0.117473
C40   C     C_3   0.200351 0.814421 0.640968 -0.052146
C41   C     C_R   0.670118 0.230112 0.493622 -0.000131
C42   C     C_R   0.716615 0.093029 0.521920 0.250324
C43   C     C_R   0.813054 0.262048 0.531585 -0.287191
C44   C     C_R   0.915608 0.209728 0.560180 -0.003566
C45   C     C_3   0.103647 0.301381 0.732775 0.362057
C46   C     C_R   0.866837 0.125251 0.556341 -0.168517
C47   C     C_3   0.994651 0.282738 0.381762 0.326628
C48   C     C_3   0.974160 0.188438 0.363378 -0.385916
C49   C     C_3   0.697279 0.652784 0.682327 0.305883
C50   C     C_3   0.706657 0.680864 0.763550 -0.404453
C51   C     C_3   0.018976 0.927618 0.639157 -0.218340
C52   C     C_3   0.337118 0.158599 0.166384 0.286315
C53   C     C_3   0.468840 0.096002 0.164898 -0.359894
C54   C     C_3   0.700912 0.865954 0.123532 -0.266654
C55   C     C_3   0.925442 0.264506 0.167730 -0.182637
C56   C     C_3   0.121023 0.280749 0.808182 -0.371882
C57   C     C_3   0.159049 0.809397 0.119806 0.274245
C58   C     C_3   0.208209 0.900290 0.120068 -0.321788
C59   C     C_3   0.581523 0.253218 0.692128 0.363383
C60   C     C_3   0.563618 0.168851 0.715611 -0.372184
C61   C     C_R   0.999690 0.462864 0.046676 -0.013266
H1    H     H_    0.808188 0.798615 0.247174 0.086318
H2    H     H_    0.609156 0.598255 0.669436 0.072611
H3    H     H_    0.516136 0.851582 0.230794 0.080504
H4    H     H_    0.798122 0.733801 0.778111 0.115767
H5    H     H_    0.742422 0.629482 0.791109 0.062790
H6    H     H_    0.585953 0.700584 0.782536 0.117457
H7    H     H_    0.673956 0.792884 0.315632 0.075791
H8    H     H_    0.452552 0.744893 0.204387 0.130988
H9    H     H_    0.362550 0.339785 0.340678 -0.001858
H10   H     H_    0.560190 0.377824 0.316346 -0.075898
H11   H     H_    0.371331 0.327689 0.209787 -0.089985
H12   H     H_    0.262530 0.837935 0.694201 0.087875
H13   H     H_    0.552997 0.269870 0.209710 -0.024769
H14   H     H_    0.150123 0.668346 0.157665 -0.055993
H15   H     H_    0.173726 0.360936 0.731632 0.091610
H16   H     H_    0.972848 0.308802 0.721068 -0.065063
H17   H     H_    0.251109 0.274270 0.822305 0.147244
H18   H     H_    0.073547 0.331084 0.847777 0.075763
H19   H     H_    0.050833 0.221659 0.811027 0.106506
H20   H     H_    0.712626 0.267250 0.684812 -0.065699
H21   H     H_    0.513078 0.249620 0.639975 0.090827
H22   H     H_    0.611824 0.120667 0.674164 0.078023
H23   H     H_    0.269019 0.840741 0.599568 0.018375
H24   H     H_    0.433315 0.152288 0.722720 0.149400
H25   H     H_    0.996599 0.641617 0.270616 -0.003654
H26   H     H_    0.632857 0.170368 0.767301 0.105431
H27   H     H_    0.835162 0.477890 0.654032 0.070880
H28   H     H_    0.600151 0.409226 0.867640 0.111332
H29   H     H_    0.288150 0.620551 0.801177 0.096773
H30   H     H_    0.575851 0.606229 0.138700 0.092427
H31   H     H_    0.346896 0.520479 0.345960 0.083758
H32   H     H_    0.689749 0.416235 0.987758 0.068050
H33   H     H_    0.810552 0.376041 0.071802 0.067338
H34   H     H_    0.878308 0.308129 0.399616 0.003489
H35   H     H_    0.385646 0.623988 0.920464 0.058729
H36   H     H_    0.205166 0.677045 0.280076 -0.009210
H37   H     H_    0.486105 0.607008 0.018881 0.067158
H38   H     H_    0.508484 0.123782 0.459106 0.109811
H39   H     H_    0.252981 0.913139 0.430712 0.088309
H40   H     H_    0.692651 0.863616 0.543446 0.113129
H41   H     H_    0.945887 0.084722 0.579134 0.076317
H42   H     H_    0.331216 0.667762 0.472382 0.062154
H43   H     H_    0.850464 0.326909 0.534134 0.069361
H44   H     H_    0.952201 0.707858 0.169224 0.025053
H45   H     H_    0.088963 0.299650 0.425641 0.069008
H46   H     H_    0.328355 0.702168 0.615504 -0.029164
H47   H     H_    0.124643 0.696917 0.575013 0.056571
H48   H     H_    0.964868 0.819112 0.679470 0.224609
H49   H     H_    0.888228 0.941213 0.638206 0.108438
H50   H     H_    0.073191 0.944188 0.589845 0.124407
H51   H     H_    0.080536 0.966092 0.687621 0.096748
H52   H     H_    0.351384 0.194615 0.121468 -0.000282
H53   H     H_    0.217398 0.123358 0.156551 0.051474
H54   H     H_    0.460352 0.052781 0.112631 0.058208
H55   H     H_    0.591697 0.128125 0.171260 0.103203
H56   H     H_    0.871423 0.169880 0.323473 0.117949
H57   H     H_    0.452499 0.059658 0.209142 0.133415
H58   H     H_    0.670102 0.736726 0.113063 0.204183
H59   H     H_    0.727199 0.860695 0.065600 0.108663
H60   H     H_    0.817645 0.877242 0.155460 0.119730
H61   H     H_    0.624141 0.919643 0.138271 0.115380
H62   H     H_    0.771261 0.358841 0.198591 0.168449
H63   H     H_    0.867292 0.223294 0.201929 0.117092
H64   H     H_    0.058328 0.256251 0.168584 0.136578
H65   H     H_    0.874336 0.245941 0.111818 0.058755
H66   H     H_    0.041245 0.794432 0.088513 0.013553
H67   H     H_    0.949063 0.161414 0.412168 0.058998
H68   H     H_    0.254236 0.770741 0.092678 0.060686
H69   H     H_    0.324765 0.917288 0.151280 0.127569
H70   H     H_    0.223758 0.911143 0.064060 0.053594
H71   H     H_    0.113048 0.940329 0.144988 0.111196
H72   H     H_    0.087493 0.162923 0.340431 0.155216
H73   H     H_    0.818852 0.635496 0.663948 0.012400
N1    N     N_2   0.531966 0.985135 0.489713 -0.235431
N2    N     N_2   0.669259 0.007034 0.519205 -0.239993
N3    N     N_2   0.034475 0.840340 0.641006 -0.401786
N4    N     N_2   0.616638 0.790055 0.135816 -0.434864
N5    N     N_2   0.894097 0.350032 0.195510 -0.384506
O1    O     O_2   0.884010 0.444810 0.325060 -0.486458
O2    O     O_2   0.253014 0.213322 0.550042 -0.485238
O3    O     O_3   0.164675 0.237193 0.683335 -0.597530
O4    O     O_3   0.132090 0.451130 0.414310 -0.496002
O5    O     O_3   0.558660 0.599640 0.536520 -0.492022
O6    O     O_2   0.381010 0.300300 0.465220 -0.461267
O7    O     O_3   0.554604 0.263009 0.348701 -0.638130
O8    O     O_2   0.432832 0.466304 0.757165 -0.494149
O9    O     O_3   0.518377 0.313366 0.744665 -0.603406
O10   O     O_3   0.640770 0.594650 0.368950 -0.434849
O11   O     O_2   0.463160 0.698006 0.330056 -0.567053
O12   O     O_3   0.647651 0.718811 0.650118 -0.643899
O13   O     O_3   0.040937 0.312871 0.319959 -0.600279
O14   O     O_3   0.713111 0.679576 0.247871 -0.639933
O15   O     O_2   0.808690 0.699720 0.534830 -0.447943
O16   O     O_3   0.053760 0.638480 0.405010 -0.495851
O17   O     O_2   0.933980 0.786075 0.448337 -0.473369
O18   O     O_3   0.336483 0.209510 0.234885 -0.622762
O19   O     O_3   0.145529 0.796144 0.191522 -0.621795
O20   O     O_3   0.044027 0.765409 0.318230 -0.585147
O21   O     O_2   0.305690 0.555220 0.674980 -0.468501
O22   O     O_3   0.057610 0.548940 0.585700 -0.492449
O23   O     O_3   0.548930 0.405410 0.631060 -0.480594
O24   O     O_3   0.145322 0.687133 0.683477 -0.655116
O25   O     O_3   0.631040 0.400420 0.463490 -0.472324
O26   O     O_3   0.135930 0.361590 0.595000 -0.486784
P1    P     P_3+3 0.056550 0.421630 0.336220 0.994090
P2    P     P_3+3 0.635450 0.689180 0.556380 0.995629
P3    P     P_3+3 0.075866 0.745622 0.406043 0.998625
P4    P     P_3+3 0.133150 0.578440 0.663790 0.970393
P5    P     P_3+3 0.117369 0.254414 0.596194 0.950775
P6    P     P_3+3 0.564575 0.627463 0.292159 0.905302
P7    P     P_3+3 0.561704 0.296339 0.441879 0.961066
P8    P     P_3+3 0.568012 0.411694 0.723841 0.935379

loop_
_geom_bond_atom_site_label_1
_geom_bond_atom_site_label_2
_ccdc_geom_bond_type
O24   P4    S    
C30   H31   S    
O10   P6    S    
C12   O14   S    
C25   C27   A    
C39   C41   A    
C9    C22   A    
Ba1   O4    S    
C17   C18   A    
C45   H16   S    
C59   O9    S    
C58   H69   S    
C55   H65   S    
C38   P3    S    
O6    P7    D    
H48   N3    S    
C43   C44   A    
C43   H43   S    
Ba2   O4    S    
C5    C9    A    
C2    C61   A    
C57   H68   S    
C40   H12   S    
C28   H47   S    
C32   C38   A    
C15   C24   A    
C54   H61   S    
H58   N4    S    
C26   C27   A    
C33   C35   A    
C22   C24   A    
O2    P5    D    
C32   C33   A    
C48   H72   S    
C56   H19   S    
C29   P6    S    
C36   C37   A    
C54   N4    S    
C41   P7    S    
C13   C14   A    
C46   H41   S    
C60   H26   S    
O15   P2    D    
C4    H25   S    
O23   P8    S    
Ba1   Ba2   S    
C49   H2    S    
C16   H44   S    
C50   H6    S    
C34   H13   S    
C34   O18   S    
O11   P6    D    
C52   O18   S    
C2    H33   S    
C31   P1    S    
C57   H66   S    
O21   P4    D    
H62   N5    S    
C6    C7    A    
C52   H53   S    
C42   N2    S    
C21   C22   A    
C40   H23   S    
C48   H67   S    
C7    C8    A    
Ba2   O25   S    
C50   H5    S    
C56   H17   S    
Ba2   P4    S    
O14   P6    S    
O9    P8    S    
C57   C58   S    
C12   H7    S    
O13   P1    S    
Ba1   O5    S    
C3    H32   S    
C51   H50   S    
C47   H45   S    
C53   H57   S    
C4    C16   S    
C60   H22   S    
C44   C46   A    
C25   H37   S    
O25   P7    S    
C28   H46   S    
C49   C50   S    
C54   H60   S    
C47   O13   S    
C59   H20   S    
C56   H18   S    
Ba2   O23   S    
C55   H63   S    
C3    C5    A    
O17   P3    D    
Ba1   P1    S    
Ba2   O6    S    
O1    P1    D    
C45   O3    S    
O7    P7    S    
C48   H56   S    
O8    P8    D    
C54   H59   S    
Ba1   O1    S    
Ba1   O15   S    
C1    H8    S    
C35   C36   A    
O16   P3    S    
C49   H73   S    
C29   C30   A    
C4    O20   S    
C12   H1    S    
C52   H52   S    
C24   C25   A    
C13   P4    S    
C6    H28   S    
C10   C11   A    
C17   C26   A    
C41   C43   A    
C5    C61   A    
C50   H4    S    
C34   H11   S    
C10   P8    S    
C18   C31   A    
C51   H49   S    
C11   C13   A    
C33   P2    S    
C39   C42   A    
C11   H27   S    
O20   P3    S    
C58   H71   S    
C37   C38   A    
O22   P4    S    
C51   H51   S    
C37   H39   S    
C35   H40   S    
C53   H54   S    
C39   H38   S    
C52   C53   S    
C49   O12   S    
C14   C20   A    
C40   N3    S    
C51   N3    S    
C32   H42   S    
C26   C29   A    
C28   O24   S    
C59   H21   S    
Ba2   O22   S    
C55   H64   S    
C3    C6    A    
O26   P5    S    
C1    C12   S    
Ba2   O5    S    
N1    N2    D    
O3    P5    S    
C60   H24   S    
C45   H15   S    
C55   N5    S    
C4    H36   S    
Ba1   O16   S    
C19   N5    S    
C8    C14   A    
C30   C31   A    
C45   C56   S    
C27   H30   S    
C2    C19   A    
C23   H9    S    
Ba1   O25   S    
C16   H14   S    
C58   H70   S    
Ba1   P2    S    
C15   C17   A    
C36   N1    S    
C44   P5    S    
Ba1   O10   S    
C23   O7    S    
C23   H10   S    
C59   C60   S    
C7    C10   A    
C16   O19   S    
C8    C9    A    
C23   C34   S    
C47   H34   S    
C1    H3    S    
C21   H35   S    
C18   C19   A    
Ba1   O22   S    
C47   C48   S    
O5    P2    S    
O12   P2    S    
C20   H29   S    
C20   C21   A    
C28   C40   S    
C1    N4    S    
C57   O19   S    
Ba2   O26   S    
O4    P1    S    
C15   C61   A    
C42   C46   A    
Ba2   O21   S    
C53   H55   S    
