data_mof_unit_15950.cif
_audit_creation_date              2012-12-10T17:06:42-0500
_audit_creation_method            fapswitch 2.2
_symmetry_space_group_name_H-M    P1
_symmetry_Int_Tables_number       1
_space_group_crystal_system       triclinic
_cell_length_a                    15.855986
_cell_length_b                    10.99815
_cell_length_c                    10.0179
_cell_angle_alpha                 110.529408
_cell_angle_beta                  98.525883
_cell_angle_gamma                 94.080102
_cell_volume                      1603.59382945

loop_
_atom_site_label
_atom_site_type_symbol
_atom_type_description
_atom_site_fract_x
_atom_site_fract_y
_atom_site_fract_z
_atom_type_partial_charge
C1    C     C_R   0.487596 0.254252 0.440625 0.838870
C2    C     C_R   0.512404 0.745748 0.559375 0.838871
C3    C     C_2   0.511907 0.064952 0.497540 -0.221975
C4    C     C_2   0.488095 0.935049 0.502459 -0.221977
C5    C     C_2   0.507445 0.514909 0.080754 0.233029
C6    C     C_2   0.492557 0.485088 0.919245 0.233032
C7    C     C_R   0.340241 0.499346 0.499854 0.789944
C8    C     C_R   0.659759 0.500654 0.500146 0.789941
C9    C     C_3   0.970295 0.402836 0.537433 0.601334
C10   C     C_3   0.029705 0.597164 0.462567 0.601333
C11   C     C_3   0.012736 0.383545 0.403080 -0.438931
C12   C     C_3   0.987263 0.616455 0.596920 -0.438931
C13   C     C_1   0.250524 0.498798 0.499746 -0.137117
C14   C     C_1   0.749476 0.501202 0.500254 -0.137117
C15   C     C_3   0.041141 0.515664 0.631756 0.600687
C16   C     C_3   0.958859 0.484336 0.368244 0.600688
C17   C     C_3   0.083222 0.498184 0.498918 -0.224460
C18   C     C_3   0.916778 0.501815 0.501082 -0.224460
C19   C     C_1   0.174922 0.498418 0.499435 0.163657
C20   C     C_1   0.825078 0.501582 0.500565 0.163658
C21   C     C_2   0.465382 0.114042 0.409679 0.006329
C22   C     C_2   0.534620 0.885958 0.590320 0.006328
Cu1   Cu    Cu3+1 0.514700 0.521810 0.644910 0.940627
Cu2   Cu    Cu3+1 0.485300 0.478190 0.355090 0.940626
H1    H     H_    0.023317 0.288489 0.323994 0.224858
H2    H     H_    0.976683 0.711511 0.676006 0.224857
H3    H     H_    0.431379 0.873969 0.428374 0.162746
H4    H     H_    0.568623 0.126033 0.571627 0.162745
H5    H     H_    0.586726 0.625423 0.924765 0.199138
H6    H     H_    0.413271 0.374583 0.075236 0.199141
N1    N     N_2   0.463210 0.445420 0.137360 -0.306594
N2    N     N_2   0.536790 0.554580 0.862640 -0.306597
O1    O     O_R   0.507840 0.332340 0.577400 -0.592865
O2    O     O_R   0.492160 0.667660 0.422600 -0.592865
O3    O     O_R   0.483020 0.295500 0.332650 -0.565146
O4    O     O_R   0.516980 0.704500 0.667350 -0.565146
O5    O     O_R   0.391490 0.518400 0.622350 -0.586890
O6    O     O_R   0.608510 0.481600 0.377650 -0.586887
O7    O     O_R   0.366660 0.481570 0.377600 -0.558877
O8    O     O_R   0.633340 0.518430 0.622400 -0.558875
F1    F     F_    0.938854 0.303403 0.578435 -0.588635
F2    F     F_    0.061146 0.696597 0.421565 -0.588635
F3    F     F_    0.915458 0.470186 0.232272 -0.587553
F4    F     F_    0.084542 0.529814 0.767728 -0.587553
C23   C     C_3   0.613971 0.966742 0.701249 -0.425148
C24   C     C_3   0.664490 0.895637 0.786660 -0.742206
H7    H     H_    0.626157 0.872372 0.860861 0.258107
H8    H     H_    0.683629 0.804946 0.711971 0.240775
H9    H     H_    0.723979 0.960524 0.854232 0.253327
H10   H     H_    0.659492 0.000989 0.643509 0.224683
H11   H     H_    0.594034 0.053753 0.780524 0.220765
C25   C     C_3   0.386031 0.033256 0.298750 -0.425150
C26   C     C_3   0.335518 0.104353 0.213323 -0.742210
H12   H     H_    0.316374 0.195047 0.288001 0.240782
H13   H     H_    0.373858 0.127613 0.139127 0.258106
H14   H     H_    0.276032 0.039463 0.145744 0.253326
H15   H     H_    0.405967 0.946239 0.219484 0.220767
H16   H     H_    0.340507 0.999019 0.356493 0.224682
C27   C     C_3   0.425797 0.367910 0.824920 -0.329240
C28   C     C_3   0.459411 0.238321 0.814351 -0.845609
H17   H     H_    0.524736 0.239671 0.787860 0.264838
H18   H     H_    0.463679 0.219749 0.916635 0.236555
H19   H     H_    0.415704 0.155773 0.728214 0.259267
H20   H     H_    0.364482 0.374557 0.866260 0.171500
H21   H     H_    0.405040 0.363329 0.715052 0.260209
C29   C     C_3   0.574200 0.632093 0.175081 -0.329237
C30   C     C_3   0.540573 0.761673 0.185650 -0.845608
H22   H     H_    0.536300 0.780242 0.083362 0.236555
H23   H     H_    0.475246 0.760304 0.212133 0.264838
H24   H     H_    0.584270 0.844230 0.271791 0.259274
H25   H     H_    0.594960 0.636673 0.284947 0.260207
H26   H     H_    0.635514 0.625459 0.133741 0.171495

loop_
_geom_bond_atom_site_label_1
_geom_bond_atom_site_label_2
_ccdc_geom_bond_type
C2    C22   S    
Cu1   O1    S    
C6    N2    D    
Cu1   Cu2   S    
Cu2   O2    S    
C1    C21   S    
Cu1   O5    S    
C10   F2    S    
C4    C22   D    
C11   C16   S    
C9    F1    S    
C29   H25   S    
C16   F3    S    
C12   C15   S    
C30   H24   S    
Cu1   N2    S    
C2    O2    A    
C29   C30   S    
C7    O5    A    
Cu2   N1    S    
C1    O1    A    
C27   C28   S    
C10   C16   S    
C23   C24   S    
C27   H21   S    
C30   H22   S    
Cu2   O7    S    
C9    C11   S    
C24   H9    S    
C27   H20   S    
C5    C6    S    
C10   C12   S    
C23   H10   S    
C28   H17   S    
C28   H19   S    
C28   H18   S    
C3    H4    S    
C17   C19   S    
C15   F4    S    
H5    N2    S    
C18   C20   S    
C26   H13   S    
C9    C15   S    
H6    N1    S    
C25   H16   S    
C24   H8    S    
C3    C21   D    
Cu2   O3    S    
C25   H15   S    
C23   H11   S    
C10   C17   S    
C12   C18   S    
Cu2   O6    S    
C11   H1    S    
C14   C20   T    
C9    C18   S    
C7    C13   S    
C22   C23   S    
C25   C26   S    
C1    O3    A    
C16   C18   S    
Cu1   O4    S    
C26   H14   S    
C2    O4    A    
C15   C17   S    
C7    O7    A    
C24   H7    S    
C11   C17   S    
C13   C19   T    
C8    C14   S    
C4    H3    S    
C8    O8    A    
C5    N1    D    
C26   H12   S    
C6    C27   S    
C21   C25   S    
C29   H26   S    
C3    C4    S    
Cu1   O8    S    
C12   H2    S    
C5    C29   S    
C30   H23   S    
C8    O6    A    
