data_mof_unit_27703.cif
_audit_creation_date              2012-12-10T17:11:00-0500
_audit_creation_method            fapswitch 2.2
_symmetry_space_group_name_H-M    P1
_symmetry_Int_Tables_number       1
_space_group_crystal_system       triclinic
_cell_length_a                    11.680474
_cell_length_b                    13.069063
_cell_length_c                    13.474746
_cell_angle_alpha                 92.075462
_cell_angle_beta                  77.10065
_cell_angle_gamma                 98.728769
_cell_volume                      1981.81974314

loop_
_atom_site_label
_atom_site_type_symbol
_atom_type_description
_atom_site_fract_x
_atom_site_fract_y
_atom_site_fract_z
_atom_type_partial_charge
C1    C     C_R   0.521412 0.700328 0.496135 0.887030
C2    C     C_R   0.480451 0.549394 0.961050 0.113891
C3    C     C_R   0.474610 0.493085 0.869726 0.061299
C4    C     C_R   0.545742 0.515446 0.028564 0.041174
C5    C     C_R   0.623200 0.441347 0.991682 0.114388
C6    C     C_R   0.620214 0.390653 0.899462 -0.149524
C7    C     C_R   0.541292 0.411216 0.842887 -0.204968
C8    C     C_R   0.531879 0.545454 0.132964 0.196972
C9    C     C_R   0.688709 0.447314 0.149270 -0.212237
C10   C     C_R   0.407246 0.523258 0.803607 -0.095067
C11   C     C_R   0.470658 0.188098 0.501615 -0.088840
C12   C     C_R   0.437378 0.498224 0.695319 0.774247
C13   C     C_R   0.533712 0.812877 0.484621 -0.225198
C14   C     C_R   0.647674 0.975566 0.417113 -0.249914
C15   C     C_R   0.638978 0.868959 0.425688 0.312115
C16   C     C_R   0.436425 0.864636 0.529192 0.129548
C17   C     C_R   0.448625 0.973132 0.522659 0.067873
C18   C     C_R   0.554150 0.028314 0.464021 0.034891
C19   C     C_R   0.563963 0.135570 0.450814 0.205263
C20   C     C_R   0.367548 0.133615 0.560786 -0.226451
C21   C     C_R   0.356292 0.027453 0.571221 -0.189636
C22   C     C_R   0.933138 0.567302 0.618868 0.283755
C23   C     C_R   0.480803 0.299969 0.497586 0.795340
C24   C     C_R   0.820243 0.573621 0.598307 0.377233
C25   C     C_R   0.860467 0.466005 0.452543 0.043615
C26   C     C_R   0.979692 0.468123 0.461361 -0.119663
C27   C     C_R   0.016864 0.521557 0.544744 -0.163524
C28   C     C_R   0.137751 0.528940 0.550370 0.088936
C29   C     C_R   0.179042 0.422476 0.405465 -0.032908
C30   C     C_R   0.062636 0.417033 0.391170 0.368798
C31   C     C_R   0.563204 0.506941 0.304588 0.837446
C32   C     C_R   0.699416 0.414160 0.049482 -0.166474
C33   C     C_R   0.599016 0.504887 0.193463 -0.063786
C34   C     C_R   0.338997 0.603127 0.831830 -0.119449
C35   C     C_R   0.351036 0.662871 0.917067 -0.157963
C36   C     C_R   0.426489 0.640290 0.977234 -0.160803
Cu1   Cu    Cu3+1 0.386470 0.492430 0.492410 0.960402
Cu2   Cu    Cu3+1 0.613530 0.507570 0.507590 1.012810
H1    H     H_    0.742925 0.419307 0.194823 0.199292
H2    H     H_    0.295834 0.173693 0.600498 0.173647
H3    H     H_    0.728146 0.017608 0.371877 0.229058
H4    H     H_    0.274783 0.989287 0.618358 0.164904
H5    H     H_    0.171978 0.574972 0.608272 0.203105
H6    H     H_    0.242477 0.382470 0.353817 0.193184
H7    H     H_    0.675125 0.330936 0.873320 0.151323
H8    H     H_    0.827455 0.422941 0.392411 0.191013
H9    H     H_    0.762400 0.361654 0.019549 0.170507
H10   H     H_    0.288298 0.627871 0.781198 0.184282
H11   H     H_    0.444792 0.697744 0.033127 0.184779
H12   H     H_    0.307585 0.731047 0.932944 0.165075
H13   H     H_    0.535581 0.364055 0.775955 0.154397
N1    N     N_R   0.215880 0.481050 0.481000 -0.235120
N2    N     N_R   0.784100 0.518950 0.519000 -0.216804
O1    O     O_R   0.419710 0.645650 0.494620 -0.575760
O2    O     O_R   0.611450 0.658430 0.507430 -0.506592
O3    O     O_R   0.357340 0.490460 0.641450 -0.569990
O4    O     O_R   0.549080 0.503250 0.654260 -0.589011
O5    O     O_R   0.388550 0.341570 0.492570 -0.575241
O6    O     O_R   0.580290 0.354350 0.505380 -0.609188
O7    O     O_R   0.450920 0.496750 0.345740 -0.599036
O8    O     O_R   0.642660 0.509540 0.358550 -0.548004
S1    S     S_3+6 0.755628 0.809139 0.349392 0.021011
O9    O     O_2   0.823588 0.764135 0.415211 -0.298959
O10   O     O_2   0.704025 0.723960 0.287503 -0.280427
O11   O     O_3   0.850379 0.894834 0.268790 -0.494563
H14   H     H_    0.906754 0.929918 0.308698 0.357341
N3    N     N_2   0.324659 0.806350 0.574900 -0.417931
H15   H     H_    0.290163 0.826776 0.648916 0.261239
C37   C     C_3   0.239188 0.793952 0.510403 -0.572681
H16   H     H_    0.216930 0.869911 0.492906 0.215782
H17   H     H_    0.274976 0.755173 0.437805 0.233502
H18   H     H_    0.156146 0.745892 0.549387 0.237652
S2    S     S_3+6 0.964214 0.607047 0.739959 -0.045952
O12   O     O_2   0.037529 0.534817 0.772599 -0.299716
O13   O     O_2   0.032114 0.714776 0.731443 -0.337085
O14   O     O_3   0.839460 0.605580 0.831127 -0.553943
H19   H     H_    0.866847 0.626947 0.894256 0.394465
S3    S     S_3+6 0.026475 0.346735 0.284715 -0.046118
O15   O     O_2   0.935866 0.254006 0.321536 -0.315103
O16   O     O_2   0.976193 0.414549 0.222688 -0.311901
O17   O     O_3   0.147744 0.306383 0.211102 -0.561141
H20   H     H_    0.120168 0.271488 0.152370 0.388017
N4    N     N_2   0.743650 0.638018 0.658547 -0.374638
H21   H     H_    0.698005 0.609180 0.728653 0.292566
C38   C     C_3   0.785236 0.748394 0.656680 -0.504313
H22   H     H_    0.869056 0.769124 0.598674 0.235222
H23   H     H_    0.800901 0.774830 0.732419 0.240761
H24   H     H_    0.716366 0.790104 0.638840 0.210175
N5    N     N_2   0.448487 0.612028 0.179248 -0.463873
H25   H     H_    0.473765 0.662691 0.233641 0.271553
C39   C     C_3   0.323672 0.568473 0.201729 -0.572185
H26   H     H_    0.285121 0.578586 0.283726 0.223521
H27   H     H_    0.310013 0.485049 0.181263 0.260254
H28   H     H_    0.274628 0.611040 0.159425 0.238099
N6    N     N_2   0.664579 0.187853 0.381570 -0.421598
H29   H     H_    0.711814 0.249972 0.410712 0.293600
C40   C     C_3   0.645395 0.204637 0.281466 -0.616080
H30   H     H_    0.731263 0.234943 0.230098 0.258995
H31   H     H_    0.582734 0.261415 0.285397 0.194077
H32   H     H_    0.609149 0.130531 0.249083 0.239933

loop_
_geom_bond_atom_site_label_1
_geom_bond_atom_site_label_2
_ccdc_geom_bond_type
C23   O5    A    
C6    H7    S    
S2    O12   D    
C14   C18   A    
N6    H29   S    
C4    C8    A    
C40   H30   S    
C38   H22   S    
C23   O6    A    
C11   C19   A    
C26   C27   A    
Cu1   Cu2   S    
C24   N4    S    
C25   N2    A    
C18   C19   A    
C3    C7    A    
C5    C6    A    
C20   H2    S    
S3    O16   D    
C9    H1    S    
C34   C35   A    
C37   H17   S    
C31   O8    A    
S1    O10   D    
C9    C32   A    
Cu1   O3    S    
Cu2   O2    S    
C35   C36   A    
C16   C17   A    
C31   C33   S    
N5    C39   S    
Cu1   O5    S    
Cu2   O8    S    
S1    O9    D    
C9    C33   A    
S2    O13   D    
C40   H31   S    
O17   H20   S    
C38   H23   S    
C11   C20   A    
N3    H15   S    
O14   H19   S    
C39   H26   S    
Cu1   N1    S    
S3    O15   D    
C24   N2    A    
C17   C21   A    
Cu2   O6    S    
N3    C37   S    
C31   O7    A    
C37   H18   S    
C2    C4    A    
C1    O1    A    
C29   C30   A    
C39   H27   S    
Cu2   O4    S    
N4    H21   S    
C35   H12   S    
C17   C18   A    
C10   C34   A    
C16   N3    S    
C12   O3    A    
C10   C12   S    
C14   H3    S    
C12   O4    A    
N4    C38   S    
C26   C30   A    
C22   C27   A    
C13   C15   A    
C29   H6    S    
C32   H9    S    
C22   C24   A    
C1    C13   S    
Cu1   O1    S    
C40   H32   S    
C19   N6    S    
C38   H24   S    
C2    C36   A    
S1    O11   S    
C4    C5    A    
N6    C40   S    
C6    C7    A    
C28   H5    S    
C5    C32   A    
C2    C3    A    
C1    O2    A    
C7    H13   S    
C3    C10   A    
C25   C26   A    
C39   H28   S    
C28   N1    A    
S3    O17   S    
Cu2   N2    S    
C11   C23   S    
S2    O14   S    
C15   S1    S    
C8    C33   A    
C37   H16   S    
Cu1   O7    S    
C21   H4    S    
C30   S3    S    
C34   H10   S    
C20   C21   A    
O11   H14   S    
C13   C16   A    
C27   C28   A    
C14   C15   A    
C8    N5    S    
C22   S2    S    
N5    H25   S    
C25   H8    S    
C36   H11   S    
C29   N1    A    
