data_mof_unit_45336.cif
_audit_creation_date              2012-12-10T17:11:30-0500
_audit_creation_method            fapswitch 2.2
_symmetry_space_group_name_H-M    P1
_symmetry_Int_Tables_number       1
_space_group_crystal_system       triclinic
_cell_length_a                    15.087383
_cell_length_b                    13.022359
_cell_length_c                    11.730786
_cell_angle_alpha                 100.443654
_cell_angle_beta                  94.548975
_cell_angle_gamma                 90.594967
_cell_volume                      2258.74371628

loop_
_atom_site_label
_atom_site_type_symbol
_atom_type_description
_atom_site_fract_x
_atom_site_fract_y
_atom_site_fract_z
_atom_type_partial_charge
C1    C     C_R   0.501568 0.299583 0.478155 0.856907
C2    C     C_R   0.500245 0.701024 0.521989 0.855878
C3    C     C_R   0.060019 0.398407 0.652219 -0.164561
C4    C     C_R   0.940360 0.603131 0.348286 -0.165023
C5    C     C_R   0.498981 0.815646 0.536362 -0.131274
C6    C     C_R   0.512302 0.187017 0.467063 -0.139674
C7    C     C_R   0.604163 0.034854 0.420771 -0.050571
C8    C     C_R   0.445816 0.983183 0.632005 -0.035518
C9    C     C_R   0.583946 0.137977 0.409980 -0.065439
C10   C     C_R   0.449894 0.874133 0.622903 -0.083064
C11   C     C_R   0.457939 0.131848 0.528412 -0.043876
C12   C     C_R   0.548679 0.867046 0.465009 -0.055548
C13   C     C_R   0.482643 0.031243 0.546514 0.115972
C14   C     C_R   0.546362 0.977212 0.477397 0.083387
C15   C     C_R   0.427088 0.391500 0.016001 -0.241217
C16   C     C_R   0.573123 0.608142 0.983914 -0.247690
C17   C     C_R   0.431527 0.401867 0.138509 0.176183
C18   C     C_R   0.568209 0.598285 0.861502 0.176031
C19   C     C_R   0.530788 0.547714 0.159010 0.066760
C20   C     C_R   0.469919 0.451396 0.840741 0.071129
C21   C     C_R   0.526323 0.539215 0.036034 0.017668
C22   C     C_R   0.474109 0.460148 0.963772 0.016155
C23   C     C_R   0.328959 0.503466 0.500013 0.874457
C24   C     C_R   0.671186 0.497934 0.500353 0.888588
C25   C     C_R   0.808743 0.544678 0.423903 -0.261783
C26   C     C_R   0.191522 0.456044 0.575981 -0.256299
C27   C     C_R   0.767929 0.493240 0.501162 -0.055512
C28   C     C_R   0.232381 0.508718 0.499891 -0.066284
C29   C     C_R   0.819545 0.441973 0.579437 -0.053523
C30   C     C_R   0.181041 0.561955 0.423486 -0.059142
C31   C     C_R   0.913281 0.445159 0.579303 0.024131
C32   C     C_R   0.087208 0.557674 0.422350 0.028296
C33   C     C_R   0.953521 0.499008 0.501126 0.071625
C34   C     C_R   0.046873 0.502962 0.499731 0.072386
C35   C     C_R   0.900691 0.548733 0.423939 0.114494
C36   C     C_R   0.099647 0.452675 0.576466 0.114748
C37   C     C_R   0.968110 0.394207 0.653498 -0.197965
C38   C     C_R   0.032357 0.608370 0.347942 -0.196616
Cu1   Cu    Cu3+1 0.506660 0.507730 0.615930 0.989494
Cu2   Cu    Cu3+1 0.493340 0.492270 0.384070 0.986608
H1    H     H_    0.768464 0.584261 0.365170 0.145426
H2    H     H_    0.231720 0.415391 0.633738 0.148275
H3    H     H_    0.386051 0.330154 0.961096 0.198911
H4    H     H_    0.614173 0.669489 0.038798 0.202889
H5    H     H_    0.941092 0.349973 0.712821 0.146640
H6    H     H_    0.059362 0.652850 0.288869 0.145025
H7    H     H_    0.100291 0.358684 0.710640 0.155785
H8    H     H_    0.900060 0.642450 0.289501 0.154732
H9    H     H_    0.428782 0.390524 0.785590 0.133832
H10   H     H_    0.572915 0.607422 0.213884 0.139663
N1    N     N_R   0.516670 0.519360 0.790130 -0.222914
N2    N     N_R   0.483330 0.480640 0.209870 -0.225638
O1    O     O_R   0.504720 0.354460 0.582000 -0.568745
O2    O     O_R   0.495280 0.645540 0.418000 -0.575916
O3    O     O_R   0.493480 0.341410 0.386200 -0.596100
O4    O     O_R   0.506520 0.658590 0.613800 -0.597338
O5    O     O_R   0.375880 0.506510 0.597910 -0.572512
O6    O     O_R   0.624120 0.493490 0.402090 -0.569052
O7    O     O_R   0.364640 0.493450 0.402110 -0.616891
O8    O     O_R   0.635360 0.506550 0.597890 -0.615813
C39   C     C_2   0.776502 0.384196 0.659676 0.410990
H11   H     H_    0.801020 0.394875 0.750602 0.046322
O9    O     O_2   0.714702 0.322475 0.624274 -0.483098
C40   C     C_2   0.224934 0.624175 0.348227 0.411398
H12   H     H_    0.201242 0.618088 0.257473 0.047900
O10   O     O_2   0.286964 0.684394 0.387931 -0.484384
C41   C     C_2   0.596003 0.803875 0.370734 0.436364
H13   H     H_    0.638064 0.740770 0.389209 0.041819
O11   O     O_2   0.586129 0.820293 0.271292 -0.558006
C42   C     C_2   0.368344 0.173470 0.555125 0.402293
H14   H     H_    0.357439 0.256759 0.573948 0.042466
O12   O     O_2   0.304204 0.114371 0.550215 -0.528969
C43   C     C_2   0.399413 0.822259 0.701554 0.416799
H15   H     H_    0.406471 0.850629 0.794739 0.065185
O13   O     O_2   0.347195 0.749898 0.662250 -0.492467
C44   C     C_2   0.638511 0.192336 0.337823 0.406407
H16   H     H_    0.653656 0.152293 0.252437 0.062733
O14   O     O_2   0.669924 0.279678 0.374247 -0.506672
C45   C     C_2   0.694416 0.996965 0.393253 0.443012
H17   H     H_    0.723752 0.012672 0.316566 0.067808
O15   O     O_2   0.738356 0.951135 0.459386 -0.537378
C46   C     C_2   0.409624 0.046868 0.736247 0.426947
H18   H     H_    0.354830 0.017270 0.776473 0.082375
O16   O     O_2   0.442661 0.132357 0.780036 -0.540716
C47   C     C_2   0.620587 0.676132 0.815095 0.367038
H19   H     H_    0.644290 0.659846 0.729990 0.111212
O17   O     O_2   0.639555 0.761978 0.874121 -0.545914
C48   C     C_2   0.378530 0.324494 0.184933 0.378649
H20   H     H_    0.355883 0.340367 0.270583 0.110897
O18   O     O_2   0.357777 0.239417 0.125248 -0.541586

loop_
_geom_bond_atom_site_label_1
_geom_bond_atom_site_label_2
_ccdc_geom_bond_type
Cu1   N1    S    
C8    C13   A    
C30   C40   S    
C27   C29   A    
C17   C48   S    
C43   H15   S    
C48   O18   D    
C24   C27   S    
C6    C9    A    
C11   C42   S    
C15   C22   A    
C47   H19   S    
C23   O7    A    
C16   C21   A    
C8    C46   S    
C19   C21   A    
C44   O14   D    
C20   N1    A    
C10   C43   S    
Cu1   O5    S    
C7    C9    A    
C39   O9    D    
C1    O1    A    
C19   N2    A    
C7    C14   A    
C31   C33   A    
C42   H14   S    
C9    C44   S    
C32   C38   A    
C16   H4    S    
C4    C35   A    
Cu2   O7    S    
C21   C22   A    
C43   O13   D    
C17   N2    A    
C18   N1    A    
C47   O17   D    
C12   C41   S    
C29   C39   S    
C18   C47   S    
Cu2   O6    S    
C41   H13   S    
C44   H16   S    
C5    C12   A    
C2    O2    A    
C25   H1    S    
C6    C11   A    
C45   O15   D    
Cu2   N2    S    
C1    C6    S    
Cu2   O2    S    
C41   O11   D    
C32   C34   A    
C20   H9    S    
Cu1   O4    S    
C12   C14   A    
C24   O8    A    
Cu2   O3    S    
C33   C34   A    
C16   C18   A    
C23   C28   S    
C25   C35   A    
C23   O5    A    
C8    C10   A    
C20   C22   A    
C46   O16   D    
C2    C5    S    
C37   H5    S    
Cu1   Cu2   S    
C26   H2    S    
C7    C45   S    
C4    H8    S    
C26   C36   A    
C15   C17   A    
C4    C38   A    
C25   C27   A    
C26   C28   A    
C40   H12   S    
C28   C30   A    
C1    O3    A    
C15   H3    S    
C5    C10   A    
C29   C31   A    
C2    O4    A    
C30   C32   A    
C11   C13   A    
C19   H10   S    
Cu1   O1    S    
C3    C36   A    
Cu1   O8    S    
C3    H7    S    
C33   C35   A    
C34   C36   A    
C39   H11   S    
C38   H6    S    
C45   H17   S    
C31   C37   A    
C48   H20   S    
C3    C37   A    
C24   O6    A    
C46   H18   S    
C42   O12   D    
C13   C14   A    
C40   O10   D    
