data_mof_unit_66861.cif
_audit_creation_date              2013-03-05T15:57:22-0500
_audit_creation_method            fapswitch 2.2
_symmetry_space_group_name_H-M    P1
_symmetry_Int_Tables_number       1
_space_group_crystal_system       triclinic
_cell_length_a                    17.120825
_cell_length_b                    18.361963
_cell_length_c                    8.366896
_cell_angle_alpha                 90.000042
_cell_angle_beta                  101.680702
_cell_angle_gamma                 89.870067
_cell_volume                      2575.8394534

loop_
_atom_site_label
_atom_site_type_symbol
_atom_site_description
_atom_site_fract_x
_atom_site_fract_y
_atom_site_fract_z
_atom_type_partial_charge
P1    P     P_3+3 0.834140 0.419320 0.003900 0.451981
P2    P     P_3+3 0.834140 0.580680 0.503900 0.456191
P3    P     P_3+3 0.334140 0.919320 0.003900 0.452443
P4    P     P_3+3 0.334140 0.080680 0.503900 0.455704
O1    O     O_2   0.841960 0.394640 0.833410 -0.368707
O2    O     O_2   0.841960 0.605360 0.333410 -0.385113
O3    O     O_2   0.341960 0.894640 0.833410 -0.368622
O4    O     O_2   0.341960 0.105360 0.333410 -0.383744
O5    O     O_3   0.907950 0.463080 0.102990 -0.401884
O6    O     O_3   0.907950 0.536920 0.602990 -0.384664
O7    O     O_3   0.407950 0.963080 0.102990 -0.401117
O8    O     O_3   0.407950 0.036920 0.602990 -0.386573
O9    O     O_3   0.972780 0.329600 0.629720 -0.342515
O10   O     O_3   0.972780 0.670400 0.129720 -0.377410
O11   O     O_3   0.472780 0.829600 0.629720 -0.341296
O12   O     O_3   0.472780 0.170400 0.129720 -0.377397
O13   O     O_2   0.846225 0.265746 0.702244 -0.404257
O14   O     O_2   0.841166 0.729503 0.195913 -0.384043
O15   O     O_2   0.346732 0.766820 0.704056 -0.412263
O16   O     O_2   0.341121 0.229417 0.195932 -0.384579
O17   O     O_3   0.750398 0.476181 0.965712 -0.572090
O18   O     O_3   0.751222 0.523078 0.470391 -0.563801
O19   O     O_3   0.250481 0.976317 0.965848 -0.571292
O20   O     O_3   0.251275 0.023016 0.469979 -0.564333
O21   O     O_3   0.957009 0.180127 0.634433 -0.484679
O22   O     O_3   0.944554 0.822424 0.129028 -0.508208
O23   O     O_3   0.456535 0.680589 0.634187 -0.486853
O24   O     O_3   0.444448 0.322515 0.129596 -0.508561
H1    H     H_    0.015265 0.209540 0.445906 -0.020978
H2    H     H_    0.062252 0.789940 0.197499 0.134068
H3    H     H_    0.514966 0.710529 0.446054 -0.020143
H4    H     H_    0.562287 0.290424 0.199145 0.134005
C1    C     C_3   0.067270 0.114499 0.566003 0.121810
C2    C     C_3   0.053746 0.897817 0.093910 0.039489
C3    C     C_3   0.566918 0.615252 0.565411 0.120580
C4    C     C_3   0.553384 0.398160 0.093959 0.038601
H5    H     H_    0.610858 0.646832 0.654108 0.106991
H6    H     H_    0.617309 0.396912 0.085451 0.084825
H7    H     H_    0.111319 0.146416 0.653532 0.106984
H8    H     H_    0.117777 0.896529 0.086372 0.085507
P5    P     P_3+3 0.165830 0.418670 0.685610 0.458675
P6    P     P_3+3 0.165830 0.581330 0.185610 0.456900
P7    P     P_3+3 0.665830 0.918670 0.685610 0.456131
P8    P     P_3+3 0.665830 0.081330 0.185610 0.452846
P9    P     P_3+3 0.099984 0.261943 0.109897 0.464341
P10   P     P_3+3 0.097431 0.739817 0.609327 0.454051
P11   P     P_3+3 0.600003 0.761933 0.109883 0.463803
P12   P     P_3+3 0.597229 0.239958 0.610039 0.462248
O25   O     O_2   0.157990 0.394030 0.856030 -0.357631
O26   O     O_2   0.157990 0.605970 0.356030 -0.382804
O27   O     O_2   0.657990 0.894030 0.856030 -0.371381
O28   O     O_2   0.657990 0.105970 0.356030 -0.373162
O29   O     O_3   0.027110 0.329490 0.059550 -0.384441
O30   O     O_3   0.027110 0.670510 0.559550 -0.392237
O31   O     O_3   0.527110 0.829490 0.059550 -0.384762
O32   O     O_3   0.527110 0.170510 0.559550 -0.389919
O33   O     O_2   0.160168 0.272126 0.996983 -0.366970
O34   O     O_2   0.153292 0.735645 0.485581 -0.389160
O35   O     O_2   0.659994 0.771912 0.996461 -0.365904
O36   O     O_2   0.653852 0.235567 0.487765 -0.386082
O37   O     O_3   0.250287 0.474360 0.728860 -0.568577
O38   O     O_3   0.249141 0.523825 0.220362 -0.568274
O39   O     O_3   0.749152 0.975865 0.721117 -0.575264
O40   O     O_3   0.749410 0.024144 0.222623 -0.573051
O41   O     O_3   0.056572 0.177381 0.052312 -0.508551
O42   O     O_3   0.046669 0.822761 0.567646 -0.477473
O43   O     O_3   0.556798 0.677113 0.053924 -0.511055
O44   O     O_3   0.546318 0.322719 0.566485 -0.478636
C5    C     C_3   0.975380 0.180298 0.059988 0.456965
C6    C     C_3   0.967524 0.812659 0.586503 0.463975
C7    C     C_3   0.475346 0.680338 0.059140 0.456326
C8    C     C_3   0.467373 0.312779 0.586960 0.459058
H9    H     H_    0.941077 0.206596 0.948405 0.172461
H10   H     H_    0.932814 0.784810 0.477000 0.144063
H11   H     H_    0.441976 0.707153 0.947264 0.173486
H12   H     H_    0.432315 0.284338 0.478581 0.143368
H13   H     H_    0.964628 0.210582 0.168285 0.002453
H14   H     H_    0.964588 0.780467 0.697485 0.016167
H15   H     H_    0.464065 0.710367 0.167395 0.003674
H16   H     H_    0.464916 0.281184 0.699083 0.014477
C9    C     C_3   0.945135 0.103303 0.070860 -0.937715
C10   C     C_3   0.928945 0.885826 0.604905 -0.843245
C11   C     C_3   0.444246 0.603407 0.067368 -0.934835
C12   C     C_3   0.428770 0.386072 0.604085 -0.837275
H17   H     H_    0.378809 0.604472 0.061419 0.219574
H18   H     H_    0.363873 0.379398 0.596859 0.195302
H19   H     H_    0.880736 0.104081 0.074584 0.221721
H20   H     H_    0.864002 0.879129 0.596753 0.196263
H21   H     H_    0.955434 0.070488 0.965724 0.303467
H22   H     H_    0.938750 0.923618 0.507989 0.326118
H23   H     H_    0.458238 0.570077 0.966049 0.303217
H24   H     H_    0.438268 0.423399 0.506054 0.324936
C13   C     C_3   0.230778 0.456853 0.283432 0.360083
C14   C     C_3   0.230050 0.546509 0.757359 0.369079
C15   C     C_3   0.730563 0.956526 0.281820 0.360570
C16   C     C_3   0.731120 0.042315 0.787217 0.386382
H25   H     H_    0.238414 0.461829 0.417259 0.096675
H26   H     H_    0.236648 0.554740 0.890468 0.089682
H27   H     H_    0.736783 0.960538 0.415419 0.114040
H28   H     H_    0.742142 0.036682 0.921248 0.111709
H29   H     H_    0.169611 0.437645 0.230162 0.120660
H30   H     H_    0.169120 0.562927 0.695041 0.131441
H31   H     H_    0.669817 0.937259 0.225358 0.120399
H32   H     H_    0.668874 0.060719 0.740545 0.114323
C17   C     C_3   0.288944 0.400216 0.244601 -0.837001
C18   C     C_3   0.287711 0.595785 0.693948 -0.864890
C19   C     C_3   0.789678 0.900636 0.243797 -0.852896
C20   C     C_3   0.786505 0.100218 0.743406 -0.892967
H33   H     H_    0.350145 0.422723 0.265467 0.292934
H34   H     H_    0.348701 0.588854 0.766051 0.271741
H35   H     H_    0.850724 0.923525 0.267076 0.295456
H36   H     H_    0.847300 0.078008 0.751049 0.290469
H37   H     H_    0.288410 0.351187 0.321427 0.213628
H38   H     H_    0.268751 0.653096 0.699924 0.244712
H39   H     H_    0.788917 0.851247 0.319264 0.218041
H40   H     H_    0.789429 0.147231 0.826896 0.220415
H41   H     H_    0.271820 0.384424 0.114946 0.270901
H42   H     H_    0.289092 0.580981 0.566361 0.263834
H43   H     H_    0.773660 0.885417 0.113747 0.268551
H44   H     H_    0.764179 0.119144 0.617476 0.271732
Ba1   Ba    Ba6+2 1.000000 0.447380 0.844850 1.555293
Ba2   Ba    Ba6+2 0.000000 0.552620 0.344850 1.546523
Ba3   Ba    Ba6+2 0.500000 0.947380 0.844850 1.554567
Ba4   Ba    Ba6+2 0.500000 0.052620 0.344850 1.548537
C21   C     C_3   0.769427 0.544298 0.909597 0.368279
C22   C     C_3   0.764676 0.461424 0.381310 0.406032
C23   C     C_3   0.269527 0.044251 0.908733 0.371233
C24   C     C_3   0.265922 0.960401 0.385117 0.405351
H45   H     H_    0.761304 0.542033 0.775428 0.125065
H46   H     H_    0.734678 0.470311 0.252433 0.121352
H47   H     H_    0.260975 0.041689 0.774513 0.124388
H48   H     H_    0.238488 0.968530 0.254458 0.119186
H49   H     H_    0.830761 0.562579 0.964210 0.114470
H50   H     H_    0.828955 0.449568 0.386978 0.086416
H51   H     H_    0.331033 0.062397 0.962314 0.113317
H52   H     H_    0.330485 0.947736 0.396956 0.087647
C25   C     C_3   0.712018 0.599922 0.954772 -0.813615
C26   C     C_3   0.726775 0.395962 0.447577 -0.798018
C27   C     C_3   0.212598 0.100295 0.954124 -0.813273
C28   C     C_3   0.225672 0.895945 0.449893 -0.795649
H53   H     H_    0.649935 0.579825 0.922824 0.310110
H54   H     H_    0.673796 0.412242 0.496868 0.327055
H55   H     H_    0.150682 0.079745 0.927142 0.311550
H56   H     H_    0.172747 0.913507 0.498109 0.328069
H57   H     H_    0.716465 0.651915 0.890616 0.219244
H58   H     H_    0.708560 0.354993 0.349847 0.205995
H59   H     H_    0.215667 0.151520 0.886315 0.217555
H60   H     H_    0.206924 0.855322 0.351604 0.207472
H61   H     H_    0.726487 0.609282 0.087655 0.255798
H62   H     H_    0.769918 0.370832 0.548496 0.256909
H63   H     H_    0.228835 0.111458 0.085937 0.256316
H64   H     H_    0.267549 0.869826 0.551474 0.255644
O45   O     O_3   0.092100 0.536880 0.086720 -0.390691
O46   O     O_3   0.092100 0.463120 0.586720 -0.407363
O47   O     O_3   0.592100 0.036880 0.086720 -0.397535
O48   O     O_3   0.592100 0.963120 0.586720 -0.396479
P13   P     P_3+3 0.899873 0.737764 0.079062 0.457066
P14   P     P_3+3 0.902850 0.260234 0.580263 0.462094
P15   P     P_3+3 0.399897 0.237800 0.079238 0.457040
P16   P     P_3+3 0.402469 0.760769 0.580608 0.456159
C29   C     C_3   0.993952 0.161158 0.504655 0.273906
C30   C     C_3   0.022405 0.820477 0.098509 0.349233
C31   C     C_3   0.493618 0.661990 0.504352 0.277670
C32   C     C_3   0.522407 0.320688 0.099523 0.351935
H65   H     H_    0.950828 0.130158 0.413216 0.079302
H66   H     H_    0.024337 0.794710 0.979108 -0.050211
H67   H     H_    0.450478 0.631177 0.412543 0.076523
H68   H     H_    0.524635 0.294648 0.980425 -0.051845
H69   H     H_    0.594643 0.599753 0.461198 0.121581
H70   H     H_    0.519332 0.427246 0.985819 0.148484
H71   H     H_    0.094760 0.098458 0.461846 0.121329
H72   H     H_    0.020130 0.927045 0.985780 0.148886
H73   H     H_    0.473627 0.578005 0.183748 0.290728
H74   H     H_    0.454767 0.410317 0.723913 0.264599
H75   H     H_    0.977991 0.077763 0.184034 0.292721
H76   H     H_    0.954698 0.909528 0.725392 0.262922
C33   C     C_R   0.138454 0.676939 0.920251 -0.519045
C34   C     C_R   0.136663 0.322208 0.423142 -0.496307
C35   C     C_R   0.636870 0.178122 0.922421 -0.514291
C36   C     C_R   0.636902 0.822483 0.422617 -0.499100
C37   C     C_R   0.864227 0.321320 0.265699 -0.487994
C38   C     C_R   0.861848 0.676292 0.767622 -0.535224
C39   C     C_R   0.363936 0.821632 0.265729 -0.490547
C40   C     C_R   0.361987 0.176350 0.767617 -0.534986
C41   C     C_R   0.792044 0.211583 0.300244 -0.205261
C42   C     C_R   0.790982 0.787318 0.800777 -0.198548
C43   C     C_R   0.291003 0.712574 0.300980 -0.208944
C44   C     C_R   0.290959 0.287241 0.801011 -0.197103
C45   C     C_R   0.848920 0.264010 0.364152 0.178981
C46   C     C_R   0.846957 0.734055 0.864765 0.227271
C47   C     C_R   0.348163 0.764759 0.364693 0.181425
C48   C     C_R   0.347029 0.234061 0.864880 0.226738
C49   C     C_R   0.817438 0.332608 0.109887 0.262977
C50   C     C_R   0.816297 0.666398 0.610900 0.269247
C51   C     C_R   0.317293 0.832742 0.109758 0.261857
C52   C     C_R   0.316306 0.166368 0.610998 0.268186
C53   C     C_R   0.756394 0.281040 0.045983 -0.083355
C54   C     C_R   0.755424 0.718346 0.547232 -0.077641
C55   C     C_R   0.256401 0.781063 0.045553 -0.076523
C56   C     C_R   0.255328 0.218220 0.547473 -0.077285
C57   C     C_R   0.243866 0.719336 0.142197 -0.059886
C58   C     C_R   0.243089 0.280143 0.643545 -0.077552
C59   C     C_R   0.744138 0.219061 0.142294 -0.062320
C60   C     C_R   0.743165 0.780276 0.643232 -0.077204
C61   C     C_R   0.183409 0.667251 0.077965 0.276909
C62   C     C_R   0.182576 0.332308 0.579620 0.284770
C63   C     C_R   0.683071 0.167489 0.078687 0.264655
C64   C     C_R   0.682684 0.832494 0.579162 0.286996
C65   C     C_R   0.152899 0.734882 0.822870 0.203927
C66   C     C_R   0.151517 0.264468 0.325753 0.209146
C67   C     C_R   0.651920 0.235575 0.824277 0.220517
C68   C     C_R   0.651783 0.764720 0.325388 0.211138
C69   C     C_R   0.208905 0.788074 0.886976 -0.202352
C70   C     C_R   0.207572 0.211234 0.389852 -0.222374
C71   C     C_R   0.708591 0.288314 0.887740 -0.205347
C72   C     C_R   0.707752 0.711431 0.389577 -0.221899
H77   H     H_    0.283821 0.667534 0.377978 0.178297
H78   H     H_    0.285341 0.333428 0.876584 0.185320
H79   H     H_    0.785707 0.165769 0.376443 0.177615
H80   H     H_    0.785422 0.833553 0.876230 0.181898
H81   H     H_    0.715139 0.333863 0.810325 0.195776
H82   H     H_    0.713630 0.665345 0.314206 0.181671
H83   H     H_    0.215086 0.833859 0.809947 0.194752
H84   H     H_    0.213489 0.165173 0.314363 0.181971
H85   H     H_    0.093632 0.637189 0.869858 0.172384
H86   H     H_    0.091527 0.361891 0.372916 0.166666
H87   H     H_    0.590880 0.139230 0.873269 0.171810
H88   H     H_    0.591829 0.862208 0.372298 0.166986
H89   H     H_    0.910797 0.359686 0.314627 0.171043
H90   H     H_    0.907346 0.636895 0.817594 0.174837
H91   H     H_    0.410748 0.859820 0.314321 0.170894
H92   H     H_    0.407601 0.137035 0.817453 0.174563
Cl1   Cl    Cl    0.041812 0.034433 0.662628 -0.620405
Cl2   Cl    Cl    0.042260 0.946745 0.270896 -0.615679
Cl3   Cl    Cl    0.541154 0.534632 0.659612 -0.619134
Cl4   Cl    Cl    0.542361 0.447405 0.271162 -0.613219

loop_
_geom_bond_atom_site_label_1
_geom_bond_atom_site_label_2
_geom_bond_distance
_ccdc_geom_bond_type
C67   C71   1.398853 A    
P1    O17   1.748009 S    
O10   Ba2   2.791059 S    
C35   C67   1.393024 A    
C4    H70   1.108497 S    
C6    H14   1.110506 S    
O27   Ba3   2.858409 S    
C5    H13   1.109599 S    
C20   H44   1.101527 S    
P3    O19   1.748364 S    
O7    Ba4   2.828831 S    
O26   Ba2   2.862609 S    
P5    O37   1.749934 S    
P4    O4    1.528308 D    
O6    Ba1   2.824674 S    
C54   C72   1.409534 A    
C28   H60   1.109021 S    
C7    H15   1.109992 S    
P7    O39   1.749692 S    
Ba3   Ba4   4.608195 S    
C70   H84   1.072406 S    
Ba3   O47   2.828806 S    
C26   H62   1.103359 S    
P8    O40   1.749256 S    
P9    O33   1.544111 D    
C1    H7    1.107662 S    
O11   Ba3   2.792694 S    
C16   H28   1.103688 S    
C18   H38   1.104662 S    
C29   H65   1.107971 S    
P1    O1    1.528127 D    
O15   P16   1.545449 D    
O32   Ba4   2.791991 S    
C25   H57   1.105559 S    
C3    H5    1.108533 S    
C12   H18   1.107538 S    
P10   O42   1.751502 S    
P3    O3    1.528127 D    
C24   H52   1.113657 S    
C43   H77   1.070827 S    
P4    O20   1.748771 S    
C10   H20   1.107231 S    
O18   C22   1.399471 S    
C14   H26   1.106841 S    
C15   H27   1.103673 S    
C33   C65   1.392769 A    
O1    Ba1   2.859234 S    
O41   C5    1.405385 S    
P4    Ba4   3.409331 S    
O22   P13   1.747112 S    
P4    C52   1.865576 S    
P5    Ba1   3.411554 S    
P5    C62   1.866606 S    
C36   C68   1.390818 A    
P13   C46   1.839243 S    
C25   H53   1.106407 S    
O23   C31   1.406444 S    
C30   H66   1.111884 S    
C37   C45   1.394020 A    
C38   H90   1.081903 S    
C14   C18   1.513564 S    
O20   C24   1.399902 S    
C60   C64   1.431672 A    
O21   C29   1.406244 S    
C15   H31   1.110264 S    
O16   P15   1.545363 D    
C6    H10   1.111302 S    
C39   C51   1.399860 A    
C40   C48   1.390661 A    
C5    H9    1.107435 S    
C38   C50   1.395428 A    
P4    O8    1.581482 S    
C37   C49   1.400214 A    
C21   H49   1.109710 S    
C28   H64   1.103682 S    
C51   C55   1.433040 A    
C53   C71   1.414704 A    
C8    H12   1.111890 S    
P6    O38   1.749050 S    
O28   Ba4   2.862609 S    
C9    H21   1.109184 S    
P8    O28   1.527446 D    
C33   H85   1.082104 S    
O30   Ba2   2.791991 S    
P9    O29   1.747173 S    
P11   C68   1.841920 S    
P10   O34   1.546984 D    
O12   P15   1.745476 S    
Ba2   O46   2.824650 S    
C17   H41   1.103837 S    
P2    O2    1.528308 D    
C27   H55   1.105424 S    
C12   H74   1.105301 S    
C24   H48   1.108946 S    
C22   H50   1.112900 S    
C19   H43   1.103087 S    
C34   C66   1.391180 A    
P3    Ba3   3.411277 S    
C26   H58   1.108863 S    
P12   O36   1.547315 D    
C7    C11   1.517229 S    
Ba3   O48   2.935207 S    
P2    Ba2   3.409331 S    
C1    H71   1.110494 S    
H3    C31   1.113351 S    
C7    H11   1.107805 S    
Ba1   O46   2.935207 S    
O10   P13   1.745416 S    
C9    H75   1.102778 S    
C68   C72   1.396945 A    
C32   H68   1.112814 S    
P6    O45   1.589331 S    
P1    O5    1.584391 S    
C40   H92   1.081893 S    
C26   H54   1.110146 S    
P14   C45   1.857555 S    
C37   H89   1.081655 S    
C52   C56   1.431701 A    
O37   C14   1.401184 S    
O4    Ba4   2.855074 S    
C21   C25   1.515921 S    
O23   P16   1.746749 S    
C66   C70   1.396949 A    
C42   H80   1.073464 S    
O39   C16   1.399068 S    
C36   H88   1.081993 S    
O24   P15   1.747644 S    
P3    C51   1.870960 S    
C20   H36   1.106776 S    
P2    C50   1.865666 S    
C3    C31   1.519188 S    
C42   C46   1.396264 A    
C31   H67   1.108097 S    
C4    C32   1.523308 S    
P2    O18   1.748799 S    
C1    Cl1   1.774982 S    
H1    C29   1.112718 S    
C27   H63   1.100788 S    
O9    Ba1   2.792694 S    
C19   H35   1.107482 S    
C39   H91   1.081649 S    
C56   C70   1.409981 A    
C33   C61   1.397651 A    
P12   C67   1.848340 S    
O44   C8    1.408671 S    
O25   Ba1   2.858409 S    
P10   O30   1.745403 S    
O5    Ba2   2.828831 S    
C42   C60   1.409967 A    
P11   O43   1.748451 S    
P6    Ba2   3.413544 S    
C9    H19   1.109358 S    
P12   O44   1.751348 S    
C12   H24   1.106096 S    
O13   P14   1.546578 D    
C19   H39   1.106659 S    
Ba1   Ba2   4.608195 S    
C8    C12   1.517518 S    
C15   C19   1.518029 S    
P6    O26   1.527446 D    
C5    C9    1.515775 S    
C27   H59   1.105297 S    
C56   C58   1.431772 A    
C25   H61   1.102593 S    
C10   H76   1.104978 S    
C34   C62   1.396546 A    
P5    O25   1.527626 D    
Ba4   O48   2.824650 S    
C54   C60   1.431602 A    
C3    H69   1.110655 S    
Ba2   O45   2.934504 S    
C2    H8    1.110960 S    
O38   C13   1.399464 S    
C3    Cl3   1.775090 S    
H2    C30   1.111429 S    
P7    Ba3   3.411554 S    
C13   H29   1.110132 S    
P7    O48   1.586389 S    
P2    O6    1.581482 S    
O31   Ba3   2.790361 S    
C13   H25   1.104530 S    
O9    P14   1.741626 S    
O40   C15   1.399122 S    
C2    H72   1.107036 S    
P6    C61   1.871566 S    
O24   C32   1.407729 S    
P11   O31   1.747505 S    
P5    O46   1.586389 S    
C18   H34   1.102186 S    
C17   H37   1.107334 S    
P12   O32   1.745675 S    
C16   H32   1.110064 S    
C17   H33   1.107743 S    
C22   C26   1.524000 S    
C57   C61   1.433221 A    
C41   H79   1.074417 S    
P1    Ba1   3.411277 S    
C11   H17   1.111456 S    
P7    C64   1.866097 S    
C55   C69   1.414520 A    
P8    O47   1.589331 S    
C43   C47   1.397526 A    
P15   C48   1.839460 S    
C28   H56   1.111059 S    
P16   C47   1.858212 S    
C23   H51   1.109650 S    
C2    C30   1.522468 S    
C39   C47   1.393168 A    
C41   C45   1.397945 A    
C44   H78   1.073586 S    
C35   C63   1.397781 A    
C4    Cl4   1.778763 S    
P10   C65   1.847942 S    
C11   H23   1.110011 S    
C43   C57   1.413184 A    
O19   C23   1.398450 S    
O2    Ba2   2.855074 S    
P9    C66   1.843190 S    
C10   H22   1.105859 S    
C44   C48   1.395935 A    
C41   C59   1.413738 A    
C23   H47   1.103741 S    
C11   H73   1.104246 S    
O12   Ba4   2.791059 S    
Ba1   O45   2.828806 S    
O11   P16   1.738373 S    
C13   C17   1.518245 S    
O14   P13   1.545229 D    
C40   C52   1.395750 A    
C4    H6    1.111234 S    
P9    O41   1.748068 S    
C69   H83   1.077665 S    
C20   H40   1.105313 S    
C50   C54   1.431964 A    
O8    Ba3   2.824674 S    
C59   C63   1.432579 A    
P7    O27   1.527626 D    
C49   C53   1.432822 A    
H4    C32   1.112467 S    
C44   C58   1.409876 A    
O22   C30   1.407349 S    
C53   C59   1.434605 A    
O43   C7    1.405129 S    
P8    C63   1.870658 S    
C35   H87   1.081908 S    
C6    C10   1.517270 S    
C65   C69   1.398958 A    
C34   H86   1.081967 S    
C72   H82   1.072019 S    
P3    O7    1.584391 S    
P11   O35   1.544211 D    
C21   H45   1.103657 S    
C1    C29   1.519009 S    
O42   C6    1.408220 S    
C14   H30   1.108746 S    
C8    H16   1.111073 S    
C58   C62   1.431100 A    
Ba4   O47   2.934504 S    
P8    Ba4   3.413544 S    
O21   P14   1.747127 S    
C55   C57   1.433848 A    
C22   H46   1.108383 S    
P1    C49   1.872973 S    
C16   C20   1.519631 S    
O29   Ba1   2.790361 S    
C38   C46   1.390406 A    
C36   C64   1.395962 A    
O17   C21   1.398121 S    
C23   C27   1.516088 S    
C18   H42   1.106445 S    
C71   H81   1.077708 S    
O3    Ba3   2.859234 S    
C24   C28   1.524570 S    
C2    Cl2   1.776458 S    
