data_mof_unit_5329.cif
_audit_creation_date              2012-12-11T16:26:29-0500
_audit_creation_method            fapswitch 2.2
_symmetry_space_group_name_H-M    P1
_symmetry_Int_Tables_number       1
_space_group_crystal_system       triclinic
_cell_length_a                    13.945201
_cell_length_b                    13.945173
_cell_length_c                    32.125693
_cell_angle_alpha                 90.000234
_cell_angle_beta                  89.999344
_cell_angle_gamma                 120.024169
_cell_volume                      5409.1123294

loop_
_atom_site_label
_atom_site_type_symbol
_atom_type_description
_atom_site_fract_x
_atom_site_fract_y
_atom_site_fract_z
_atom_type_partial_charge
C1    C     C_R   0.566782 0.444265 0.810535 0.589630
C2    C     C_R   0.444263 0.566784 0.189464 0.589654
C3    C     C_2   0.953354 0.330656 0.338693 0.668309
C4    C     C_2   0.378443 0.047304 0.161262 0.674479
C5    C     C_2   0.668931 0.622389 0.339774 0.648605
C6    C     C_2   0.330661 0.953258 0.661358 0.668281
C7    C     C_2   0.047264 0.378416 0.838765 0.674490
C8    C     C_2   0.622357 0.668923 0.660232 0.648581
C9    C     C_2   0.330633 0.953373 0.838677 0.668382
C10   C     C_2   0.047358 0.378497 0.661290 0.674472
C11   C     C_2   0.622401 0.668937 0.839776 0.648603
C12   C     C_2   0.906215 0.297558 0.072030 0.652847
C13   C     C_R   0.433190 0.877516 0.310527 0.585067
C14   C     C_2   0.394107 0.095859 0.427785 0.660550
C15   C     C_2   0.697670 0.618746 0.069554 0.637209
C16   C     C_2   0.906667 0.297711 0.428062 0.652926
C17   C     C_2   0.394230 0.095981 0.072232 0.660516
C18   C     C_2   0.697659 0.618813 0.430452 0.637220
C19   C     C_2   0.297598 0.906336 0.572009 0.652917
C20   C     C_2   0.095782 0.394079 0.927807 0.660548
C21   C     C_2   0.618732 0.697672 0.569559 0.637196
C22   C     C_2   0.297648 0.906486 0.928031 0.652899
C23   C     C_2   0.096169 0.394353 0.572271 0.660496
C24   C     C_R   0.122444 0.555607 0.189490 0.585444
C25   C     C_2   0.618815 0.697660 0.930455 0.637227
C26   C     C_1   0.004089 0.490493 0.018645 0.162891
C27   C     C_1   0.485813 0.994564 0.481500 0.154294
C28   C     C_1   0.503484 0.507910 0.018573 0.138108
C29   C     C_1   0.004524 0.490719 0.481395 0.162800
C30   C     C_1   0.485941 0.994692 0.018511 0.154213
C31   C     C_1   0.503466 0.507941 0.481429 0.138126
C32   C     C_1   0.490538 0.004223 0.518631 0.162850
C33   C     C_R   0.877519 0.433193 0.689474 0.585111
C34   C     C_1   0.994441 0.485769 0.981513 0.154303
C35   C     C_1   0.507916 0.503491 0.518573 0.138125
C36   C     C_1   0.490650 0.004332 0.981378 0.162829
C37   C     C_1   0.994869 0.486009 0.518526 0.154218
C38   C     C_1   0.507931 0.503463 0.981428 0.138118
C39   C     C_R   0.935226 0.472342 0.851469 -0.040356
C40   C     C_R   0.536762 0.064497 0.648603 -0.042433
C41   C     C_R   0.527335 0.462580 0.851443 -0.034666
C42   C     C_R   0.935299 0.472386 0.648546 -0.040329
C43   C     C_R   0.536759 0.064493 0.851397 -0.042482
C44   C     C_R   0.555607 0.122444 0.810510 0.585403
C45   C     C_R   0.527339 0.462572 0.648555 -0.034619
C46   C     C_R   0.472350 0.935248 0.351464 -0.040362
C47   C     C_R   0.064463 0.536743 0.148610 -0.042463
C48   C     C_R   0.462576 0.527338 0.351444 -0.034647
C49   C     C_R   0.472379 0.935278 0.148542 -0.040328
C50   C     C_R   0.064533 0.536781 0.351404 -0.042446
C51   C     C_R   0.462576 0.527337 0.148556 -0.034652
C52   C     C_R   0.909540 0.537770 0.878046 0.229065
C53   C     C_R   0.627761 0.089655 0.622034 0.224337
C54   C     C_R   0.456689 0.370950 0.877067 0.221176
C55   C     C_R   0.566785 0.444263 0.689464 0.589678
C56   C     C_R   0.909635 0.537811 0.621958 0.229111
C57   C     C_R   0.627769 0.089594 0.877951 0.224311
C58   C     C_R   0.456726 0.370941 0.622925 0.221173
C59   C     C_R   0.537771 0.909565 0.378046 0.229046
C60   C     C_R   0.089584 0.627731 0.122042 0.224344
C61   C     C_R   0.370946 0.456703 0.377070 0.221164
C62   C     C_R   0.537831 0.909626 0.121963 0.229115
C63   C     C_R   0.089675 0.627803 0.377958 0.224300
C64   C     C_R   0.370945 0.456711 0.122928 0.221191
C65   C     C_R   0.929316 0.540758 0.920826 0.269350
C66   C     C_R   0.877513 0.433190 0.810528 0.585051
C67   C     C_R   0.610774 0.069259 0.579295 0.262405
C68   C     C_R   0.450074 0.386067 0.919787 0.235290
C69   C     C_R   0.929564 0.540896 0.579188 0.269429
C70   C     C_R   0.610822 0.069242 0.920693 0.262357
C71   C     C_R   0.450107 0.386070 0.580207 0.235228
C72   C     C_R   0.540779 0.929384 0.420823 0.269394
C73   C     C_R   0.069140 0.610734 0.079306 0.262396
C74   C     C_R   0.386064 0.450092 0.419789 0.235272
C75   C     C_R   0.540887 0.929495 0.079188 0.269384
C76   C     C_R   0.069393 0.610875 0.420705 0.262357
C77   C     C_R   0.555610 0.122448 0.689489 0.585456
C78   C     C_R   0.386071 0.450087 0.080210 0.235269
C79   C     C_R   0.981130 0.485209 0.937192 -0.035962
C80   C     C_R   0.503374 0.017857 0.562935 -0.029229
C81   C     C_R   0.508875 0.492210 0.937041 -0.041999
C82   C     C_R   0.981480 0.485424 0.562843 -0.035917
C83   C     C_R   0.503443 0.017922 0.937071 -0.029260
C84   C     C_R   0.508867 0.492224 0.562959 -0.042067
C85   C     C_R   0.485245 0.981223 0.437182 -0.035925
C86   C     C_R   0.017731 0.503333 0.062949 -0.029239
C87   C     C_R   0.492209 0.508887 0.437042 -0.042013
C88   C     C_R   0.444264 0.566783 0.310535 0.589643
C89   C     C_R   0.485369 0.981348 0.062830 -0.035958
C90   C     C_R   0.018098 0.503502 0.437087 -0.029248
C91   C     C_R   0.492221 0.508859 0.062960 -0.042039
C92   C     C_R   0.024016 0.435414 0.910597 0.003013
C93   C     C_R   0.410759 0.975944 0.589499 0.004708
C94   C     C_R   0.567370 0.585795 0.911487 0.008636
C95   C     C_R   0.024317 0.435617 0.589453 0.003049
C96   C     C_R   0.410801 0.976038 0.910522 0.004641
C97   C     C_R   0.567331 0.585802 0.588519 0.008658
C98   C     C_R   0.435447 0.024091 0.410582 0.003022
C99   C     C_R   0.433193 0.877519 0.189474 0.585095
C100  C     C_R   0.975849 0.410724 0.089514 0.004685
C101  C     C_R   0.585793 0.567372 0.411486 0.008643
C102  C     C_R   0.435544 0.024189 0.089430 0.003040
C103  C     C_R   0.976177 0.410851 0.410542 0.004663
C104  C     C_R   0.585801 0.567335 0.088517 0.008642
C105  C     C_R   0.001280 0.429109 0.867367 0.008681
C106  C     C_R   0.427321 0.998829 0.632731 -0.000114
C107  C     C_R   0.574535 0.571484 0.868168 0.008901
C108  C     C_R   0.001443 0.429225 0.632673 0.008709
C109  C     C_R   0.427326 0.998895 0.867287 -0.000165
C110  C     C_R   0.122447 0.555610 0.310511 0.585421
C111  C     C_R   0.574506 0.571479 0.631836 0.008948
C112  C     C_R   0.429134 0.001327 0.367353 0.008672
C113  C     C_R   0.998788 0.427297 0.132743 -0.000143
C114  C     C_R   0.571480 0.574532 0.368167 0.008919
C115  C     C_R   0.429178 0.001373 0.132655 0.008705
C116  C     C_R   0.998954 0.427356 0.367302 -0.000138
C117  C     C_R   0.571482 0.574513 0.131834 0.008911
C118  C     C_2   0.953282 0.330639 0.161369 0.668353
C119  C     C_2   0.378448 0.047304 0.338744 0.674464
C120  C     C_2   0.668929 0.622375 0.160228 0.648584
Cl1   Cl    Cl    0.852275 0.617658 0.859441 -0.405718
Cl2   Cl    Cl    0.617646 0.852269 0.140557 -0.405738
Cl3   Cl    Cl    0.147202 0.765076 0.359388 -0.424128
Cl4   Cl    Cl    0.235213 0.374188 0.142678 -0.412375
Cl5   Cl    Cl    0.110842 0.725886 0.045674 -0.438110
Cl6   Cl    Cl    0.613366 0.886690 0.454482 -0.395758
Cl7   Cl    Cl    0.270057 0.370220 0.047633 -0.387051
Cl8   Cl    Cl    0.111138 0.726074 0.454315 -0.438173
Cl9   Cl    Cl    0.613513 0.886839 0.045531 -0.395759
Cl10  Cl    Cl    0.270047 0.370217 0.452365 -0.386952
Cl11  Cl    Cl    0.725936 0.111007 0.545662 -0.438119
Cl12  Cl    Cl    0.765080 0.147371 0.640572 -0.424280
Cl13  Cl    Cl    0.886606 0.613346 0.954478 -0.395808
Cl14  Cl    Cl    0.370255 0.270058 0.547628 -0.386984
Cl15  Cl    Cl    0.726008 0.110936 0.954306 -0.438160
Cl16  Cl    Cl    0.886902 0.613493 0.545518 -0.395736
Cl17  Cl    Cl    0.370185 0.270050 0.952360 -0.387051
Cl18  Cl    Cl    0.374127 0.235232 0.857311 -0.412366
Cl19  Cl    Cl    0.852174 0.617549 0.640534 -0.405856
Cl20  Cl    Cl    0.765054 0.147175 0.859388 -0.424134
Cl21  Cl    Cl    0.374216 0.235203 0.642672 -0.412405
Cl22  Cl    Cl    0.617617 0.852242 0.359451 -0.405778
Cl23  Cl    Cl    0.147328 0.765054 0.140576 -0.424275
Cl24  Cl    Cl    0.235225 0.374148 0.357315 -0.412405
Cr1   Cr    Cr6+3 0.504240 0.249200 0.750000 1.185745
Cr2   Cr    Cr6+3 0.744960 0.495760 0.750000 1.185849
Cr3   Cr    Cr6+3 0.750800 0.255040 0.750000 1.183585
Cr4   Cr    Cr6+3 0.249200 0.504240 0.250000 1.185741
Cr5   Cr    Cr6+3 0.495760 0.744960 0.250000 1.185850
Cr6   Cr    Cr6+3 0.255040 0.750800 0.250000 1.183582
H1    H     H_    0.869500 0.260681 0.213991 0.355759
H2    H     H_    0.260587 0.869515 0.786077 0.355740
H3    H     H_    0.131011 0.392601 0.713970 0.355417
H4    H     H_    0.605526 0.736214 0.786844 0.355430
H5    H     H_    0.890309 0.184224 0.029472 0.407926
H6    H     H_    0.394766 0.240584 0.424355 0.379604
H7    H     H_    0.836147 0.758988 0.052827 0.394985
H8    H     H_    0.891049 0.184459 0.470607 0.407888
H9    H     H_    0.394886 0.240700 0.075682 0.379549
H10   H     H_    0.836118 0.759080 0.447172 0.394967
H11   H     H_    0.184243 0.890525 0.529480 0.407913
H12   H     H_    0.392639 0.131073 0.286087 0.355418
H13   H     H_    0.240495 0.394715 0.924377 0.379636
H14   H     H_    0.758967 0.836160 0.552835 0.394960
H15   H     H_    0.184394 0.890728 0.970600 0.407912
H16   H     H_    0.240905 0.395051 0.575758 0.379459
H17   H     H_    0.759085 0.836116 0.947175 0.394990
H18   H     H_    0.736193 0.605497 0.213163 0.355430
H19   H     H_    0.869408 0.260630 0.286106 0.355749
H20   H     H_    0.392541 0.130994 0.213932 0.355409
H21   H     H_    0.736201 0.605498 0.286842 0.355436
H22   H     H_    0.260710 0.869370 0.713963 0.355764
H23   H     H_    0.131085 0.392612 0.786121 0.355407
H24   H     H_    0.605459 0.736179 0.713166 0.355432
O1    O     O_R   0.480350 0.140770 0.796330 -0.451002
O2    O     O_R   0.140770 0.480350 0.203670 -0.450983
O3    O     O_R   0.519650 0.660420 0.296330 -0.448157
O4    O     O_R   0.339580 0.859230 0.203670 -0.450366
O5    O     O_R   0.514930 0.348530 0.793250 -0.455418
O6    O     O_R   0.833600 0.485070 0.706750 -0.455518
O7    O     O_R   0.651470 0.166400 0.793250 -0.454352
O8    O     O_R   0.514930 0.348530 0.706750 -0.455406
O9    O     O_R   0.833600 0.485070 0.793250 -0.455531
O10   O     O_R   0.651470 0.166400 0.706750 -0.454333
O11   O     O_R   0.348530 0.514930 0.293250 -0.455417
O12   O     O_R   0.660420 0.519650 0.703670 -0.448140
O13   O     O_R   0.485070 0.833600 0.206750 -0.455527
O14   O     O_R   0.166400 0.651470 0.293250 -0.454357
O15   O     O_R   0.348530 0.514930 0.206750 -0.455405
O16   O     O_R   0.485070 0.833600 0.293250 -0.455524
O17   O     O_R   0.166400 0.651470 0.206750 -0.454330
O18   O     O_3   0.666667 0.333333 0.750000 -0.319543
O19   O     O_3   0.333333 0.666667 0.250000 -0.319545
O20   O     O_2   0.960891 0.249234 0.152794 -0.373343
O21   O     O_R   0.901206 0.333038 0.198164 -0.647595
O22   O     O_2   0.289798 0.040457 0.347393 -0.377242
O23   O     O_R   0.859230 0.339580 0.796330 -0.450410
O24   O     O_R   0.432939 0.098981 0.301896 -0.644388
O25   O     O_2   0.752749 0.709345 0.151678 -0.375314
O26   O     O_R   0.664099 0.566846 0.197067 -0.652687
O27   O     O_2   0.960957 0.249245 0.347267 -0.373351
O28   O     O_R   0.901188 0.333018 0.301918 -0.647612
O29   O     O_2   0.289796 0.040449 0.152602 -0.377254
O30   O     O_R   0.432880 0.098944 0.198123 -0.644380
O31   O     O_2   0.752751 0.709360 0.348323 -0.375298
O32   O     O_R   0.664106 0.566852 0.302938 -0.652686
O33   O     O_2   0.249233 0.960836 0.652792 -0.373408
O34   O     O_R   0.480350 0.140770 0.703670 -0.450974
O35   O     O_R   0.333080 0.901147 0.698140 -0.647598
O36   O     O_2   0.040388 0.289753 0.847414 -0.377209
O37   O     O_R   0.098985 0.432916 0.801924 -0.644384
O38   O     O_2   0.709329 0.752745 0.651685 -0.375330
O39   O     O_R   0.566815 0.664087 0.697068 -0.652682
O40   O     O_2   0.249254 0.961024 0.847259 -0.373289
O41   O     O_R   0.332965 0.901229 0.801891 -0.647599
O42   O     O_2   0.040521 0.289855 0.652634 -0.377287
O43   O     O_R   0.098964 0.432934 0.698155 -0.644371
O44   O     O_2   0.709374 0.752752 0.848327 -0.375283
O45   O     O_R   0.660420 0.519650 0.796330 -0.448165
O46   O     O_R   0.566872 0.664118 0.802939 -0.652695
O47   O     O_2   0.815052 0.235183 0.086963 -0.445516
O48   O     O_R   0.944814 0.262816 0.038402 -0.571469
O49   O     O_2   0.331317 0.064867 0.457637 -0.372881
O50   O     O_R   0.427867 0.199320 0.409849 -0.641088
O51   O     O_2   0.731557 0.559968 0.055213 -0.453080
O52   O     O_R   0.762217 0.733991 0.066860 -0.542528
O53   O     O_2   0.815400 0.235310 0.413211 -0.445315
O54   O     O_R   0.945508 0.263026 0.461633 -0.571260
O55   O     O_2   0.331477 0.065030 0.042372 -0.372949
O56   O     O_R   0.859230 0.339580 0.703670 -0.450358
O57   O     O_R   0.427969 0.199417 0.090185 -0.641111
O58   O     O_2   0.731556 0.560058 0.444807 -0.452997
O59   O     O_R   0.762191 0.734061 0.433134 -0.542510
O60   O     O_2   0.235254 0.815119 0.586898 -0.445534
O61   O     O_R   0.262827 0.945026 0.538424 -0.571350
O62   O     O_2   0.064799 0.331321 0.957666 -0.372868
O63   O     O_R   0.199232 0.427811 0.909868 -0.641094
O64   O     O_2   0.559948 0.731550 0.555218 -0.453080
O65   O     O_R   0.733976 0.762232 0.566867 -0.542559
O66   O     O_2   0.235219 0.815298 0.913128 -0.445353
O67   O     O_R   0.140770 0.480350 0.296330 -0.450996
O68   O     O_R   0.262980 0.945193 0.961647 -0.571411
O69   O     O_2   0.065296 0.331637 0.542398 -0.373020
O70   O     O_R   0.199576 0.428100 0.590252 -0.641112
O71   O     O_2   0.560062 0.731559 0.944811 -0.453038
O72   O     O_R   0.734063 0.762188 0.933137 -0.542480
O73   O     O_R   0.519650 0.660420 0.203670 -0.448153
O74   O     O_R   0.339580 0.859230 0.296330 -0.450401

loop_
_geom_bond_atom_site_label_1
_geom_bond_atom_site_label_2
_ccdc_geom_bond_type
Cr3   O10   S    
C66   O9    A    
C16   O53   D    
C65   C79   A    
C46   C112  A    
C46   C59   A    
C119  O24   S    
H16   O70   S    
C4    C115  S    
C10   C108  S    
C58   Cl21  S    
C44   O1    A    
C22   O68   S    
C91   C104  A    
C17   C102  S    
C77   O10   A    
C71   Cl14  S    
C99   O13   A    
C72   C85   A    
C17   O57   S    
C18   O59   S    
C88   O3    A    
C6    O35   S    
C54   Cl18  S    
C9    O41   S    
Cr6   O74   S    
C20   C92   S    
C110  O14   A    
Cr5   O16   S    
Cr4   O2    S    
Cr2   O9    S    
C15   O51   D    
C68   C81   A    
C77   O34   A    
C48   C114  A    
C104  C117  A    
C3    C116  S    
C60   Cl23  S    
Cr6   O14   S    
C13   C46   S    
C97   C111  A    
Cr3   O56   S    
C58   C71   A    
C4    O30   S    
C54   C68   A    
C63   C76   A    
C36   C83   S    
C20   O63   S    
C60   C73   A    
C50   C110  S    
C120  O25   D    
C6    O33   D    
C119  O22   D    
C55   O12   A    
H1    O21   S    
C27   C85   S    
C85   C98   A    
C61   Cl24  S    
Cr5   O19   S    
Cr6   O17   S    
C87   C101  A    
C34   C79   S    
C26   C34   T    
Cr1   O1    S    
C59   Cl22  S    
C20   O62   D    
C48   C88   S    
C22   O66   D    
C102  C115  A    
C10   O43   S    
C15   C104  S    
C24   O17   A    
C86   C100  A    
H3    O43   S    
H13   O63   S    
C39   C105  A    
C59   C72   A    
Cr6   O4    S    
C42   C56   A    
C25   O72   S    
Cr3   O7    S    
C76   C90   A    
C39   C52   A    
C47   C60   A    
C25   C94   S    
Cr5   O73   S    
C33   O6    A    
C101  C114  A    
Cr2   O18   S    
C68   Cl17  S    
H23   O37   S    
C22   C96   S    
C30   C89   S    
C118  O20   D    
C78   Cl7   S    
C29   C90   S    
C14   C98   S    
C50   C63   A    
C9    C109  S    
C12   O47   D    
H2    O41   S    
C94   C107  A    
C31   C87   S    
C51   C64   A    
C15   O52   S    
C14   O49   D    
C98   C112  A    
C99   O4    A    
C8    O39   S    
C2    C51   S    
C117  C120  S    
C49   C99   S    
C56   C69   A    
C56   Cl19  S    
C17   O55   D    
C4    O29   D    
Cr4   O11   S    
C64   Cl4   S    
Cr1   O8    S    
C13   O16   A    
C57   Cl20  S    
C72   Cl6   S    
C18   C101  S    
H9    O57   S    
C8    O38   D    
C74   C87   A    
C2    O73   A    
Cr6   O19   S    
C70   C83   A    
C2    O15   A    
C93   C106  A    
C32   C80   S    
C21   C97   S    
C52   Cl1   S    
C45   C58   A    
C16   C103  S    
C7    O37   S    
C89   C102  A    
H11   O61   S    
C28   C38   T    
Cr3   O18   S    
C26   C86   S    
C90   C103  A    
Cr1   O5    S    
H14   O65   S    
Cr5   O3    S    
C6    C106  S    
Cr2   O6    S    
C1    O45   A    
C53   Cl12  S    
H21   O32   S    
C118  O21   S    
C11   O44   D    
C12   O48   S    
C79   C92   A    
H7    O52   S    
Cr2   O45   S    
C1    C41   S    
C88   O11   A    
C21   O65   S    
H22   O35   S    
C69   Cl16  S    
H10   O59   S    
C74   Cl10  S    
Cr1   O18   S    
C11   C107  S    
C70   Cl15  S    
C5    O32   S    
C39   C66   S    
C31   C35   T    
C37   C82   S    
C8    C111  S    
C84   C97   A    
C23   O69   D    
C33   O56   A    
C24   O2    A    
C19   O60   D    
H8    O54   S    
C62   Cl2   S    
C7    O36   D    
H20   O30   S    
C40   C106  A    
C71   C84   A    
C14   O50   S    
Cr4   O15   S    
C47   C113  A    
C33   C42   S    
C16   O54   S    
C82   C95   A    
H18   O26   S    
C49   C115  A    
C27   C32   T    
C40   C77   S    
C24   C47   S    
C64   C78   A    
Cr2   O12   S    
C67   Cl11  S    
C67   C80   A    
H19   O28   S    
C3    O27   D    
H5    O48   S    
C19   O61   S    
C112  C119  S    
C63   Cl3   S    
C35   C84   S    
C45   C111  A    
Cr5   O13   S    
C9    O40   D    
H17   O72   S    
C96   C109  A    
H12   O24   S    
C30   C36   T    
H6    O50   S    
H24   O39   S    
C19   C93   S    
C5    C114  S    
C103  C116  A    
C80   C93   A    
Cr4   O19   S    
C38   C81   S    
C18   O58   D    
C81   C94   A    
C1    O5    A    
C110  O67   A    
C10   O42   D    
C48   C61   A    
Cr4   O67   S    
C42   C108  A    
C43   C44   S    
C73   Cl5   S    
C83   C96   A    
C44   O7    A    
C51   C117  A    
C55   O8    A    
C23   C95   S    
C7    C105  S    
C69   C82   A    
C28   C91   S    
C50   C116  A    
C41   C54   A    
C53   C67   A    
C73   C86   A    
C12   C100  S    
C66   O23   A    
Cr3   O23   S    
C95   C108  A    
C43   C57   A    
C57   C70   A    
C5    O31   D    
C113  C118  S    
C41   C107  A    
C92   C105  A    
C120  O26   S    
C13   O74   A    
C62   C75   A    
C45   C55   S    
C40   C53   A    
C75   C89   A    
C29   C37   T    
C3    O28   S    
C78   C91   A    
C49   C62   A    
H15   O68   S    
C43   C109  A    
C23   O70   S    
C100  C113  A    
H4    O46   S    
C11   O46   S    
Cr1   O34   S    
C65   Cl13  S    
C52   C65   A    
C75   Cl9   S    
C61   C74   A    
C21   O64   D    
C76   Cl8   S    
C25   O71   D    
