data_mof_unit_9308.cif
_audit_creation_date              2012-12-10T20:31:50-0500
_audit_creation_method            fapswitch 2.2
_symmetry_space_group_name_H-M    P1
_symmetry_Int_Tables_number       1
_space_group_crystal_system       triclinic
_cell_length_a                    9.895562
_cell_length_b                    10.720944
_cell_length_c                    15.506754
_cell_angle_alpha                 91.079203
_cell_angle_beta                  68.390956
_cell_angle_gamma                 89.80981
_cell_volume                      1529.12265048

loop_
_atom_site_label
_atom_site_type_symbol
_atom_type_description
_atom_site_fract_x
_atom_site_fract_y
_atom_site_fract_z
_atom_type_partial_charge
C1    C     C_R   0.503666 0.740090 0.495546 0.937168
C2    C     C_R   0.404895 0.494474 0.916716 0.035827
C3    C     C_R   0.255293 0.492997 0.971392 0.178017
C4    C     C_R   0.504819 0.525782 0.958253 0.000934
C5    C     C_R   0.465332 0.510124 0.053643 0.118118
C6    C     C_R   0.316237 0.496948 0.108962 -0.113251
C7    C     C_R   0.211428 0.494416 0.068161 -0.223900
C8    C     C_R   0.634765 0.587236 0.908621 -0.300034
C9    C     C_R   0.727905 0.628581 0.952435 0.160203
C10   C     C_R   0.701411 0.590006 0.043928 0.115528
C11   C     C_R   0.574807 0.519415 0.091312 0.043583
C12   C     C_R   0.409329 0.493455 0.675769 0.945961
C13   C     C_R   0.796119 0.620555 0.090002 -0.231407
C14   C     C_R   0.763861 0.585385 0.181040 -0.213474
C15   C     C_R   0.561091 0.462865 0.175300 -0.069659
C16   C     C_R   0.415245 0.937242 0.456951 0.145158
C17   C     C_R   0.520320 0.871392 0.478281 -0.194403
C18   C     C_R   0.644040 0.937975 0.480502 -0.014437
C19   C     C_R   0.638173 0.067307 0.482934 -0.156304
C20   C     C_R   0.516849 0.129747 0.478261 -0.132442
C21   C     C_R   0.417758 0.063705 0.451869 0.030080
C22   C     C_3   0.258143 0.075687 0.473296 -0.479734
C23   C     C_R   0.502990 0.260427 0.495545 0.916510
C24   C     C_3   0.253319 0.932948 0.480838 0.142233
C25   C     C_R   0.900822 0.589904 0.548344 0.215486
C26   C     C_R   0.962067 0.418481 0.444207 0.003615
C27   C     C_R   0.105661 0.419671 0.444820 -0.105175
C28   C     C_R   0.042276 0.587969 0.549719 0.191659
C29   C     C_3   0.987953 0.606640 0.651946 -0.520514
C30   C     C_3   0.836158 0.613398 0.650244 -0.507326
C31   C     C_R   0.590377 0.498405 0.324568 0.817139
C32   C     C_R   0.352664 0.480645 0.777170 -0.063621
C33   C     C_R   0.644487 0.509509 0.224489 -0.120510
C34   C     C_R   0.154301 0.490481 0.927413 -0.203596
C35   C     C_R   0.203322 0.493633 0.830484 -0.210706
C36   C     C_R   0.449913 0.460506 0.822725 -0.095952
H1    H     H_    0.097266 0.491080 0.111871 0.150358
H2    H     H_    0.891960 0.676080 0.058318 0.158664
H3    H     H_    0.726070 0.118523 0.492581 0.217137
H4    H     H_    0.201067 0.127949 0.539636 0.209243
H5    H     H_    0.234533 0.112012 0.413641 0.225624
H6    H     H_    0.187645 0.354632 0.401671 0.178986
H7    H     H_    0.006123 0.523138 0.687836 0.213206
H8    H     H_    0.024414 0.695421 0.673091 0.224965
H9    H     H_    0.767624 0.535572 0.686605 0.217336
H10   H     H_    0.785080 0.707614 0.668217 0.226968
H11   H     H_    0.830200 0.620011 0.218251 0.156516
H12   H     H_    0.038826 0.491363 0.967534 0.149287
H13   H     H_    0.124769 0.503072 0.797546 0.156054
H14   H     H_    0.279496 0.496597 0.183923 0.145586
H15   H     H_    0.655806 0.614122 0.838111 0.155634
N1    N     N_R   0.856900 0.500860 0.500610 -0.153510
N2    N     N_R   0.142540 0.500820 0.500610 -0.131439
O1    O     O_R   0.385310 0.683210 0.499990 -0.588654
O2    O     O_R   0.614650 0.683240 0.500000 -0.648420
O3    O     O_R   0.319830 0.499970 0.632240 -0.612366
O4    O     O_R   0.549170 0.500000 0.632250 -0.580254
O5    O     O_R   0.385350 0.316760 0.500000 -0.624479
O6    O     O_R   0.614690 0.316790 0.500010 -0.628030
O7    O     O_R   0.450830 0.500000 0.367750 -0.633162
O8    O     O_R   0.680170 0.500030 0.367760 -0.654884
Zn1   Zn    Zn3+2 0.346870 0.499980 0.499990 0.949569
Zn2   Zn    Zn3+2 0.653130 0.500020 0.500010 0.951046
C37   C     C_2   0.777658 0.879950 0.484860 0.417547
H16   H     H_    0.829838 0.801152 0.439873 0.068109
O9    O     O_2   0.832617 0.922041 0.537823 -0.614871
C38   C     C_2   0.164584 0.896849 0.579232 0.375422
H17   H     H_    0.047150 0.894744 0.601605 0.119208
O10   O     O_2   0.221527 0.874373 0.635091 -0.577178
C39   C     C_3   0.206629 0.863312 0.407803 -0.439185
C40   C     C_3   0.311876 0.873755 0.306903 -0.803237
H18   H     H_    0.329899 0.972695 0.286346 0.277526
H19   H     H_    0.417703 0.828246 0.297041 0.250717
H20   H     H_    0.265318 0.825325 0.260427 0.246569
H21   H     H_    0.194502 0.762687 0.423994 0.213131
H22   H     H_    0.098694 0.899455 0.412949 0.239588
C41   C     C_2   0.929707 0.326446 0.382241 0.383458
H23   H     H_    0.831845 0.332130 0.367876 0.131601
O11   O     O_2   0.014990 0.241549 0.344689 -0.599033
C42   C     C_2   0.478397 0.344610 0.205792 0.375033
H24   H     H_    0.453942 0.310361 0.275176 0.073336
O12   O     O_2   0.445337 0.278970 0.151572 -0.545895
C43   C     C_3   0.850607 0.714943 0.900395 -0.438601
C44   C     C_3   0.816913 0.849314 0.936841 -0.781095
H25   H     H_    0.716257 0.882953 0.928405 0.269464
H26   H     H_    0.802147 0.857203 0.011204 0.253401
H27   H     H_    0.908135 0.910174 0.896717 0.262131
H28   H     H_    0.955110 0.682635 0.903638 0.205368
H29   H     H_    0.866359 0.715152 0.825974 0.223587
C45   C     C_2   0.579997 0.376737 0.782231 0.403008
H30   H     H_    0.663339 0.374383 0.812030 0.073909
O13   O     O_2   0.590767 0.302635 0.719173 -0.534772

loop_
_geom_bond_atom_site_label_1
_geom_bond_atom_site_label_2
_ccdc_geom_bond_type
O5    Zn1   S    
C23   O5    A    
C16   C21   A    
C31   O8    A    
C30   H9    S    
C19   C20   A    
C44   H27   S    
C4    C8    A    
C14   C33   A    
C24   C39   S    
C41   H23   S    
C25   C28   A    
C23   O6    A    
C26   C27   A    
C32   C36   A    
C28   C29   S    
C44   H26   S    
C5    C11   A    
C3    C7    A    
C5    C6    A    
C22   H5    S    
C2    C36   A    
C8    C9    A    
O7    Zn1   S    
C34   C35   A    
O8    Zn2   S    
C24   C38   S    
C14   H11   S    
C11   C15   A    
C43   C44   S    
C16   C17   A    
O2    Zn2   S    
C35   H13   S    
C31   C33   S    
C39   C40   S    
C9    C10   A    
C43   H28   S    
C16   C24   S    
C21   C22   S    
C29   H7    S    
O4    Zn2   S    
C41   O11   D    
C43   H29   S    
C26   C41   S    
C38   H17   S    
C32   C35   A    
C44   H25   S    
C42   O12   D    
C40   H19   S    
C18   C19   A    
O1    Zn1   S    
C3    C34   A    
C10   C13   A    
C38   O10   D    
C37   O9    D    
C31   O7    A    
C2    C4    A    
C1    O1    A    
C29   C30   S    
C26   N1    A    
N2    Zn1   S    
C45   O13   D    
C15   C42   S    
C20   C23   S    
C22   H4    S    
C17   C18   A    
C7    H1    S    
C6    H14   S    
C8    H15   S    
C13   H2    S    
C12   O3    A    
C19   H3    S    
C9    C43   S    
C12   O4    A    
C29   H8    S    
C39   H22   S    
O3    Zn1   S    
C34   H12   S    
C36   C45   S    
C25   C30   S    
O6    Zn2   S    
C30   H10   S    
C42   H24   S    
N1    Zn2   S    
C40   H20   S    
C28   N2    A    
C27   N2    A    
C6    C7    A    
C1    C17   S    
C37   H16   S    
C2    C3    A    
C1    O2    A    
C25   N1    A    
C40   H18   S    
C27   H6    S    
C18   C37   S    
C45   H30   S    
C22   C24   S    
C10   C11   A    
C4    C5    A    
C20   C21   A    
C39   H21   S    
C13   C14   A    
C15   C33   A    
C12   C32   S    
