data_mof_unit_19090.cif
_audit_creation_date              2012-10-26T21:00:14-0400
_audit_creation_method            fapswitch 2.2
_symmetry_space_group_name_H-M    P1
_symmetry_Int_Tables_number       1
_space_group_crystal_system       triclinic
_cell_length_a                    19.294496
_cell_length_b                    8.684103
_cell_length_c                    7.498279
_cell_angle_alpha                 103.321578
_cell_angle_beta                  95.176909
_cell_angle_gamma                 93.040189
_cell_volume                      1214.04548495

loop_
_atom_site_label
_atom_site_type_symbol
_atom_type_description
_atom_site_fract_x
_atom_site_fract_y
_atom_site_fract_z
_atom_type_partial_charge
C1    C     C_R   0.497803 0.199666 0.452955 0.545972
C2    C     C_R   0.810350 0.446545 0.334028 0.083512
C3    C     C_R   0.145870 0.491245 0.501047 0.087727
C4    C     C_R   0.854130 0.508755 0.498953 0.087727
C5    C     C_R   0.175687 0.430546 0.335870 0.061063
C6    C     C_R   0.824312 0.569455 0.664130 0.061063
C7    C     C_R   0.248033 0.435064 0.337388 -0.091441
C8    C     C_R   0.751966 0.564936 0.662612 -0.091441
C9    C     C_R   0.291540 0.496032 0.501359 -0.034378
C10   C     C_R   0.708460 0.503968 0.498640 -0.034378
C11   C     C_R   0.930063 0.504740 0.498883 0.364430
C12   C     C_R   0.502197 0.800334 0.547045 0.545972
C13   C     C_R   0.069937 0.495261 0.501117 0.364430
C14   C     C_2   0.496656 0.031362 0.426951 -0.153026
C15   C     C_2   0.503344 0.968638 0.573048 -0.153026
C16   C     C_R   0.367558 0.498821 0.500663 0.541260
C17   C     C_R   0.632442 0.501179 0.499337 0.541259
C18   C     C_R   0.262080 0.554061 0.665263 -0.137398
C19   C     C_R   0.737920 0.445939 0.334737 -0.137398
C20   C     C_R   0.189650 0.553455 0.665972 0.083512
Cu1   Cu    Cu3+1 0.507710 0.517380 0.684380 0.990744
Cu2   Cu    Cu3+1 0.492290 0.482620 0.315620 0.990744
H1    H     H_    0.295164 0.601709 0.792966 0.132694
H2    H     H_    0.820388 0.448169 0.069010 0.247421
H3    H     H_    0.099321 0.451410 0.140119 0.257148
H4    H     H_    0.105476 0.264420 0.171466 0.270141
H5    H     H_    0.900679 0.548590 0.859881 0.257148
H6    H     H_    0.894524 0.735581 0.828534 0.270141
H7    H     H_    0.381798 0.383686 0.968801 0.215928
H8    H     H_    0.437488 0.240012 0.942089 0.213642
H9    H     H_    0.618202 0.616315 0.031200 0.215928
H10   H     H_    0.562512 0.759989 0.057911 0.213642
H11   H     H_    0.704836 0.398291 0.207034 0.132694
H12   H     H_    0.270169 0.389300 0.209601 0.145704
H13   H     H_    0.729831 0.610700 0.790399 0.145704
H14   H     H_    0.490250 0.958814 0.286604 0.129264
H15   H     H_    0.509750 0.041186 0.713396 0.129264
H16   H     H_    0.179183 0.732895 0.884589 0.239799
H17   H     H_    0.179612 0.551831 0.930990 0.247421
H18   H     H_    0.820817 0.267105 0.115412 0.239800
N1    N     N_R   0.026948 0.363963 0.422345 -0.233530
N2    N     N_3   0.866026 0.632119 0.836404 -0.634257
N3    N     N_3   0.429803 0.353301 0.922287 -0.445699
N4    N     N_3   0.570197 0.646700 0.077713 -0.445699
N5    N     N_R   0.973052 0.636037 0.577654 -0.233530
N6    N     N_R   0.958155 0.368617 0.421108 -0.181582
N7    N     N_R   0.041844 0.631383 0.578892 -0.181582
N8    N     N_2   0.480680 0.456420 0.038530 -0.024162
N9    N     N_2   0.519320 0.543580 0.961470 -0.024162
N10   N     N_3   0.160626 0.613921 0.835259 -0.599804
N11   N     N_3   0.839374 0.386079 0.164741 -0.599804
N12   N     N_3   0.133974 0.367881 0.163596 -0.634257
O1    O     O_R   0.505010 0.286130 0.619770 -0.477531
O2    O     O_R   0.494990 0.713870 0.380230 -0.477531
O3    O     O_R   0.491990 0.256780 0.308370 -0.513918
O4    O     O_R   0.508010 0.743220 0.691630 -0.513918
O5    O     O_R   0.406650 0.514660 0.655750 -0.479072
O6    O     O_R   0.593350 0.485340 0.344250 -0.479072
O7    O     O_R   0.393640 0.485310 0.344340 -0.520652
O8    O     O_R   0.606360 0.514690 0.655660 -0.520651

loop_
_geom_bond_atom_site_label_1
_geom_bond_atom_site_label_2
_ccdc_geom_bond_type
N4    N9    S    
Cu2   O6    S    
Cu1   O4    S    
C2    C4    A    
N1    N6    A    
C5    N12   S    
Cu1   O5    S    
Cu2   O3    S    
H16   N10   S    
H4    N12   S    
H18   N11   S    
C5    C7    A    
N3    N8    S    
C17   O6    A    
Cu2   N8    S    
C3    C13   S    
C12   C15   S    
C10   C19   A    
C13   N7    A    
H2    N11   S    
Cu1   N9    S    
H10   N4    S    
H3    N12   S    
C3    C20   A    
Cu2   O2    S    
Cu1   Cu2   S    
H7    N3    S    
C4    C11   S    
Cu1   O1    S    
H5    N2    S    
C12   O4    A    
C20   N10   S    
C13   N1    A    
N8    N9    D    
C9    C16   S    
C18   C20   A    
C16   O5    A    
N5    N7    A    
C1    O3    A    
C7    H12   S    
H8    N3    S    
C11   N5    A    
C4    C6    A    
C2    N11   S    
C10   C17   S    
C14   H14   S    
C18   H1    S    
C9    C18   A    
H17   N10   S    
Cu1   O8    S    
C8    C10   A    
H9    N4    S    
H6    N2    S    
Cu2   O7    S    
C7    C9    A    
C1    O1    A    
C14   C15   D    
C15   H15   S    
C11   N6    A    
C6    C8    A    
C1    C14   S    
C17   O8    A    
C2    C19   A    
C6    N2    S    
C8    H13   S    
C12   O2    A    
C19   H11   S    
C3    C5    A    
C16   O7    A    
