data_mof_unit_28632.cif
_audit_creation_date              2012-12-10T17:04:15-0500
_audit_creation_method            fapswitch 2.2
_symmetry_space_group_name_H-M    P1
_symmetry_Int_Tables_number       1
_space_group_crystal_system       triclinic
_cell_length_a                    18.883616
_cell_length_b                    18.685917
_cell_length_c                    18.988352
_cell_angle_alpha                 109.437774
_cell_angle_beta                  110.431026
_cell_angle_gamma                 108.973946
_cell_volume                      5129.66104222

loop_
_atom_site_label
_atom_site_type_symbol
_atom_type_description
_atom_site_fract_x
_atom_site_fract_y
_atom_site_fract_z
_atom_type_partial_charge
C1    C     C_R   0.617505 0.619891 0.499388 0.854467
C2    C     C_R   0.688072 0.771644 0.517828 -0.001722
C3    C     C_3   0.550416 0.997296 0.492047 -0.995659
C4    C     C_3   0.322328 0.056840 0.521540 0.042290
C5    C     C_3   0.415479 0.132036 0.584329 -0.801528
C6    C     C_3   0.628204 0.552119 0.142536 0.054874
C7    C     C_3   0.542411 0.513731 0.059152 -0.329697
C8    C     C_3   0.476100 0.422843 0.033399 -0.938407
C9    C     C_3   0.246161 0.330489 0.090019 0.064920
C10   C     C_3   0.280218 0.270071 0.058733 -0.305296
C11   C     C_3   0.238623 0.223937 0.960059 -0.948969
C12   C     C_3   0.074606 0.442171 0.568209 0.051041
C13   C     C_R   0.815303 0.815371 0.500477 -0.148661
C14   C     C_3   0.026540 0.478755 0.520872 -0.337385
C15   C     C_3   0.089216 0.570422 0.544855 -0.930328
C16   C     C_3   0.058257 0.322645 0.195958 0.083249
C17   C     C_3   0.092479 0.281769 0.247925 -0.374492
C18   C     C_3   0.045080 0.264373 0.296152 -0.909698
C19   C     C_3   0.483765 0.749838 0.514861 0.066824
C20   C     C_3   0.508406 0.772891 0.608844 -0.324612
C21   C     C_3   0.449105 0.801408 0.632797 -0.955887
C22   C     C_R   0.381599 0.500930 0.380385 0.843862
C23   C     C_R   0.811864 0.734769 0.483519 0.075689
C24   C     C_R   0.753139 0.675873 0.493854 0.058177
C25   C     C_R   0.685743 0.689658 0.502353 -0.203450
C26   C     C_R   0.868718 0.713128 0.460034 -0.148740
C27   C     C_R   0.874040 0.639627 0.456626 -0.139311
C28   C     C_R   0.824554 0.587665 0.478174 -0.139922
C29   C     C_R   0.765445 0.605751 0.497483 -0.140577
C30   C     C_3   0.180402 0.423037 0.207463 0.432123
C31   C     C_R   0.778204 0.660455 0.757025 -0.142045
C32   C     C_R   0.849888 0.739757 0.827982 -0.146082
C33   C     C_R   0.906342 0.741253 0.899416 -0.147158
C34   C     C_R   0.380107 0.380314 0.498242 0.764633
C35   C     C_R   0.892960 0.663303 0.899076 -0.139880
C36   C     C_R   0.824345 0.581191 0.824767 0.068343
C37   C     C_R   0.762331 0.580226 0.755690 0.073803
C38   C     C_R   0.817559 0.500684 0.816893 -0.195291
C39   C     C_R   0.748811 0.419947 0.741463 0.072233
C40   C     C_R   0.679688 0.418906 0.679297 0.069808
C41   C     C_3   0.227172 0.487731 0.306044 -0.335409
C42   C     C_R   0.687192 0.499424 0.686402 -0.192796
C43   C     C_R   0.748057 0.339842 0.725578 -0.140951
C44   C     C_R   0.677433 0.260497 0.653825 -0.139821
C45   C     C_R   0.605874 0.258846 0.597083 -0.146529
C46   C     C_R   0.618920 0.499236 0.619455 0.765437
C47   C     C_R   0.605724 0.336709 0.610349 -0.147070
C48   C     C_R   0.404339 0.395281 0.660627 -0.148710
C49   C     C_R   0.408294 0.421578 0.739563 -0.221962
C50   C     C_R   0.339073 0.373348 0.744190 -0.225620
C51   C     C_R   0.268961 0.291603 0.671689 0.458203
C52   C     C_3   0.314310 0.501079 0.311774 -0.078190
C53   C     C_R   0.259787 0.267740 0.587035 -0.026920
C54   C     C_R   0.326764 0.325068 0.582341 0.021487
C55   C     C_R   0.188972 0.189235 0.507558 -0.157610
C56   C     C_R   0.187750 0.168837 0.428012 0.006618
C57   C     C_R   0.246996 0.232349 0.422551 0.012259
C58   C     C_3   0.326484 0.578028 0.294677 -0.174243
C59   C     C_R   0.316501 0.311442 0.500386 -0.121985
C60   C     C_R   0.129488 0.084103 0.353898 -0.309403
C61   C     C_R   0.123068 0.063381 0.273125 0.390949
C62   C     C_R   0.175993 0.130063 0.265228 0.430852
C63   C     C_R   0.624016 0.792851 0.528225 0.502900
C64   C     C_R   0.235848 0.213326 0.339238 -0.281053
C65   C     C_R   0.004127 0.619498 0.122197 0.770627
C66   C     C_R   0.123268 0.499345 0.122453 0.805803
C67   C     C_R   0.003536 0.380823 0.885349 0.771109
C68   C     C_R   0.884459 0.500839 0.885086 0.767327
C69   C     C_R   0.999337 0.879993 0.382320 0.758371
C70   C     C_3   0.238192 0.564523 0.287442 -0.197971
C71   C     C_R   0.881629 0.880262 0.498648 0.769753
C72   C     C_R   0.998851 0.118243 0.617863 0.810609
C73   C     C_R   0.119141 0.123885 0.506090 0.863749
C74   C     C_R   0.646968 0.882469 0.567964 -0.277096
C75   C     C_R   0.166087 0.780505 0.268836 -0.302563
C76   C     C_R   0.241502 0.862193 0.329104 0.425122
C77   C     C_R   0.237578 0.930181 0.385293 0.421050
C78   C     C_R   0.157268 0.913045 0.380116 -0.330948
C79   C     C_R   0.080488 0.830787 0.318836 0.036951
C80   C     C_R   0.083408 0.765306 0.258190 0.014698
C81   C     C_R   0.000574 0.814232 0.315754 -0.130868
C82   C     C_3   0.191423 0.498902 0.189435 -0.092603
C83   C     C_R   0.921566 0.737419 0.246582 -0.013552
C84   C     C_R   0.922497 0.678087 0.178349 0.073542
C85   C     C_R   0.722463 0.946722 0.584242 -0.200172
C86   C     C_R   0.003692 0.688428 0.187418 -0.132867
C87   C     C_R   0.840958 0.719274 0.242912 -0.218391
C88   C     C_R   0.762070 0.648588 0.169854 0.506609
C89   C     C_R   0.762791 0.597101 0.097354 -0.248664
C90   C     C_R   0.841646 0.611051 0.101677 -0.219390
C91   C     C_R   0.985266 0.387363 0.729972 -0.213718
C92   C     C_R   0.990970 0.399693 0.663300 -0.244583
C93   C     C_R   0.010474 0.347474 0.609571 0.491625
C94   C     C_3   0.279105 0.513083 0.195794 -0.306482
C95   C     C_R   0.015121 0.277626 0.618239 -0.179698
C96   C     C_R   0.775820 0.924050 0.559327 -0.143228
C97   C     C_R   0.003643 0.260412 0.681984 0.006443
C98   C     C_R   0.996716 0.320810 0.743567 0.065632
C99   C     C_R   0.998279 0.184261 0.685080 -0.164966
C100  C     C_R   0.992614 0.171421 0.752889 0.058753
C101  C     C_R   0.000580 0.239180 0.822283 0.071370
C102  C     C_R   0.000373 0.312702 0.816265 -0.175063
C103  C     C_R   0.979045 0.092296 0.753380 -0.160675
C104  C     C_R   0.978948 0.083122 0.823167 -0.148063
C105  C     C_R   0.994904 0.152949 0.894896 -0.163230
C106  C     C_3   0.267171 0.436813 0.213860 0.450590
C107  C     C_R   0.759732 0.837042 0.525505 0.012621
C108  C     C_R   0.007639 0.230831 0.895673 -0.154954
C109  C     C_3   0.096107 0.062780 0.113375 0.129861
C110  C     C_3   0.098313 0.088163 0.045811 -0.854999
C111  C     C_3   0.251249 0.226086 0.754910 0.116419
C112  C     C_3   0.311609 0.188752 0.746415 -0.382383
C113  C     C_3   0.344739 0.167382 0.817961 -0.938757
C114  C     C_3   0.986272 0.939143 0.188452 0.043183
C115  C     C_3   0.925933 0.861031 0.096699 -0.794778
C116  C     C_3   0.386832 0.899561 0.397817 0.086007
C117  C     C_3   0.466863 0.978023 0.418924 -0.262673
Cu1   Cu    Cu3+1 0.500490 0.438210 0.438660 0.975299
Cu2   Cu    Cu3+1 0.499510 0.561790 0.561340 0.923714
Cu3   Cu    Cu3+1 0.942070 0.438200 0.003850 0.935028
Cu4   Cu    Cu3+1 0.065670 0.561760 0.003800 0.954062
Cu5   Cu    Cu3+1 0.062280 0.000030 0.562300 0.918743
Cu6   Cu    Cu3+1 0.937720 0.000000 0.437720 0.954106
H1    H     H_    0.225246 0.617595 0.316284 0.138059
H2    H     H_    0.961678 0.802986 0.954801 0.141868
H3    H     H_    0.379994 0.748010 0.588541 0.257469
H4    H     H_    0.937681 0.668855 0.957459 0.152588
H5    H     H_    0.387396 0.641540 0.329384 0.166752
H6    H     H_    0.802565 0.337323 0.766752 0.145797
H7    H     H_    0.678050 0.200088 0.642762 0.136315
H8    H     H_    0.547186 0.330993 0.565400 0.153342
H9    H     H_    0.462894 0.432072 0.662134 0.162276
H10   H     H_    0.465688 0.479603 0.797698 0.158288
H11   H     H_    0.343252 0.398077 0.806489 0.138856
H12   H     H_    0.091210 0.031339 0.359007 0.153999
H13   H     H_    0.737760 0.014401 0.612945 0.167510
H14   H     H_    0.299680 0.524944 0.150794 0.154956
H15   H     H_    0.273153 0.262159 0.329055 0.202500
H16   H     H_    0.702354 0.546086 0.037392 0.142309
H17   H     H_    0.174572 0.730668 0.229940 0.194992
H18   H     H_    0.154347 0.966291 0.421250 0.154230
H19   H     H_    0.837738 0.759456 0.296548 0.162332
H20   H     H_    0.837919 0.570211 0.043185 0.170737
H21   H     H_    0.996859 0.146934 0.950115 0.150419
H22   H     H_    0.969828 0.429433 0.769150 0.170840
H23   H     H_    0.980649 0.450310 0.654002 0.144957
H24   H     H_    0.831519 0.976577 0.569625 0.139999
H25   H     H_    0.028638 0.237876 0.574507 0.172710
H26   H     H_    0.966972 0.035990 0.699773 0.147514
H27   H     H_    0.968134 0.022174 0.822235 0.136750
H28   H     H_    0.023016 0.283701 0.954666 0.168134
H29   H     H_    0.209327 0.480384 0.354088 0.149124
H30   H     H_    0.831866 0.533044 0.479881 0.133922
H31   H     H_    0.606742 0.905137 0.585609 0.145289
H32   H     H_    0.043644 0.069389 0.124183 0.117481
H33   H     H_    0.080030 0.993262 0.085865 0.205747
H34   H     H_    0.147729 0.079278 0.030894 0.260248
H35   H     H_    0.910579 0.753322 0.445476 0.131334
H36   H     H_    0.033478 0.045589 0.985084 0.193009
H37   H     H_    0.114752 0.157624 0.070664 0.265583
H38   H     H_    0.200058 0.179696 0.758194 0.197416
H39   H     H_    0.286012 0.287036 0.818338 0.100388
H40   H     H_    0.276019 0.128061 0.682493 0.237867
H41   H     H_    0.368884 0.236984 0.751200 0.210700
H42   H     H_    0.380521 0.226885 0.882994 0.265161
H43   H     H_    0.389732 0.142921 0.811585 0.259356
H44   H     H_    0.289306 0.115814 0.812357 0.254487
H45   H     H_    0.983070 0.914350 0.233376 0.186300
H46   H     H_    0.918826 0.624701 0.440097 0.132373
H47   H     H_    0.961359 0.986157 0.194818 0.133790
H48   H     H_    0.923336 0.883382 0.048987 0.223857
H49   H     H_    0.859129 0.828067 0.085321 0.218941
H50   H     H_    0.949661 0.813385 0.087698 0.258397
H51   H     H_    0.397527 0.842548 0.384536 0.135608
H52   H     H_    0.378947 0.915293 0.455763 0.121341
H53   H     H_    0.472492 0.964369 0.360064 0.230896
H54   H     H_    0.458993 0.036638 0.438004 0.244902
H55   H     H_    0.546273 0.009294 0.551468 0.252206
H56   H     H_    0.606519 0.056229 0.507415 0.262691
H57   H     H_    0.732069 0.565526 0.517783 0.149296
H58   H     H_    0.561449 0.941088 0.470692 0.275332
H59   H     H_    0.309655 0.011768 0.547715 0.130977
H60   H     H_    0.279317 0.085839 0.519418 0.171133
H61   H     H_    0.427992 0.180994 0.562905 0.252418
H62   H     H_    0.425487 0.164403 0.650467 0.205536
H63   H     H_    0.461847 0.107217 0.586933 0.244560
H64   H     H_    0.614255 0.555249 0.195382 0.174564
H65   H     H_    0.655630 0.507281 0.133834 0.122769
H66   H     H_    0.514555 0.557717 0.069301 0.232845
H67   H     H_    0.554810 0.509170 0.005200 0.207646
H68   H     H_    0.550719 0.197052 0.541754 0.147241
H69   H     H_    0.502006 0.377288 0.021827 0.257876
H70   H     H_    0.414900 0.396884 0.972719 0.249294
H71   H     H_    0.460949 0.426354 0.085539 0.261688
H72   H     H_    0.261655 0.379606 0.069006 0.126027
H73   H     H_    0.174279 0.291394 0.059385 0.172271
H74   H     H_    0.352080 0.309169 0.089447 0.222704
H75   H     H_    0.266346 0.220360 0.079081 0.240290
H76   H     H_    0.167055 0.182221 0.927924 0.279111
H77   H     H_    0.265704 0.181614 0.939930 0.259948
H78   H     H_    0.252608 0.272661 0.938492 0.252821
H79   H     H_    0.737202 0.663079 0.702682 0.141065
H80   H     H_    0.123426 0.438878 0.549322 0.166643
H81   H     H_    0.112320 0.488132 0.639962 0.126951
H82   H     H_    0.992817 0.434624 0.449445 0.226987
H83   H     H_    0.976530 0.481481 0.537967 0.211464
H84   H     H_    0.122547 0.616151 0.615822 0.260557
H85   H     H_    0.052275 0.594845 0.509341 0.253136
H86   H     H_    0.138814 0.568984 0.526621 0.254569
H87   H     H_    0.988739 0.274504 0.145103 0.159834
H88   H     H_    0.058794 0.381679 0.237194 0.138226
H89   H     H_    0.082889 0.219085 0.202548 0.230091
H90   H     H_    0.861288 0.800312 0.827752 0.129526
H91   H     H_    0.163387 0.325548 0.295826 0.215512
H92   H     H_    0.055785 0.326784 0.343694 0.260485
H93   H     H_    0.070645 0.233714 0.331952 0.266545
H94   H     H_    0.974044 0.219144 0.249439 0.254405
H95   H     H_    0.416848 0.692778 0.472334 0.178859
H96   H     H_    0.477027 0.800521 0.499548 0.103405
H97   H     H_    0.501848 0.714569 0.615487 0.242463
H98   H     H_    0.577060 0.826247 0.655720 0.200889
H99   H     H_    0.455776 0.860762 0.628216 0.254043
H100  H     H_    0.467694 0.817010 0.700574 0.260179
O1    O     O_R   0.590580 0.537990 0.448200 -0.595633
O2    O     O_R   0.948140 0.909840 0.357940 -0.600308
O3    O     O_R   0.962430 0.909850 0.552620 -0.594738
O4    O     O_R   0.589760 0.642350 0.551790 -0.564556
O5    O     O_R   0.857240 0.909830 0.447420 -0.574510
O6    O     O_R   0.051860 0.090180 0.642080 -0.585522
O7    O     O_R   0.946670 0.090160 0.536880 -0.590834
O8    O     O_R   0.142760 0.090200 0.552610 -0.581981
O9    O     O_R   0.037570 0.090170 0.447410 -0.595481
O10   O     O_R   0.409540 0.447820 0.357340 -0.546036
O11   O     O_R   0.408720 0.552180 0.460940 -0.593496
O12   O     O_R   0.055380 0.642340 0.093300 -0.586562
O13   O     O_R   0.410240 0.357650 0.448210 -0.590709
O14   O     O_R   0.409420 0.462010 0.551800 -0.589135
O15   O     O_R   0.591280 0.447820 0.539060 -0.591984
O16   O     O_R   0.590460 0.552180 0.642660 -0.598757
O17   O     O_R   0.951000 0.537990 0.093340 -0.587143
O18   O     O_3   0.179388 0.116205 0.189957 -0.568901
O19   O     O_3   0.209492 0.236863 0.683401 -0.621394
O20   O     O_3   0.072538 0.977264 0.204577 -0.589567
O21   O     O_3   0.314427 0.877503 0.321282 -0.591414
O22   O     O_3   0.310855 0.013784 0.438013 -0.570834
O23   O     O_R   0.042560 0.447800 0.094700 -0.574963
O24   O     O_3   0.685203 0.638956 0.167693 -0.614499
O25   O     O_3   0.286689 0.370613 0.181347 -0.590197
O26   O     O_3   0.014560 0.355641 0.540889 -0.615464
O27   O     O_3   0.104216 0.339471 0.153255 -0.636395
O28   O     O_3   0.539310 0.724951 0.491408 -0.618239
O29   O     O_R   0.146930 0.552150 0.094670 -0.585143
O30   O     O_R   0.952370 0.357620 0.914350 -0.594279
O31   O     O_R   0.056740 0.461970 0.914310 -0.581714
O32   O     O_R   0.860810 0.447810 0.912980 -0.590104
O33   O     O_R   0.965190 0.552160 0.912950 -0.589951
O34   O     O_R   0.053330 0.909870 0.463140 -0.594060

loop_
_geom_bond_atom_site_label_1
_geom_bond_atom_site_label_2
_ccdc_geom_bond_type
C61   O20   S    
C40   C47   A    
C63   O28   S    
C87   C88   A    
C116  O21   S    
C58   H5    S    
C101  C102  A    
C82   C94   S    
C71   O5    A    
C53   C55   A    
C83   C87   A    
C18   H92   S    
C111  H38   S    
C5    H62   S    
C55   C56   A    
C17   H89   S    
C34   O13   A    
C105  H21   S    
C114  C115  S    
C9    H73   S    
Cu2   O4    S    
C7    C8    S    
Cu2   O16   S    
C41   H29   S    
C64   H15   S    
C77   C78   A    
C56   C57   A    
C48   C54   A    
Cu5   O8    S    
C13   C23   A    
C26   C27   A    
C84   C90   A    
C57   C64   A    
C1    O1    A    
C115  H50   S    
C69   O34   A    
C36   C37   A    
C76   O21   S    
C3    H55   S    
C84   C86   A    
C75   H17   S    
C113  H42   S    
C38   C39   A    
C85   C96   A    
C23   C26   A    
C72   O7    A    
C44   H7    S    
Cu5   O3    S    
C6    H65   S    
C2    C107  A    
C116  C117  S    
C74   H31   S    
C17   C18   S    
C11   H78   S    
C12   H80   S    
C104  H27   S    
C37   C42   A    
C34   O14   A    
C109  H33   S    
C3    H56   S    
C11   H77   S    
C104  C105  A    
C31   H79   S    
C80   C86   A    
C3    C117  S    
C81   C83   A    
Cu3   O30   S    
C45   H68   S    
C96   H24   S    
C94   C106  S    
Cu6   O9    S    
C83   C84   A    
C93   O26   S    
C16   C17   S    
C89   H16   S    
C29   H57   S    
C62   C64   A    
C20   H98   S    
C30   C41   S    
C8    H71   S    
C109  O18   S    
C21   H100  S    
C9    C10   S    
C27   H46   S    
C41   C52   S    
C15   H85   S    
C13   C107  A    
Cu1   O15   S    
C101  C108  A    
C45   C47   A    
C114  O20   S    
C52   C106  S    
C91   C98   A    
C22   O11   A    
C87   H19   S    
Cu1   Cu2   S    
C1    C25   S    
C20   H97   S    
C7    H67   S    
C111  H39   S    
Cu3   O23   S    
C5    H63   S    
C109  H32   S    
C10   H75   S    
C112  C113  S    
C97   C99   A    
C117  H54   S    
C97   C98   A    
C54   C59   A    
C67   O30   A    
C112  H41   S    
C105  C108  A    
C66   O29   A    
C21   H99   S    
C4    H60   S    
C39   C40   A    
Cu1   O1    S    
C111  C112  S    
C6    O24   S    
C65   C86   S    
C69   C81   S    
C24   C25   A    
C115  H48   S    
C50   H11   S    
C78   H18   S    
C91   C92   A    
C79   C81   A    
C16   O27   S    
C78   C79   A    
C58   C70   S    
Cu4   O29   S    
C39   C43   A    
Cu6   O5    S    
C13   C71   S    
Cu4   O12   S    
C53   C54   A    
C92   H23   S    
C6    H64   S    
C16   H88   S    
C100  C103  A    
C12   O26   S    
C30   O27   S    
C31   C37   A    
C60   C61   A    
C51   C53   A    
C35   C36   A    
C30   C82   S    
C75   C76   A    
C70   H1    S    
C66   C82   S    
C22   O10   A    
C68   O33   A    
Cu5   O34   S    
C40   C42   A    
C99   C100  A    
C43   H6    S    
C23   C24   A    
C46   O15   A    
C15   H84   S    
C20   C21   S    
C33   H2    S    
C50   C51   A    
C8    H70   S    
C65   O17   A    
C19   H95   S    
C46   O16   A    
C76   C77   A    
C35   H4    S    
C92   C93   A    
C3    H58   S    
C60   H12   S    
C110  H34   S    
C52   C58   S    
Cu3   O17   S    
C32   H90   S    
C117  H53   S    
C48   C49   A    
C96   C107  A    
C12   C14   S    
C111  O19   S    
C18   H93   S    
C14   H83   S    
C43   C44   A    
C42   C46   S    
C34   C59   S    
C71   O3    A    
C51   O19   S    
C19   H96   S    
C17   H91   S    
C89   C90   A    
Cu4   O31   S    
C91   H22   S    
C110  H37   S    
C44   C45   A    
C62   O18   S    
C22   C52   S    
C66   O23   A    
C67   O31   A    
C114  H47   S    
C112  H40   S    
C49   H10   S    
C2    C63   A    
C28   C29   A    
C5    H61   S    
C116  H52   S    
C14   C15   S    
C108  H28   S    
C10   H74   S    
C65   O12   A    
C31   C32   A    
Cu2   O14   S    
C95   H25   S    
C90   H20   S    
C9    O25   S    
C38   C68   S    
C115  H49   S    
C69   O2    A    
C113  H44   S    
Cu4   O33   S    
C95   C97   A    
C114  H45   S    
C6    C7    S    
Cu6   O2    S    
C63   C74   A    
Cu5   O6    S    
C116  H51   S    
Cu2   O11   S    
C106  O25   S    
C32   C33   A    
C19   C20   S    
C36   C38   A    
C1    O4    A    
Cu5   Cu6   S    
Cu3   O32   S    
C113  H43   S    
C15   H86   S    
C98   C102  A    
C9    H72   S    
C88   O24   S    
Cu1   O10   S    
C19   O28   S    
Cu1   O13   S    
C28   H30   S    
Cu6   O7    S    
C8    H69   S    
C4    C5    S    
C16   H87   S    
C100  C101  A    
C33   C35   A    
C26   H35   S    
C2    C25   A    
C77   O22   S    
C12   H81   S    
C74   C85   A    
C58   C94   S    
C61   C62   A    
C70   C82   S    
C11   H76   S    
C4    O22   S    
C7    H66   S    
C57   C59   A    
C10   C11   S    
C103  H26   S    
C85   H13   S    
C79   C80   A    
C55   C73   S    
C56   C60   A    
C24   C29   A    
C75   C80   A    
C88   C89   A    
C93   C95   A    
C49   C50   A    
C14   H82   S    
C47   H8    S    
C103  C104  A    
C94   H14   S    
C72   O6    A    
Cu3   Cu4   S    
C48   H9    S    
C68   O32   A    
C73   O8    A    
C4    H59   S    
C21   H3    S    
C109  C110  S    
C18   H94   S    
C73   O9    A    
C30   C106  S    
C110  H36   S    
C67   C102  S    
C41   C70   S    
C27   C28   A    
C72   C99   S    
