data_mof_unit_14833.cif
_audit_creation_date              2012-12-11T14:39:37-0500
_audit_creation_method            fapswitch 2.2
_symmetry_space_group_name_H-M    P1
_symmetry_Int_Tables_number       1
_space_group_crystal_system       triclinic
_cell_length_a                    7.255923
_cell_length_b                    13.994283
_cell_length_c                    16.333783
_cell_angle_alpha                 90.000073
_cell_angle_beta                  97.121963
_cell_angle_gamma                 89.999957
_cell_volume                      1645.75923254

loop_
_atom_site_label
_atom_site_type_symbol
_atom_type_description
_atom_site_fract_x
_atom_site_fract_y
_atom_site_fract_z
_atom_type_partial_charge
O1    O     O_R   0.525340 0.338340 0.164530 -0.537660
O2    O     O_R   0.474660 0.661660 0.835470 -0.537660
O3    O     O_R   0.974660 0.838340 0.835470 -0.537659
O4    O     O_R   0.025340 0.161660 0.164530 -0.537659
O5    O     O_R   0.253520 0.352000 0.336710 -0.548800
O6    O     O_R   0.746480 0.648000 0.663290 -0.548800
O7    O     O_R   0.246480 0.852000 0.663290 -0.548802
O8    O     O_R   0.753520 0.148000 0.336710 -0.548802
O9    O     O_R   0.083330 0.168380 0.337300 -0.537506
O10   O     O_R   0.916670 0.831620 0.662700 -0.537506
O11   O     O_R   0.416670 0.668380 0.662700 -0.537509
O12   O     O_R   0.583330 0.331620 0.337300 -0.537509
C1    C     C_R   0.431638 0.364617 0.366526 0.702591
C2    C     C_R   0.568362 0.635383 0.633474 0.702591
C3    C     C_R   0.068362 0.864617 0.633473 0.702592
C4    C     C_R   0.931638 0.135383 0.366526 0.702592
O13   O     O_R   0.195840 0.349670 0.165140 -0.541154
O14   O     O_R   0.804160 0.650330 0.834860 -0.541153
O15   O     O_R   0.304160 0.849670 0.834860 -0.541150
O16   O     O_R   0.695840 0.150330 0.165140 -0.541150
C5    C     C_R   0.357352 0.371890 0.137785 0.744306
C6    C     C_R   0.642648 0.628110 0.862215 0.744306
C7    C     C_R   0.142648 0.871891 0.862214 0.744312
C8    C     C_R   0.857352 0.128109 0.137786 0.744312
O17   O     O_3   0.387830 0.193120 0.250910 -0.374972
O18   O     O_3   0.612170 0.806880 0.749090 -0.374972
O19   O     O_3   0.112170 0.693120 0.749090 -0.374976
O20   O     O_3   0.887830 0.306880 0.250910 -0.374976
V1    V     V_3+5 0.113010 0.264540 0.250910 1.381879
V2    V     V_3+5 0.886990 0.735460 0.749090 1.381879
V3    V     V_3+5 0.386990 0.764540 0.749090 1.381880
V4    V     V_3+5 0.613010 0.235460 0.250910 1.381880
H1    H     H_    0.877492 0.821587 0.249252 0.125784
H2    H     H_    0.122508 0.178413 0.750748 0.125784
H3    H     H_    0.622509 0.321587 0.750745 0.125789
H4    H     H_    0.377491 0.678412 0.249255 0.125789
C9    C     C_R   0.001963 0.201285 0.543647 0.143758
C10   C     C_R   0.998037 0.798715 0.456353 0.143758
C11   C     C_R   0.498033 0.701285 0.456353 0.143763
C12   C     C_R   0.501967 0.298715 0.543646 0.143763
C13   C     C_R   0.048096 0.226132 0.626921 -0.072407
C14   C     C_R   0.951904 0.773868 0.373079 -0.072407
C15   C     C_R   0.451892 0.726132 0.373080 -0.072409
C16   C     C_R   0.548108 0.273868 0.626920 -0.072409
C17   C     C_R   0.088471 0.157406 0.686854 -0.189733
C18   C     C_R   0.911529 0.842594 0.313146 -0.189733
C19   C     C_R   0.411528 0.657406 0.313148 -0.189738
C20   C     C_R   0.588472 0.342594 0.686851 -0.189738
C21   C     C_R   0.082762 0.061830 0.665733 -0.138121
C22   C     C_R   0.917238 0.938170 0.334267 -0.138121
C23   C     C_R   0.417250 0.561829 0.334268 -0.138125
C24   C     C_R   0.582750 0.438171 0.665732 -0.138125
C25   C     C_R   0.040308 0.031375 0.582701 0.038351
C26   C     C_R   0.959692 0.968625 0.417299 0.038351
C27   C     C_R   0.459696 0.531374 0.417300 0.038349
C28   C     C_R   0.540303 0.468626 0.582700 0.038349
C29   C     C_R   0.002020 0.101438 0.519284 0.032073
C30   C     C_R   0.997980 0.898562 0.480716 0.032073
C31   C     C_R   0.497980 0.601438 0.480716 0.032076
C32   C     C_R   0.502020 0.398562 0.519284 0.032076
C33   C     C_R   0.035516 0.931867 0.563958 -0.155587
C34   C     C_R   0.964484 0.068132 0.436042 -0.155587
C35   C     C_R   0.464485 0.431867 0.436042 -0.155588
C36   C     C_R   0.535515 0.568133 0.563958 -0.155588
H5    H     H_    0.051481 0.300170 0.646514 0.125423
H6    H     H_    0.948519 0.699830 0.353486 0.125423
H7    H     H_    0.448498 0.800171 0.353488 0.125424
H8    H     H_    0.551502 0.199829 0.646512 0.125424
H9    H     H_    0.113006 0.012178 0.716301 0.111109
H10   H     H_    0.886994 0.987821 0.283699 0.111108
H11   H     H_    0.387024 0.512177 0.283701 0.111106
H12   H     H_    0.612976 0.487823 0.716299 0.111106
H13   H     H_    0.137050 0.066624 0.056351 0.159307
H14   H     H_    0.862950 0.933376 0.943649 0.159307
H15   H     H_    0.362910 0.566551 0.943594 0.159310
H16   H     H_    0.637090 0.433448 0.056406 0.159310
C37   C     C_2   0.149436 0.942115 0.930482 -0.339945
C38   C     C_2   0.850564 0.057884 0.069517 -0.339945
C39   C     C_2   0.350557 0.442101 0.069506 -0.339938
C40   C     C_2   0.649443 0.557899 0.930494 -0.339939
C41   C     C_2   0.996308 0.965548 0.965530 -0.129768
C42   C     C_2   0.003692 0.034452 0.034470 -0.129768
C43   C     C_2   0.503702 0.465566 0.034484 -0.129772
C44   C     C_2   0.496298 0.534434 0.965516 -0.129772
H17   H     H_    0.717639 0.025753 0.046808 0.127504
H18   H     H_    0.282361 0.974247 0.953192 0.127504
H19   H     H_    0.782393 0.525814 0.953240 0.127498
H20   H     H_    0.217607 0.474186 0.046760 0.127498
C45   C     C_3   0.949449 0.285288 0.486934 -0.756065
H21   H     H_    0.943233 0.353690 0.521052 0.196749
H22   H     H_    0.049116 0.297070 0.442581 0.216526
H23   H     H_    0.810986 0.275225 0.453406 0.216360
C46   C     C_3   0.050550 0.714712 0.513066 -0.756064
H24   H     H_    0.056767 0.646310 0.478948 0.196749
H25   H     H_    0.189014 0.724775 0.546594 0.216360
H26   H     H_    0.950884 0.702930 0.557419 0.216526
C47   C     C_3   0.550546 0.785288 0.513065 -0.756075
H27   H     H_    0.556745 0.853689 0.478947 0.196751
H28   H     H_    0.450890 0.797067 0.557422 0.216527
H29   H     H_    0.689013 0.775228 0.546590 0.216360
C48   C     C_3   0.449454 0.214712 0.486935 -0.756075
H30   H     H_    0.443255 0.146310 0.521053 0.196751
H31   H     H_    0.310986 0.224771 0.453410 0.216360
H32   H     H_    0.549110 0.202933 0.442578 0.216527

loop_
_geom_bond_atom_site_label_1
_geom_bond_atom_site_label_2
_ccdc_geom_bond_type
O1    C5    A    
C46   H24   S    
C12   C32   A    
C27   C31   A    
O13   V1    S    
O3    C7    A    
C40   C44   D    
O15   V3    S    
C41   C42   S    
C29   C34   A    
C31   C36   A    
C22   C26   A    
C4    C34   S    
C32   C35   A    
O20   V1    S    
O9    C4    A    
C10   C14   A    
C40   H19   S    
O10   C3    A    
O16   V4    S    
O4    C8    A    
O11   C2    A    
H15   C44   S    
C11   C47   S    
H4    C19   S    
C14   C18   A    
O10   V2    S    
C12   C48   S    
C10   C30   A    
C25   C33   A    
O16   C8    A    
C27   C35   A    
O2    C6    A    
C28   C36   A    
O14   V2    S    
C37   C41   D    
C45   H22   S    
O5    C1    A    
O4    V1    S    
O9    V1    S    
C30   C33   A    
O7    C3    A    
O11   V3    S    
O18   V3    S    
O8    C4    A    
C21   H9    S    
O12   V4    S    
O19   V2    S    
H1    C18   S    
C23   H11   S    
H3    C20   S    
H16   C43   S    
C39   H20   S    
C47   H28   S    
C47   H27   S    
O5    V1    S    
C11   C15   A    
O7    V3    S    
O8    V4    S    
C48   H30   S    
C25   C29   A    
C19   C23   A    
C26   C34   A    
O1    V4    S    
O13   C5    A    
C28   C32   A    
O2    V3    S    
O3    V2    S    
O15   C7    A    
C15   H7    S    
C24   H12   S    
O6    C2    A    
C38   C42   D    
C43   C44   S    
C1    C35   S    
C17   C21   A    
C11   C31   A    
C5    C39   S    
C3    C33   S    
H2    C17   S    
C7    C37   S    
C45   H23   S    
C2    C36   S    
C38   H17   S    
C8    C38   S    
O6    V2    S    
C37   H18   S    
C48   H32   S    
C16   H8    S    
H14   C41   S    
H13   C42   S    
C47   H29   S    
C26   C30   A    
O14   C6    A    
C13   H5    S    
C46   H26   S    
C18   C22   A    
C9    C45   S    
C22   H10   S    
C6    C40   S    
C39   C43   D    
C46   H25   S    
O17   V4    S    
C21   C25   A    
C10   C46   S    
C23   C27   A    
C9    C13   A    
C16   C20   A    
C12   C16   A    
O12   C1    A    
C48   H31   S    
C14   H6    S    
C13   C17   A    
C45   H21   S    
C20   C24   A    
C15   C19   A    
C9    C29   A    
C24   C28   A    
