data_mof_unit_17053.cif
_audit_creation_date              2013-03-05T16:04:29-0500
_audit_creation_method            fapswitch 2.2
_symmetry_space_group_name_H-M    P1
_symmetry_Int_Tables_number       1
_space_group_crystal_system       triclinic
_cell_length_a                    10.81855
_cell_length_b                    9.524301
_cell_length_c                    15.034719
_cell_angle_alpha                 89.963399
_cell_angle_beta                  90.132968
_cell_angle_gamma                 89.951797
_cell_volume                      1549.1592762

loop_
_atom_site_label
_atom_site_type_symbol
_atom_site_description
_atom_site_fract_x
_atom_site_fract_y
_atom_site_fract_z
_atom_type_partial_charge
O1    O     O_R   0.319640 0.618740 0.499990 -0.588786
O2    O     O_R   0.680360 0.381260 0.500010 -0.588786
O3    O     O_R   0.680360 0.618740 0.500010 -0.591651
O4    O     O_R   0.319640 0.381260 0.499990 -0.591652
C1    C     C_R   0.262091 0.500039 0.499588 0.769755
C2    C     C_R   0.737909 0.499961 0.500412 0.769756
O5    O     O_R   0.499970 0.618800 0.370260 -0.576225
O6    O     O_R   0.500030 0.381200 0.629740 -0.576226
O7    O     O_R   0.500030 0.618800 0.629740 -0.576938
O8    O     O_R   0.499970 0.381200 0.370260 -0.576938
C3    C     C_R   0.501289 0.500042 0.329128 0.816430
C4    C     C_R   0.498711 0.499958 0.670872 0.816430
Cu1   Cu    Cu3+1 0.500000 0.640660 0.500000 0.944444
Cu2   Cu    Cu3+1 0.500000 0.359340 0.500000 0.944443
C5    C     C_R   0.605260 0.518781 0.811961 -0.300210
C6    C     C_R   0.394740 0.481219 0.188039 -0.300211
C7    C     C_R   0.494092 0.499826 0.767067 -0.052101
C8    C     C_R   0.505908 0.500174 0.232933 -0.052101
C9    C     C_R   0.382116 0.481033 0.813262 0.133757
C10   C     C_R   0.617884 0.518967 0.186738 0.133757
C11   C     C_R   0.384662 0.481157 0.907417 0.068684
C12   C     C_R   0.615338 0.518843 0.092583 0.068684
C13   C     C_R   0.498656 0.499983 0.953039 -0.019280
C14   C     C_R   0.501344 0.500017 0.046961 -0.019280
C15   C     C_R   0.609890 0.518807 0.904799 0.113655
C16   C     C_R   0.390110 0.481193 0.095201 0.113655
C17   C     C_R   0.275612 0.463044 0.956895 -0.207032
C18   C     C_R   0.724387 0.536956 0.043105 -0.207032
C19   C     C_R   0.276760 0.462959 0.049680 0.183091
C20   C     C_R   0.723240 0.537041 0.950320 0.183091
C21   C     C_R   0.064014 0.372417 0.501264 -0.187696
C22   C     C_R   0.935986 0.627583 0.498736 -0.187696
C23   C     C_R   0.936216 0.372376 0.501536 -0.184670
C24   C     C_R   0.063784 0.627624 0.498464 -0.184670
C25   C     C_R   0.871749 0.499957 0.500277 -0.016587
C26   C     C_R   0.128251 0.500043 0.499723 -0.016586
C27   C     C_R   0.421087 0.074526 0.446246 -0.018755
C28   C     C_R   0.578913 0.925474 0.553754 -0.018755
C29   C     C_R   0.578912 0.074269 0.553754 -0.018625
C30   C     C_R   0.421088 0.925731 0.446246 -0.018626
N1    N     N_R   0.500000 0.852070 0.500000 -0.158141
N2    N     N_R   0.500000 0.147930 0.500000 -0.158141
H1    H     H_    0.688335 0.532766 0.772857 0.148911
H2    H     H_    0.311665 0.467234 0.227143 0.148911
C31   C     C_3   0.261035 0.462549 0.763064 -0.869083
H3    H     H_    0.271006 0.465855 0.689899 0.228412
H4    H     H_    0.219532 0.359310 0.779901 0.230848
H5    H     H_    0.195945 0.548028 0.781255 0.229210
C32   C     C_3   0.738965 0.537451 0.236936 -0.869083
H6    H     H_    0.728993 0.534145 0.310101 0.228412
H7    H     H_    0.804055 0.451972 0.218745 0.229210
H8    H     H_    0.780468 0.640690 0.220099 0.230848
H9    H     H_    0.187678 0.448670 0.923847 0.160267
H10   H     H_    0.812322 0.551330 0.076153 0.160267
C33   C     C_3   0.155661 0.443465 0.098223 -0.896613
H11   H     H_    0.076443 0.430664 0.051790 0.228707
H12   H     H_    0.160133 0.347934 0.140497 0.236040
H13   H     H_    0.136447 0.536673 0.140347 0.233027
C34   C     C_3   0.844339 0.556535 0.901777 -0.896614
H14   H     H_    0.923557 0.569336 0.948210 0.228707
H15   H     H_    0.863552 0.463327 0.859653 0.233027
H16   H     H_    0.839867 0.652066 0.859503 0.236040
H17   H     H_    0.112206 0.272678 0.502313 0.149707
H18   H     H_    0.887794 0.727322 0.497687 0.149707
H19   H     H_    0.888206 0.272624 0.502778 0.148990
H20   H     H_    0.111794 0.727375 0.497222 0.148990
H21   H     H_    0.357873 0.130668 0.403148 0.119073
H22   H     H_    0.642127 0.869332 0.596852 0.119073
H23   H     H_    0.642127 0.130206 0.596848 0.119389
H24   H     H_    0.357873 0.869794 0.403152 0.119389

loop_
_geom_bond_atom_site_label_1
_geom_bond_atom_site_label_2
_geom_bond_distance
_ccdc_geom_bond_type
C4    C7    1.447242 S    
O4    Cu2   1.962196 S    
O6    Cu2   1.961816 S    
C13   C14   1.412325 A    
C17   H9    1.081084 S    
C3    C8    1.447242 S    
C15   C20   1.413833 A    
C10   C32   1.520675 S    
C17   C19   1.395024 A    
C19   C33   1.512683 S    
C22   C25   1.400894 A    
C6    H2    1.083378 S    
C8    C10   1.409268 A    
O3    Cu1   1.962195 S    
C34   H15   1.110583 S    
O6    C4    1.289533 A    
Cu2   N2    2.013533 S    
C32   H8    1.110616 S    
C21   C23   1.382604 A    
C20   C34   1.512683 S    
C24   H20   1.083329 S    
C33   H11   1.110957 S    
Cu1   N1    2.013532 S    
C29   H23   1.081812 S    
C23   H19   1.083329 S    
C34   H14   1.110957 S    
C33   H12   1.110491 S    
C12   C18   1.406842 A    
C31   H3    1.105977 S    
O5    C3    1.289535 A    
O2    C2    1.291116 A    
C30   H24   1.081811 S    
C16   C19   1.413834 A    
O1    C1    1.291117 A    
C27   H21   1.081825 S    
C18   C20   1.395024 A    
C30   N1    1.367201 A    
C9    C11   1.415807 A    
C10   C12   1.415807 A    
C29   N2    1.367199 A    
C24   C26   1.400635 A    
C31   H4    1.110616 S    
C11   C13   1.421311 A    
C11   C17   1.406842 A    
C28   C29   1.417173 A    
O2    Cu2   1.962544 S    
O7    C4    1.289563 A    
C12   C14   1.421311 A    
C5    C15   1.396589 A    
O1    Cu1   1.962545 S    
O8    C3    1.289563 A    
C5    H1    1.083378 S    
C27   C30   1.417173 A    
C1    C26   1.447959 S    
C21   H17   1.083318 S    
O5    Cu1   1.961816 S    
C13   C15   1.417939 A    
C2    C25   1.447959 S    
C22   H18   1.083318 S    
C28   N1    1.367220 A    
C6    C8    1.389732 A    
C32   H6    1.105977 S    
O8    Cu2   1.961551 S    
C33   H13   1.110583 S    
C27   N2    1.367222 A    
C5    C7    1.389731 A    
O7    Cu1   1.961551 S    
C21   C26   1.400894 A    
C7    C9    1.409269 A    
C34   H16   1.110491 S    
C18   H10   1.081084 S    
C31   H5    1.110706 S    
C23   C25   1.400635 A    
Cu1   Cu2   2.679376 S    
O3    C2    1.290836 A    
C9    C31   1.520675 S    
C14   C16   1.417939 A    
C28   H22   1.081825 S    
O4    C1    1.290835 A    
C32   H7    1.110706 S    
C6    C16   1.396589 A    
C22   C24   1.382604 A    
