data_mof_unit_60896.cif
_audit_creation_date              2012-12-10T19:13:17-0500
_audit_creation_method            fapswitch 2.2
_symmetry_space_group_name_H-M    P1
_symmetry_Int_Tables_number       1
_space_group_crystal_system       triclinic
_cell_length_a                    15.995799
_cell_length_b                    14.777788
_cell_length_c                    10.989868
_cell_angle_alpha                 89.993122
_cell_angle_beta                  90.022599
_cell_angle_gamma                 89.998087
_cell_volume                      2597.81254164

loop_
_atom_site_label
_atom_site_type_symbol
_atom_type_description
_atom_site_fract_x
_atom_site_fract_y
_atom_site_fract_z
_atom_type_partial_charge
C1    C     C_R   0.340858 0.499981 0.500013 0.827698
C2    C     C_R   0.659142 0.499978 0.499987 0.827607
C3    C     C_R   0.525005 0.952988 0.605277 0.408332
C4    C     C_R   0.474987 0.953008 0.394726 0.408309
C5    C     C_R   0.499996 0.903011 0.500002 -0.179408
C6    C     C_R   0.475427 0.048673 0.396534 -0.140491
C7    C     C_R   0.524572 0.048653 0.603464 -0.140550
C8    C     C_R   0.500001 0.097496 0.499998 -0.138117
C9    C     C_1   0.499998 0.802592 0.500001 0.126029
C10   C     C_1   0.500000 0.197412 0.499999 0.212341
C11   C     C_R   0.496521 0.499893 0.264955 0.780307
C12   C     C_R   0.503452 0.499879 0.735040 0.780410
C13   C     C_2   0.491291 0.429209 0.934049 0.302930
C14   C     C_2   0.508315 0.429146 0.065937 0.302935
C15   C     C_2   0.518390 0.499220 0.866015 0.254848
C16   C     C_2   0.481535 0.499290 0.133976 0.254670
C17   C     C_R   0.956371 0.582110 0.499839 -0.161783
C18   C     C_R   0.043621 0.582112 0.499813 -0.161791
C19   C     C_R   0.912782 0.499976 0.500024 0.147413
C20   C     C_R   0.087218 0.499980 0.499973 0.147410
C21   C     C_R   0.956379 0.417844 0.500182 -0.162679
C22   C     C_R   0.043629 0.417846 0.500157 -0.162659
C23   C     C_1   0.823322 0.499974 0.500029 -0.050972
C24   C     C_1   0.176678 0.499982 0.499969 -0.050961
C25   C     C_1   0.251730 0.499983 0.499982 -0.147694
C26   C     C_1   0.748270 0.499975 0.500017 -0.147741
Cu1   Cu    Cu3+1 0.500000 0.589220 0.500000 1.000253
Cu2   Cu    Cu3+1 0.500000 0.410780 0.500000 1.039637
H1    H     H_    0.077014 0.645905 0.499672 0.147968
H2    H     H_    0.922970 0.645902 0.499714 0.147970
H3    H     H_    0.922986 0.354051 0.500323 0.147305
H4    H     H_    0.077030 0.354054 0.500284 0.147315
H5    H     H_    0.543779 0.085137 0.684334 0.177248
H6    H     H_    0.456222 0.085173 0.315662 0.177288
N1    N     N_1   0.500000 0.276710 0.500000 -0.141417
N2    N     N_1   0.500000 0.723290 0.500000 -0.147518
O1    O     O_R   0.380310 0.575320 0.500020 -0.571245
O2    O     O_R   0.619690 0.575320 0.499980 -0.571226
O3    O     O_R   0.380310 0.424640 0.499970 -0.568426
O4    O     O_R   0.619690 0.424640 0.500030 -0.568490
O5    O     O_R   0.500000 0.575320 0.321940 -0.589864
O6    O     O_R   0.500000 0.575320 0.678060 -0.589704
O7    O     O_R   0.500000 0.424640 0.321880 -0.533553
O8    O     O_R   0.500000 0.424640 0.678120 -0.533791
O9    O     O_3   0.447578 0.358281 0.881906 -0.737475
H7    H     H_    0.430719 0.315931 0.947477 0.332162
O10   O     O_3   0.551727 0.357979 0.118055 -0.737377
H8    H     H_    0.568395 0.315561 0.052474 0.332162
O11   O     O_3   0.564858 0.567675 0.919746 -0.716170
H9    H     H_    0.584596 0.609972 0.855946 0.336324
O12   O     O_3   0.435352 0.567981 0.080229 -0.716152
H10   H     H_    0.415877 0.610443 0.143981 0.336548
O13   O     O_3   0.550436 0.912194 0.712312 -0.704376
H11   H     H_    0.548487 0.845623 0.704096 0.336328
O14   O     O_3   0.449552 0.912235 0.287692 -0.704399
H12   H     H_    0.451472 0.845662 0.295919 0.336284

loop_
_geom_bond_atom_site_label_1
_geom_bond_atom_site_label_2
_ccdc_geom_bond_type
C9    N2    T    
C1    C25   S    
O14   H12   S    
C12   C15   S    
Cu2   O4    S    
C11   O7    A    
C14   O10   S    
Cu1   N2    S    
C21   H3    S    
C11   C16   S    
C2    O2    A    
Cu2   O7    S    
C18   C20   A    
O10   H8    S    
C16   O12   S    
C1    O1    A    
C13   C15   D    
C17   C18   A    
C7    C8    A    
C2    C26   S    
C18   H1    S    
C21   C22   A    
C3    O13   S    
C13   O9    S    
C17   H2    S    
C7    H5    S    
Cu1   O6    S    
C5    C9    S    
C10   N1    T    
C22   H4    S    
Cu1   O1    S    
C8    C10   S    
C17   C19   A    
C20   C22   A    
C11   O5    A    
C3    C7    A    
C15   O11   S    
C4    O14   S    
C20   C24   S    
C14   C16   D    
O9    H7    S    
C1    O3    A    
Cu1   O2    S    
C12   O6    A    
O12   H10   S    
C2    O4    A    
C24   C25   T    
Cu2   N1    S    
C4    C6    A    
O11   H9    S    
C23   C26   T    
Cu1   Cu2   S    
Cu1   O5    S    
C19   C23   S    
C12   O8    A    
C6    C8    A    
Cu2   O3    S    
C19   C21   A    
C13   C14   S    
Cu2   O8    S    
C6    H6    S    
O13   H11   S    
C4    C5    A    
C3    C5    A    
