data_mof_unit_61389.cif
_audit_creation_date              2012-12-11T14:24:05-0500
_audit_creation_method            fapswitch 2.2
_symmetry_space_group_name_H-M    P1
_symmetry_Int_Tables_number       1
_space_group_crystal_system       triclinic
_cell_length_a                    6.950119
_cell_length_b                    17.468838
_cell_length_c                    18.883662
_cell_angle_alpha                 105.255336
_cell_angle_beta                  89.577681
_cell_angle_gamma                 90.386445
_cell_volume                      2211.79998685

loop_
_atom_site_label
_atom_site_type_symbol
_atom_type_description
_atom_site_fract_x
_atom_site_fract_y
_atom_site_fract_z
_atom_type_partial_charge
O1    O     O_R   0.494360 0.416740 0.414860 -0.535030
O2    O     O_R   0.818980 0.432970 0.557290 -0.527917
O3    O     O_R   0.994290 0.583260 0.585140 -0.531683
C1    C     C_R   0.649917 0.415907 0.580591 0.715880
O4    O     O_R   0.823740 0.407570 0.413690 -0.549576
O5    O     O_R   0.999090 0.557670 0.440510 -0.521490
C2    C     C_R   0.654221 0.383202 0.388212 0.654422
O6    O     O_R   0.489560 0.442330 0.559490 -0.524002
O7    O     O_3   0.662450 0.549280 0.508970 -0.355046
V1    V     V_3+5 0.935350 0.490860 0.498340 1.438669
O8    O     O_R   0.329100 0.567030 0.442710 -0.523710
C3    C     C_R   0.161013 0.584055 0.419376 0.728224
O9    O     O_R   0.324330 0.592430 0.586310 -0.537674
C4    C     C_R   0.154707 0.613365 0.614228 0.756094
V2    V     V_3+5 0.435960 0.509140 0.501660 1.452545
O10   O     O_3   0.158990 0.450720 0.491030 -0.369173
C5    C     C_2   0.268111 0.775733 0.791637 0.314088
C6    C     C_2   0.117095 0.826149 0.813741 0.145181
C7    C     C_2   0.284604 0.719727 0.717380 -0.096328
C8    C     C_2   0.137428 0.674166 0.684762 -0.299477
H1    H     H_    0.426694 0.710716 0.692311 0.179031
H2    H     H_    0.998702 0.678733 0.712279 0.194806
C9    C     C_1   0.110556 0.863896 0.132624 -0.190928
C10   C     C_1   0.118163 0.821328 0.176186 0.011834
C11   C     C_1   0.127772 0.771116 0.228075 0.011647
C12   C     C_1   0.135994 0.728835 0.271873 0.013995
C13   C     C_1   0.145598 0.678621 0.323760 0.017787
C14   C     C_1   0.153195 0.636050 0.367321 -0.192266
C15   C     C_1   0.641157 0.363930 0.632585 -0.206666
C16   C     C_1   0.636786 0.321323 0.676137 0.010871
C17   C     C_1   0.633171 0.271083 0.728024 0.013170
C18   C     C_1   0.630459 0.228775 0.771848 0.017087
C19   C     C_1   0.626856 0.178560 0.823757 0.024409
C20   C     C_1   0.622506 0.135994 0.867347 -0.180473
C21   C     C_2   0.766081 0.210592 0.217364 -0.169214
C22   C     C_2   0.614687 0.191431 0.171355 0.286651
H3    H     H_    0.890244 0.171758 0.209085 0.113156
C23   C     C_2   0.777817 0.284534 0.278437 -0.088460
C24   C     C_2   0.637764 0.307847 0.329595 0.179761
H4    H     H_    0.909692 0.319117 0.282636 0.120708
O11   O     O_R   0.774180 0.057760 0.940580 -0.523396
O12   O     O_R   0.439830 0.092440 0.086330 -0.515646
O13   O     O_R   0.264640 0.942310 0.059470 -0.525172
C25   C     C_R   0.608568 0.116790 0.111901 0.643021
O14   O     O_R   0.444740 0.067040 0.942730 -0.527646
O15   O     O_R   0.269590 0.916730 0.914840 -0.521076
C26   C     C_R   0.613788 0.084074 0.919393 0.740494
O16   O     O_R   0.769230 0.083340 0.085210 -0.558465
O17   O     O_3   0.601340 0.950770 0.991070 -0.337493
V3    V     V_3+5 0.328370 0.009130 0.001660 1.543233
O18   O     O_R   0.939550 0.907490 0.913620 -0.503267
C27   C     C_R   0.109106 0.885522 0.886122 0.763312
O19   O     O_R   0.934640 0.932890 0.057220 -0.531364
C28   C     C_R   0.102726 0.915891 0.080572 0.702145
V4    V     V_3+5 0.827780 0.990750 0.998250 1.543309
O20   O     O_3   0.104690 0.049230 0.008930 -0.368242
Cl1   Cl    Cl    0.463441 0.772616 0.850163 -0.605198
Cl2   Cl    Cl    0.929587 0.833671 0.752976 -0.631058
Cl3   Cl    Cl    0.424083 0.258882 0.173610 -0.632598
N1    N     N_2   0.474113 0.258073 0.330210 -0.458707
H5    H     H_    0.348505 0.288436 0.347848 0.278639
C29   C     C_3   0.506306 0.195613 0.366019 -0.557343
H6    H     H_    0.375632 0.157676 0.360952 0.202107
H7    H     H_    0.537038 0.221506 0.425219 0.175424
H8    H     H_    0.628543 0.157685 0.339863 0.204081

loop_
_geom_bond_atom_site_label_1
_geom_bond_atom_site_label_2
_ccdc_geom_bond_type
O5    V1    S    
O16   V4    S    
O2    C1    A    
O8    C3    A    
O13   V3    S    
C15   C16   T    
O1    V2    S    
O9    C4    A    
O7    V1    S    
O15   V3    S    
O13   C28   A    
C7    C8    D    
O9    V2    S    
C1    O6    A    
C22   Cl3   S    
O17   V4    S    
C18   C19   S    
V4    O20   S    
O14   C26   A    
C5    C6    D    
O7    V2    S    
C6    C27   S    
O4    V1    S    
C1    C15   S    
O3    V1    S    
V1    O10   S    
O19   C28   A    
C23   H4    S    
C25   O16   A    
C12   C13   S    
C16   C17   S    
O3    C4    A    
O12   C25   A    
O14   V3    S    
O12   V3    S    
C24   N1    S    
O5    C3    A    
C5    C7    S    
C3    C14   S    
C19   C20   T    
O6    V2    S    
O18   V4    S    
C9    C28   S    
O19   V4    S    
O11   C26   A    
C23   C24   D    
C22   C25   S    
C9    C10   T    
V2    O10   S    
O2    V1    S    
O15   C27   A    
C21   C23   S    
O18   C27   A    
C10   C11   S    
C4    C8    S    
N1    C29   S    
O17   V3    S    
C5    Cl1   S    
C13   C14   T    
O4    C2    A    
C2    C24   S    
O11   V4    S    
C29   H7    S    
C20   C26   S    
C29   H8    S    
C21   H3    S    
C11   C12   T    
O1    C2    A    
O8    V2    S    
C6    Cl2   S    
C17   C18   T    
V3    O20   S    
C29   H6    S    
C21   C22   D    
C8    H2    S    
N1    H5    S    
C7    H1    S    
