data_mof_unit_32301.cif
_audit_creation_date              2012-12-10T18:51:31-0500
_audit_creation_method            fapswitch 2.2
_symmetry_space_group_name_H-M    P1
_symmetry_Int_Tables_number       1
_space_group_crystal_system       triclinic
_cell_length_a                    10.64238
_cell_length_b                    9.868356
_cell_length_c                    10.502796
_cell_angle_alpha                 90.339526
_cell_angle_beta                  90.077256
_cell_angle_gamma                 90.079697
_cell_volume                      1103.01153737

loop_
_atom_site_label
_atom_site_type_symbol
_atom_type_description
_atom_site_fract_x
_atom_site_fract_y
_atom_site_fract_z
_atom_type_partial_charge
C1    C     C_R   0.872001 0.500628 0.498636 -0.130205
C2    C     C_R   0.127999 0.499372 0.501364 -0.130205
C3    C     C_R   0.260600 0.499855 0.500958 0.924045
C4    C     C_R   0.739400 0.500145 0.499042 0.924045
C5    C     C_R   0.498813 0.499620 0.257277 0.842966
C6    C     C_R   0.501187 0.500379 0.742723 0.842966
C7    C     C_3   0.399841 0.570271 0.041606 -0.180410
C8    C     C_3   0.600159 0.429729 0.958394 -0.180410
C9    C     C_3   0.507239 0.628979 0.960203 -0.134190
C10   C     C_3   0.492761 0.371021 0.039797 -0.134190
C11   C     C_3   0.393670 0.442365 0.956485 -0.181433
C12   C     C_3   0.606330 0.557635 0.043515 -0.181433
C13   C     C_3   0.501036 0.501014 0.877730 0.036742
C14   C     C_3   0.498964 0.498986 0.122269 0.036742
C15   C     C_R   0.574247 0.072476 0.582794 -0.063308
C16   C     C_R   0.425753 0.927524 0.417206 -0.063308
C17   C     C_R   0.425762 0.071239 0.417194 -0.071566
C18   C     C_R   0.574237 0.928760 0.582806 -0.071566
C19   C     C_R   0.064738 0.534001 0.614830 0.156656
C20   C     C_R   0.935262 0.465999 0.385170 0.156656
C21   C     C_R   0.933735 0.534995 0.613119 0.143503
C22   C     C_R   0.066265 0.465005 0.386881 0.143503
H1    H     H_    0.633702 0.127254 0.649064 0.126891
H2    H     H_    0.366298 0.872746 0.350936 0.126891
H3    H     H_    0.366339 0.125027 0.350908 0.121641
H4    H     H_    0.633661 0.874973 0.649092 0.121641
H5    H     H_    0.307418 0.394828 0.916821 0.137380
H6    H     H_    0.692581 0.605172 0.083179 0.137380
H7    H     H_    0.318642 0.628603 0.078893 0.131308
H8    H     H_    0.681358 0.371397 0.921107 0.131308
H9    H     H_    0.513332 0.734186 0.923793 0.140724
H10   H     H_    0.486668 0.265814 0.076207 0.140724
N1    N     N_R   0.500000 0.857200 0.500000 -0.079654
N2    N     N_R   0.500000 0.142800 0.500000 -0.079654
O1    O     O_R   0.316770 0.614620 0.499990 -0.616479
O2    O     O_R   0.683230 0.385380 0.500010 -0.616479
O3    O     O_R   0.683230 0.614620 0.500010 -0.616961
O4    O     O_R   0.316770 0.385380 0.499990 -0.616961
O5    O     O_R   0.499970 0.614650 0.313950 -0.621920
O6    O     O_R   0.500030 0.385350 0.686050 -0.621920
O7    O     O_R   0.500030 0.614650 0.686050 -0.631127
O8    O     O_R   0.499970 0.385350 0.313950 -0.631128
Zn1   Zn    Zn3+2 0.500000 0.653120 0.500000 0.941415
Zn2   Zn    Zn3+2 0.500000 0.346880 0.500000 0.941415
C23   C     C_3   0.135299 0.567644 0.737151 -0.893494
H11   H     H_    0.238644 0.562369 0.728837 0.231396
H12   H     H_    0.112204 0.672342 0.768439 0.246583
H13   H     H_    0.108694 0.494624 0.812506 0.229451
C24   C     C_3   0.864701 0.432355 0.262849 -0.893494
H14   H     H_    0.761356 0.437630 0.271163 0.231396
H15   H     H_    0.891305 0.505375 0.187493 0.229450
H16   H     H_    0.887797 0.327657 0.231561 0.246583
C25   C     C_3   0.857106 0.569878 0.731410 -0.894377
H17   H     H_    0.792909 0.484568 0.753221 0.217467
H18   H     H_    0.912988 0.589349 0.818395 0.242941
H19   H     H_    0.800527 0.662332 0.713983 0.244015
C26   C     C_3   0.142894 0.430122 0.268590 -0.894376
H20   H     H_    0.207091 0.515432 0.246779 0.217467
H21   H     H_    0.199473 0.337667 0.286017 0.244015
H22   H     H_    0.087012 0.410651 0.181605 0.242941

loop_
_geom_bond_atom_site_label_1
_geom_bond_atom_site_label_2
_ccdc_geom_bond_type
O3    Zn1   S    
C15   C18   A    
C21   C25   S    
C5    O8    A    
C19   C23   S    
O4    Zn2   S    
C20   C24   S    
C7    H7    S    
C11   H5    S    
C16   N1    A    
O1    Zn1   S    
O7    Zn1   S    
C15   N2    A    
C17   N2    A    
C18   H4    S    
C3    O1    A    
C8    C12   S    
C24   H16   S    
C17   H3    S    
C1    C4    S    
C22   C26   S    
C15   H1    S    
C2    C3    S    
C26   H20   S    
C8    H8    S    
C16   H2    S    
C2    C22   A    
C6    C13   S    
C1    C21   A    
C11   C13   S    
C5    C14   S    
C8    C13   S    
O8    Zn2   S    
C12   H6    S    
C19   C21   A    
C12   C14   S    
C7    C11   S    
C10   C11   S    
C23   H12   S    
C18   N1    A    
C6    O6    A    
C26   H21   S    
O2    Zn2   S    
C9    C12   S    
C9    H9    S    
C25   H18   S    
N1    Zn1   S    
C10   H10   S    
O6    Zn2   S    
N2    Zn2   S    
C4    O3    A    
C8    C10   S    
C24   H14   S    
C10   C14   S    
C25   H19   S    
C7    C9    S    
C5    O5    A    
C9    C13   S    
C26   H22   S    
O5    Zn1   S    
C23   H13   S    
C24   H15   S    
C2    C19   A    
C25   H17   S    
C6    O7    A    
C7    C14   S    
C3    O4    A    
C20   C22   A    
C16   C17   A    
C1    C20   A    
C4    O2    A    
C23   H11   S    
