data_mof_unit_39450.cif
_audit_creation_date              2012-12-11T17:23:14-0500
_audit_creation_method            fapswitch 2.2
_symmetry_space_group_name_H-M    P1
_symmetry_Int_Tables_number       1
_space_group_crystal_system       triclinic
_cell_length_a                    22.228083
_cell_length_b                    7.088003
_cell_length_c                    19.690766
_cell_angle_alpha                 89.999767
_cell_angle_beta                  99.253487
_cell_angle_gamma                 89.99998
_cell_volume                      3061.96175673

loop_
_atom_site_label
_atom_site_type_symbol
_atom_type_description
_atom_site_fract_x
_atom_site_fract_y
_atom_site_fract_z
_atom_type_partial_charge
O1    O     O_R   0.443980 0.494320 0.557430 -0.537849
O2    O     O_R   0.556020 0.994320 0.442570 -0.537850
O3    O     O_R   0.441210 0.822520 0.414610 -0.540000
O4    O     O_R   0.558790 0.322520 0.585390 -0.539999
C1    C     C_R   0.426393 0.655019 0.389579 0.679625
C2    C     C_R   0.573607 0.155018 0.610421 0.679624
O5    O     O_R   0.436920 0.823940 0.555180 -0.536442
O6    O     O_R   0.563080 0.323940 0.444820 -0.536442
O7    O     O_R   0.551700 0.995760 0.584140 -0.536235
O8    O     O_R   0.448300 0.495760 0.415860 -0.536234
C3    C     C_R   0.421586 0.655433 0.574819 0.727480
C4    C     C_R   0.578414 0.155434 0.425181 0.727479
O9    O     O_3   0.537660 0.661290 0.509340 -0.371651
O10   O     O_3   0.462340 0.161290 0.490660 -0.371650
V1    V     V_3+5 0.493010 0.935560 0.498270 1.446232
V2    V     V_3+5 0.506990 0.435560 0.501730 1.446233
C5    C     C_R   0.756930 0.948825 0.212753 -0.143796
C6    C     C_R   0.243069 0.448825 0.787248 -0.143797
H1    H     H_    0.761330 0.823488 0.182361 0.178910
H2    H     H_    0.238670 0.323488 0.817640 0.178908
C7    C     C_R   0.796127 0.101748 0.207643 0.054278
C8    C     C_R   0.203873 0.601747 0.792356 0.054280
C9    C     C_R   0.790442 0.266695 0.247082 0.002785
C10   C     C_R   0.209557 0.766695 0.752917 0.002787
C11   C     C_R   0.746241 0.271786 0.291029 -0.144803
C12   C     C_R   0.253759 0.771786 0.708970 -0.144804
C13   C     C_R   0.707125 0.118915 0.296098 0.063385
C14   C     C_R   0.292875 0.618915 0.703902 0.063386
C15   C     C_R   0.712269 0.955253 0.256276 -0.030323
C16   C     C_R   0.287731 0.455253 0.743724 -0.030323
C17   C     C_1   0.841326 0.084307 0.161718 0.069040
C18   C     C_1   0.158673 0.584308 0.838282 0.069039
C19   C     C_1   0.661900 0.134374 0.342098 -0.024969
C20   C     C_1   0.338100 0.634374 0.657902 -0.024969
C21   C     C_1   0.624053 0.145649 0.380173 -0.154762
C22   C     C_1   0.375947 0.645648 0.619827 -0.154761
C23   C     C_1   0.879020 0.071762 0.123501 -0.041452
C24   C     C_1   0.120979 0.571763 0.876499 -0.041455
C25   C     C_R   0.622016 0.104614 0.801574 -0.077434
C26   C     C_R   0.377983 0.604638 0.198425 -0.077433
C27   C     C_R   0.611924 0.143459 0.678695 -0.115503
C28   C     C_R   0.388075 0.643463 0.321305 -0.115503
C29   C     C_R   0.907520 0.060582 0.762050 -0.117517
C30   C     C_R   0.092480 0.560569 0.237949 -0.117517
C31   C     C_R   0.870450 0.014313 0.699205 -0.064822
C32   C     C_R   0.129550 0.514295 0.300794 -0.064821
C33   C     C_R   0.806335 0.002350 0.695111 -0.031471
C34   C     C_R   0.193666 0.502337 0.304888 -0.031471
C35   C     C_R   0.778387 0.053220 0.752944 -0.015705
C36   C     C_R   0.221614 0.553217 0.247056 -0.015706
C37   C     C_R   0.816069 0.063535 0.819268 -0.005430
C38   C     C_R   0.183931 0.563537 0.180732 -0.005427
C39   C     C_R   0.713566 0.084763 0.747281 0.055873
C40   C     C_R   0.286434 0.584766 0.252719 0.055873
C41   C     C_R   0.685745 0.078555 0.807143 0.054188
C42   C     C_R   0.314255 0.578571 0.192856 0.054190
C43   C     C_R   0.721927 0.053348 0.872029 -0.071338
C44   C     C_R   0.278073 0.553368 0.127970 -0.071340
C45   C     C_R   0.786152 0.058605 0.878417 -0.071716
C46   C     C_R   0.213848 0.558615 0.121583 -0.071716
C47   C     C_R   0.675619 0.130658 0.684050 -0.224036
C48   C     C_R   0.324381 0.630654 0.315951 -0.224036
C49   C     C_R   0.584726 0.130880 0.738100 -0.054253
C50   C     C_R   0.415273 0.630899 0.261900 -0.054254
C51   C     C_R   0.881756 0.069562 0.823324 -0.100954
C52   C     C_R   0.118244 0.569559 0.176676 -0.100954
O11   O     O_R   0.051730 0.724670 0.084120 -0.528105
O12   O     O_R   0.948270 0.224670 0.915880 -0.528103
O13   O     O_R   0.063080 0.393540 0.944820 -0.497679
O14   O     O_R   0.936920 0.893540 0.055180 -0.497679
C53   C     C_R   0.075886 0.561638 0.922207 0.742340
C54   C     C_R   0.924114 0.061638 0.077793 0.742335
O15   O     O_R   0.058800 0.395030 0.085390 -0.538072
O16   O     O_R   0.941200 0.895030 0.914610 -0.538072
O17   O     O_R   0.943980 0.223310 0.057440 -0.549527
O18   O     O_R   0.056020 0.723310 0.942560 -0.549529
C55   C     C_R   0.074378 0.563659 0.110284 0.736593
C56   C     C_R   0.925622 0.063659 0.889716 0.736589
O19   O     O_3   0.962360 0.556290 0.990650 -0.373059
O20   O     O_3   0.037640 0.056290 0.009350 -0.373061
V3    V     V_3+5 0.006980 0.281990 0.001730 1.591064
V4    V     V_3+5 0.993020 0.781990 0.998270 1.591065
C57   C     C_2   0.671324 0.790796 0.259451 0.426373
H3    H     H_    0.638157 0.790728 0.294283 0.057995
O21   O     O_2   0.673885 0.652952 0.222817 -0.507773
C58   C     C_2   0.328676 0.290796 0.740550 0.426371
H4    H     H_    0.361843 0.290729 0.705719 0.057996
O22   O     O_2   0.326114 0.152950 0.777184 -0.507773
C59   C     C_2   0.769436 0.911712 0.633929 0.433265
H5    H     H_    0.734238 0.810919 0.641163 0.044665
O23   O     O_2   0.775557 0.955881 0.575479 -0.507020
C60   C     C_2   0.230565 0.411693 0.366068 0.433265
H6    H     H_    0.265764 0.310904 0.358834 0.044665
O24   O     O_2   0.224444 0.455853 0.424519 -0.507019
C61   C     C_2   0.900174 0.973378 0.638277 0.466192
H7    H     H_    0.932322 0.073504 0.622760 0.040640
O25   O     O_2   0.891552 0.823751 0.607524 -0.494400
C62   C     C_2   0.099827 0.473349 0.361721 0.466193
H8    H     H_    0.067678 0.573471 0.377240 0.040639
O26   O     O_2   0.108450 0.323719 0.392473 -0.494400
C63   C     C_2   0.820104 0.047941 0.948534 0.299792
H9    H     H_    0.844111 0.171449 0.970886 0.028962
O27   O     O_2   0.819025 0.903082 0.981882 -0.518104
C64   C     C_2   0.179896 0.547948 0.051466 0.299788
H10   H     H_    0.155890 0.671456 0.029112 0.028962
O28   O     O_2   0.180974 0.403087 0.018120 -0.518105
C65   C     C_2   0.828801 0.437775 0.244520 0.399037
H11   H     H_    0.822891 0.557686 0.277136 0.054140
O29   O     O_2   0.866807 0.449096 0.206354 -0.520881
C66   C     C_2   0.171198 0.937773 0.755477 0.399034
H12   H     H_    0.177110 0.057689 0.722863 0.054144
O30   O     O_2   0.133187 0.949089 0.793637 -0.520885
H13   H     H_    0.741948 0.397076 0.321524 0.130002
H14   H     H_    0.258052 0.897075 0.678474 0.130001
C67   C     C_2   0.517511 0.148950 0.734750 0.419201
H15   H     H_    0.488146 0.176995 0.686265 0.023103
O31   O     O_2   0.493878 0.132623 0.786314 -0.490652
C68   C     C_2   0.482488 0.648978 0.265250 0.419202
H16   H     H_    0.511853 0.677016 0.313735 0.023102
O32   O     O_2   0.506121 0.632666 0.213685 -0.490653
C69   C     C_2   0.693230 0.028065 0.935044 0.471813
H17   H     H_    0.709029 0.110382 0.980941 0.065795
O33   O     O_2   0.654053 0.908302 0.937027 -0.492608
C70   C     C_2   0.306769 0.528095 0.064955 0.471809
H18   H     H_    0.290969 0.610413 0.019058 0.065790
O34   O     O_2   0.345949 0.408339 0.062971 -0.492606
H19   H     H_    0.600399 0.107570 0.846908 0.198701
H20   H     H_    0.399600 0.607605 0.153091 0.198702
H21   H     H_    0.694640 0.160989 0.638162 0.133977
H22   H     H_    0.305360 0.660975 0.361839 0.133976
C71   C     C_2   0.974839 0.078707 0.764170 0.371634
H23   H     H_    0.998277 0.990241 0.731821 0.072219
O35   O     O_2   0.004440 0.196757 0.800348 -0.508939
C72   C     C_2   0.025161 0.578690 0.235829 0.371633
H24   H     H_    0.001723 0.490219 0.268178 0.072210
O36   O     O_2   0.995559 0.696741 0.199653 -0.508938

loop_
_geom_bond_atom_site_label_1
_geom_bond_atom_site_label_2
_ccdc_geom_bond_type
C1    C28   S    
C63   H9    S    
C13   C15   A    
C5    C15   A    
C48   H22   S    
C30   C52   A    
C61   H7    S    
O1    C3    A    
C27   C47   A    
O2    C4    A    
C29   C51   A    
C2    O7    A    
C64   O28   D    
C38   C52   A    
C33   C35   A    
C13   C19   S    
O5    C3    A    
C7    C17   S    
C36   C40   A    
C8    C18   S    
O12   V3    S    
C3    C22   S    
C10   C12   A    
C15   C57   S    
C53   O18   A    
C62   H8    S    
C58   O22   D    
C43   C45   A    
C44   C46   A    
C67   H15   S    
C26   H20   S    
C50   C68   S    
C37   C51   A    
C35   C37   A    
O13   C53   A    
C66   H12   S    
C38   C46   A    
C5    H1    S    
C68   H16   S    
C39   C47   A    
C25   C41   A    
C26   C42   A    
C2    C27   S    
O11   C55   A    
C36   C38   A    
C65   H11   S    
C6    C16   A    
C18   C24   T    
C16   C58   S    
C28   C48   A    
C20   C22   T    
C47   H21   S    
O3    C1    A    
C49   C67   S    
O5    V1    S    
C32   C62   S    
C14   C20   S    
O6    V2    S    
C30   C72   S    
C65   O29   D    
O16   V4    S    
C54   O17   A    
O15   V3    S    
C64   H10   S    
C30   C32   A    
C68   O32   D    
C39   C41   A    
C7    C9    A    
O12   C56   A    
C40   C42   A    
C25   H19   S    
C45   C63   S    
C10   C66   S    
O20   V4    S    
O18   V4    S    
O19   V3    S    
C58   H4    S    
O17   V3    S    
C72   O36   D    
C40   C48   A    
C67   O31   D    
C5    C7    A    
C17   C23   T    
O4    V2    S    
C12   H14   S    
C11   H13   S    
C57   H3    S    
O6    C4    A    
C9    C65   S    
C60   O24   D    
O1    V2    S    
C4    C21   S    
O2    V1    S    
C29   C31   A    
C69   H17   S    
O4    C2    A    
C57   O21   D    
C33   C59   S    
C62   O26   D    
C41   C43   A    
C34   C60   S    
C8    C10   A    
C23   C54   S    
C37   C45   A    
C27   C49   A    
C71   H23   S    
C31   C61   S    
C28   C50   A    
O3    V1    S    
C70   O34   D    
C52   C55   S    
C24   C53   S    
C51   C56   S    
C6    C8    A    
C44   C70   S    
O20   V3    S    
C71   O35   D    
O19   V4    S    
C61   O25   D    
C72   H24   S    
C11   C13   A    
C25   C49   A    
C12   C14   A    
C26   C50   A    
C29   C71   S    
O7    V1    S    
C14   C16   A    
O8    V2    S    
C35   C39   A    
C34   C36   A    
C60   H6    S    
C19   C21   T    
C42   C44   A    
C6    H2    S    
C9    C11   A    
O14   V4    S    
C66   O30   D    
C69   O33   D    
O13   V3    S    
C43   C69   S    
C32   C34   A    
C1    O8    A    
C31   C33   A    
O11   V4    S    
C63   O27   D    
C59   O23   D    
O16   C56   A    
O9    V2    S    
O15   C55   A    
O10   V1    S    
O14   C54   A    
C59   H5    S    
C46   C64   S    
C70   H18   S    
