data_mof_unit_67055.cif
_audit_creation_date              2013-03-05T15:58:16-0500
_audit_creation_method            fapswitch 2.2
_symmetry_space_group_name_H-M    P1
_symmetry_Int_Tables_number       1
_space_group_crystal_system       triclinic
_cell_length_a                    8.309882
_cell_length_b                    12.852227
_cell_length_c                    14.49372
_cell_angle_alpha                 93.295731
_cell_angle_beta                  90.576711
_cell_angle_gamma                 99.095444
_cell_volume                      1525.65724585

loop_
_atom_site_label
_atom_site_type_symbol
_atom_site_description
_atom_site_fract_x
_atom_site_fract_y
_atom_site_fract_z
_atom_type_partial_charge
P1    P     P_3+3 0.054400 0.427280 0.286870 0.514402
O1    O     O_2   0.887370 0.460630 0.272300 -0.325686
O2    O     O_3   0.129410 0.451380 0.388510 -0.383310
O3    O     O_3   0.670210 0.653170 0.329170 -0.347854
O4    O     O_2   0.748054 0.550973 0.171893 -0.357590
O5    O     O_3   0.007208 0.289418 0.271804 -0.546764
O6    O     O_3   0.756436 0.744621 0.151476 -0.460510
H1    H     H_    0.760275 0.893006 0.208406 0.102763
C1    C     C_3   0.658144 0.879568 0.069159 -0.678631
H2    H     H_    0.602839 0.952267 0.079790 0.180727
P2    P     P_3+3 0.668300 0.742890 0.573060 0.441730
P3    P     P_3+3 0.129352 0.844424 0.387243 0.493146
O7    O     O_2   0.845380 0.761330 0.544970 -0.383237
O8    O     O_3   0.088930 0.704860 0.376040 -0.318547
O9    O     O_2   0.998494 0.884574 0.448031 -0.389179
O10   O     O_3   0.684604 0.762757 0.693401 -0.560971
O11   O     O_3   0.093946 0.894978 0.280853 -0.518529
C2    C     C_3   0.232829 0.899471 0.225443 0.396176
H3    H     H_    0.347117 0.893468 0.263346 0.000529
C3    C     C_3   0.261629 0.006642 0.182972 -0.971366
H4    H     H_    0.150800 0.021922 0.146245 0.290674
H5    H     H_    0.293526 0.068666 0.239213 0.267465
C4    C     C_3   0.203825 0.765032 0.654727 0.318844
H6    H     H_    0.332960 0.767427 0.636258 0.063777
H7    H     H_    0.122004 0.731560 0.596139 0.136031
C5    C     C_3   0.171829 0.876749 0.676532 -0.822557
H8    H     H_    0.246991 0.913043 0.737052 0.261367
H9    H     H_    0.200621 0.924978 0.616212 0.256523
H10   H     H_    0.041969 0.875166 0.694177 0.246352
Ba1   Ba    Ba6+2 0.855630 0.555280 0.454520 1.613450
C6    C     C_3   0.968846 0.244131 0.355948 0.369243
H11   H     H_    0.857919 0.270567 0.383784 0.064746
H12   H     H_    0.069916 0.266390 0.407118 0.125832
C7    C     C_3   0.944825 0.123992 0.339988 -0.701490
H13   H     H_    0.043604 0.101340 0.296356 0.231119
H14   H     H_    0.953657 0.087407 0.406766 0.170544
C8    C     C_3   0.728714 0.674166 0.732522 0.449721
H15   H     H_    0.828459 0.644624 0.694065 0.077168
H16   H     H_    0.621347 0.610717 0.733232 0.137115
C9    C     C_3   0.787492 0.706459 0.831429 -0.886586
H17   H     H_    0.908047 0.757679 0.831082 0.275998
H18   H     H_    0.796770 0.636229 0.870751 0.218997
H19   H     H_    0.701295 0.751758 0.867244 0.281860
P4    P     P_3+3 0.135310 0.572810 0.713130 0.470150
O12   O     O_2   0.302330 0.539400 0.727760 -0.329807
O13   O     O_3   0.060300 0.548700 0.611500 -0.436869
O14   O     O_3   0.519500 0.346920 0.670840 -0.337519
O15   O     O_3   0.175374 0.710072 0.734792 -0.552032
P5    P     P_3+3 0.056980 0.157781 0.623549 0.497595
O16   O     O_3   0.614310 0.373510 0.452640 -0.401196
O17   O     O_3   0.100780 0.295230 0.623970 -0.359249
O18   O     O_2   0.178472 0.115005 0.557564 -0.348107
O19   O     O_3   0.113676 0.121039 0.731751 -0.445819
Ba2   Ba    Ba6+2 0.334200 0.444810 0.545490 1.596859
P6    P     P_3+3 0.651518 0.637325 0.206391 0.533884
C10   C     C_3   0.680044 0.834071 0.163316 0.454991
H20   H     H_    0.559434 0.819070 0.196148 0.027057
H21   H     H_    0.573801 0.821587 0.025040 0.215910
O20   O     O_3   0.575400 0.626570 0.547370 -0.402092
C11   C     C_3   0.474141 0.303658 0.266932 0.471407
H22   H     H_    0.374013 0.335873 0.303411 0.062505
H23   H     H_    0.583452 0.365671 0.266764 0.142020
C12   C     C_3   0.416731 0.273085 0.167724 -0.928253
H24   H     H_    0.288318 0.233324 0.166685 0.274941
H25   H     H_    0.425317 0.344171 0.126947 0.226495
H26   H     H_    0.492435 0.218058 0.135331 0.307082
P7    P     P_3+3 0.526948 0.240490 0.427699 0.421711
O21   O     O_2   0.344320 0.238700 0.455090 -0.379167
O22   O     O_3   0.514227 0.214445 0.308065 -0.568396
H27   H     H_    0.364422 0.012323 0.134331 0.255510
C13   C     C_3   0.991862 0.139131 0.793959 0.353910
H28   H     H_    0.972997 0.223139 0.796075 0.081697
H29   H     H_    0.876445 0.085946 0.774490 0.067144
C14   C     C_3   0.042771 0.114285 0.890012 -0.848552
H30   H     H_    0.149941 0.172047 0.915391 0.297385
H31   H     H_    0.940111 0.118940 0.937506 0.213375
H32   H     H_    0.074352 0.033396 0.888841 0.253685
P8    P     P_3+3 0.537204 0.351551 0.791534 0.506737
C15   C     C_3   0.553038 0.159280 0.837057 0.523760
H33   H     H_    0.682641 0.195820 0.833484 -0.104697
O23   O     O_2   0.426452 0.428790 0.829947 -0.353442
O24   O     O_3   0.441480 0.230648 0.829571 -0.489163
H34   H     H_    0.619665 0.057520 0.941114 0.232427
C16   C     C_3   0.530716 0.111775 0.931037 -0.993489
H35   H     H_    0.405078 0.068156 0.937346 0.265621
H36   H     H_    0.553101 0.175803 0.986213 0.261370
C17   C     C_R   0.994482 0.424977 0.052578 -0.096090
C18   C     C_R   0.183589 0.483834 0.191407 0.214978
C19   C     C_R   0.338450 0.530766 0.221038 -0.366173
C20   C     C_R   0.445792 0.585949 0.162588 0.255465
C21   C     C_R   0.401112 0.594650 0.071346 -0.260143
C22   C     C_R   0.245744 0.547451 0.036103 0.019327
C23   C     C_R   0.138740 0.483758 0.094224 -0.076003
H37   H     H_    0.377902 0.523220 0.291285 0.175590
C24   C     C_R   0.053009 0.506001 0.902513 -0.057197
C25   C     C_R   0.946599 0.441747 0.960571 0.032530
C26   C     C_R   0.009174 0.504719 0.804952 0.241118
C27   C     C_R   0.858738 0.449245 0.773271 -0.471862
C28   C     C_R   0.746452 0.401218 0.833821 0.197589
C29   C     C_R   0.790601 0.395289 0.925814 -0.295260
C30   C     C_R   0.196965 0.565529 0.944653 -0.113577
H38   H     H_    0.491126 0.636340 0.027955 0.166862
H39   H     H_    0.699986 0.355763 0.970209 0.167466
H40   H     H_    0.823786 0.449176 0.701128 0.156504
C31   C     C_R   0.757847 0.178138 0.544734 -0.449199
C32   C     C_R   0.431569 0.818817 0.463517 -0.568160
C33   C     C_R   0.394263 0.998265 0.448812 -0.171740
C34   C     C_R   0.333447 0.891959 0.439951 0.123629
C35   C     C_R   0.574964 0.848928 0.516989 0.186342
C36   C     C_R   0.635172 0.959749 0.530875 -0.011582
C37   C     C_R   0.546771 0.034223 0.491407 -0.002292
C38   C     C_R   0.612947 0.142914 0.495390 0.264197
C39   C     C_R   0.846904 0.107055 0.582274 0.118435
C40   C     C_R   0.784897 0.998806 0.577170 -0.184931
H41   H     H_    0.321959 0.050814 0.419161 0.181348
H42   H     H_    0.857066 0.946326 0.606901 0.181120
H43   H     H_    0.808241 0.261261 0.547760 0.151177
C41   C     C_2   0.783664 0.080096 0.294796 0.711870
H44   H     H_    0.700653 0.020557 0.327935 -0.049833
O25   O     O_2   0.746128 0.107892 0.219539 -0.570717
C42   C     C_2   0.812382 0.905860 0.016227 0.660656
H45   H     H_    0.804965 0.932871 0.947080 0.018863
O26   O     O_2   0.944923 0.895799 0.048086 -0.553002
C43   C     C_2   0.520498 0.073798 0.760973 0.906364
O27   O     O_2   0.445716 0.088319 0.691108 -0.570176
O28   O     O_R   0.577620 0.978178 0.769858 -0.832812
H46   H     H_    0.542793 0.925853 0.715810 0.339540
C44   C     C_2   0.203661 0.811354 0.152198 1.120938
O29   O     O_2   0.295339 0.810499 0.087273 -0.715105
O30   O     O_R   0.072203 0.730131 0.158685 -0.686321
H47   H     H_    0.052334 0.683166 0.099956 0.338275
C45   C     C_2   0.924520 0.324012 0.089964 1.082065
O31   O     O_2   0.788195 0.311785 0.122235 -0.614366
O32   O     O_R   0.014854 0.241122 0.084196 -0.824751
H48   H     H_    0.953700 0.173013 0.106356 0.358905
C46   C     C_2   0.271168 0.666024 0.907516 1.121633
O33   O     O_2   0.406979 0.675369 0.874634 -0.646549
O34   O     O_R   0.187354 0.752155 0.914847 -0.760026
H49   H     H_    0.253388 0.818975 0.892638 0.348722
C47   C     C_2   0.400631 0.718555 0.409801 1.147354
O35   O     O_2   0.406304 0.721501 0.326287 -0.705110
O36   O     O_R   0.327965 0.626489 0.447318 -0.699785
H50   H     H_    0.290859 0.639840 0.512288 0.293030

loop_
_geom_bond_atom_site_label_1
_geom_bond_atom_site_label_2
_geom_bond_distance
_ccdc_geom_bond_type
C7    C41   1.497276 S    
P5    C39   1.845184 S    
C12   H25   1.109674 S    
O28   H46   1.011437 S    
P2    C35   1.888951 S    
C24   C25   1.426866 A    
O6    P6    1.747937 S    
C3    H27   1.109191 S    
C44   O29   1.217325 D    
H1    C10   1.104518 S    
C26   C27   1.396765 A    
Ba1   Ba2   4.632973 S    
C5    H8    1.107667 S    
O16   Ba2   2.943549 S    
C14   H31   1.108336 S    
C11   C12   1.520347 S    
C31   C39   1.393252 A    
C47   O36   1.383873 S    
C7    H13   1.106032 S    
C8    C9    1.522901 S    
C15   C16   1.525596 S    
O2    Ba2   2.840671 S    
P5    O19   1.744983 S    
Ba2   O21   2.900761 S    
C17   C23   1.420847 A    
C10   H20   1.107783 S    
C11   H23   1.109830 S    
P1    O1    1.532140 D    
P2    O10   1.748959 S    
C4    C5    1.517348 S    
C19   H37   1.080819 S    
C36   C37   1.435215 A    
P1    Ba1   3.437899 S    
C2    C44   1.496029 S    
C41   H44   1.083566 S    
C9    H19   1.107276 S    
H34   C16   1.107422 S    
P2    Ba1   3.457347 S    
C45   O31   1.220505 D    
P5    O17   1.746019 S    
C14   H32   1.110975 S    
P3    O11   1.747264 S    
C1    C42   1.502725 S    
C4    H6    1.104733 S    
C6    H12   1.106512 S    
C1    H2    1.108418 S    
C36   C40   1.413231 A    
C2    C3    1.526307 S    
O10   C8    1.397953 S    
P1    C18   1.869233 S    
C9    H18   1.107125 S    
O5    C6    1.399467 S    
Ba1   O16   2.826689 S    
C12   H26   1.106692 S    
C17   C25   1.425670 A    
C31   H43   1.082307 S    
O6    C10   1.401543 S    
O8    Ba1   2.804571 S    
P2    O20   1.592130 S    
P4    O13   1.588156 S    
Ba2   O20   2.826020 S    
C14   H30   1.110185 S    
P7    O21   1.569531 D    
O7    Ba1   2.900557 S    
C16   H35   1.111500 S    
C46   O34   1.397671 S    
C21   C22   1.413964 A    
P3    C34   1.850929 S    
C2    H3    1.107814 S    
C12   H24   1.107454 S    
C29   H39   1.079590 S    
P1    O5    1.753562 S    
C11   H22   1.111700 S    
P1    O2    1.588279 S    
C17   C45   1.471100 S    
O2    Ba1   2.954977 S    
C8    H15   1.107392 S    
C15   O24   1.410943 S    
P4    C26   1.872866 S    
P8    O24   1.751501 S    
C32   C47   1.452095 S    
C28   C29   1.388811 A    
P3    O9    1.539281 D    
C33   C34   1.377970 A    
P5    O18   1.539675 D    
Ba1   O20   2.944339 S    
O13   Ba2   2.955748 S    
O11   C2    1.408259 S    
C6    C7    1.529054 S    
C1    C10   1.535514 S    
C47   O35   1.214343 D    
C33   H41   1.076243 S    
C42   H45   1.083625 S    
C22   C30   1.424602 A    
O14   Ba2   2.841402 S    
C9    H17   1.108580 S    
C31   C38   1.392610 A    
P3    O8    1.769611 S    
O12   Ba2   2.876386 S    
O3    P6    1.781879 S    
C21   H38   1.078707 S    
O19   C13   1.400128 S    
P4    O12   1.532519 D    
C43   O28   1.397695 S    
C39   C40   1.402596 A    
O16   P7    1.764011 S    
C30   C46   1.474093 S    
C18   C23   1.453297 A    
C1    H21   1.107472 S    
C4    O15   1.395859 S    
C37   C38   1.415744 A    
C3    H4    1.108803 S    
C33   C37   1.402525 A    
O4    P6    1.533283 D    
C6    H11   1.103925 S    
C3    H5    1.106473 S    
C46   O33   1.220566 D    
C44   O30   1.394533 S    
C13   C14   1.516922 S    
C40   H42   1.075348 S    
C24   C26   1.455158 A    
O32   H48   1.011252 S    
P6    C20   1.826120 S    
C15   C43   1.502306 S    
C5    H9    1.106988 S    
Ba1   O13   2.840098 S    
O1    Ba1   2.875855 S    
O17   Ba2   2.805157 S    
O30   H47   1.011292 S    
C13   H28   1.114023 S    
C8    H16   1.110067 S    
P4    O15   1.752158 S    
C35   C36   1.434978 A    
P2    O7    1.516632 D    
P8    O23   1.542083 D    
C20   C21   1.385435 A    
C32   C34   1.392422 A    
C11   O22   1.405843 S    
C27   H40   1.082305 S    
C25   C29   1.413606 A    
C22   C23   1.426387 A    
C7    H14   1.106808 S    
C4    H7    1.105597 S    
C41   O25   1.219766 D    
C42   O26   1.218470 D    
O34   H49   1.014193 S    
C15   H33   1.107766 S    
P4    Ba2   3.438362 S    
P7    C38   1.859209 S    
C18   C19   1.384916 A    
C5    H10   1.108843 S    
C45   O32   1.396154 S    
C27   C28   1.385107 A    
C13   H29   1.109882 S    
P8    C28   1.840995 S    
O36   H50   1.007580 S    
C16   H36   1.106457 S    
O14   P8    1.750805 S    
P7    O22   1.745907 S    
C19   C20   1.378637 A    
O3    Ba1   2.842006 S    
C24   C30   1.425343 A    
C43   O27   1.221520 D    
C32   C35   1.404081 A    
