data_mof_unit_66715.cif
_audit_creation_date              2012-12-11T14:04:13-0500
_audit_creation_method            fapswitch 2.2
_symmetry_space_group_name_H-M    P1
_symmetry_Int_Tables_number       1
_space_group_crystal_system       triclinic
_cell_length_a                    20.412713
_cell_length_b                    22.120398
_cell_length_c                    8.375055
_cell_angle_alpha                 89.99984
_cell_angle_beta                  103.327989
_cell_angle_gamma                 90.127444
_cell_volume                      3679.78687884

loop_
_atom_site_label
_atom_site_type_symbol
_atom_type_description
_atom_site_fract_x
_atom_site_fract_y
_atom_site_fract_z
_atom_type_partial_charge
Ba1   Ba    Ba6+2 0.999900 0.456810 0.844860 1.716531
Ba2   Ba    Ba6+2 0.999900 0.543190 0.344860 1.711888
Ba3   Ba    Ba6+2 0.499900 0.956810 0.844860 1.716563
Ba4   Ba    Ba6+2 0.499900 0.043190 0.344860 1.711915
C1    C     C_3   0.053179 0.176227 0.643529 -0.248289
C2    C     C_3   0.058601 0.821845 0.144389 -0.290234
C3    C     C_3   0.553269 0.676274 0.643642 -0.248366
C4    C     C_3   0.558524 0.321884 0.144338 -0.290238
C5    C     C_R   0.122067 0.700187 0.833221 -0.054154
C6    C     C_R   0.126939 0.302927 0.332848 -0.056701
C7    C     C_R   0.622038 0.200207 0.833280 -0.054346
C8    C     C_R   0.626963 0.802941 0.332824 -0.056693
C9    C     C_R   0.171530 0.743652 0.902770 -0.023283
C10   C     C_R   0.185344 0.267878 0.392163 -0.103382
C11   C     C_R   0.671497 0.243676 0.902833 -0.022900
C12   C     C_R   0.685373 0.767898 0.392135 -0.103370
C13   C     C_R   0.215188 0.733914 0.062074 -0.021040
C14   C     C_R   0.218362 0.269120 0.563051 -0.040429
C15   C     C_R   0.715165 0.233933 0.062116 -0.020212
C16   C     C_R   0.718394 0.769142 0.563021 -0.040536
C17   C     C_R   0.202444 0.680995 0.149295 -0.095735
C18   C     C_R   0.200210 0.317748 0.657255 -0.092848
C19   C     C_R   0.702458 0.180989 0.149297 -0.096056
C20   C     C_R   0.700234 0.817765 0.657229 -0.092847
C21   C     C_R   0.149207 0.640262 0.085868 0.039674
C22   C     C_R   0.148139 0.358837 0.590476 0.046464
C23   C     C_R   0.649204 0.140268 0.085898 0.039550
C24   C     C_R   0.648158 0.858850 0.590453 0.046328
C25   C     C_R   0.809301 0.273255 0.303787 -0.126712
C26   C     C_R   0.813043 0.729799 0.802615 -0.038239
C27   C     C_R   0.309328 0.773231 0.303766 -0.126312
C28   C     C_R   0.313018 0.229780 0.802635 -0.038210
C29   C     C_R   0.864497 0.311471 0.368332 -0.017119
C30   C     C_R   0.866755 0.690257 0.866296 0.025311
C31   C     C_R   0.364513 0.811458 0.368330 -0.017294
C32   C     C_R   0.366738 0.190246 0.866302 0.025329
C33   C     C_R   0.848619 0.363492 0.108240 0.087435
C34   C     C_R   0.844726 0.634925 0.609479 0.057823
C35   C     C_R   0.348621 0.863492 0.108249 0.087720
C36   C     C_R   0.344718 0.134921 0.609480 0.057822
C37   C     C_R   0.800777 0.319762 0.038714 0.004791
C38   C     C_R   0.787727 0.671331 0.552011 -0.106387
C39   C     C_R   0.300793 0.819753 0.038708 0.004490
C40   C     C_R   0.287709 0.171316 0.552027 -0.106478
C41   C     C_R   0.775223 0.276139 0.135202 -0.008949
C42   C     C_R   0.774005 0.723594 0.639060 -0.003897
C43   C     C_R   0.275247 0.776119 0.135179 -0.008937
C44   C     C_R   0.273979 0.223575 0.639081 -0.003779
C45   C     C_3   0.020191 0.200800 0.137224 0.281762
C46   C     C_3   0.011910 0.803021 0.619856 0.218280
C47   C     C_3   0.520239 0.700787 0.137275 0.281470
C48   C     C_3   0.511906 0.303021 0.619815 0.218344
C49   C     C_R   0.882867 0.356839 0.271073 -0.279345
C50   C     C_R   0.884417 0.645449 0.766270 -0.306127
C51   C     C_R   0.382868 0.856840 0.271086 -0.279091
C52   C     C_R   0.384409 0.145447 0.766267 -0.306112
C53   C     C_3   0.009092 0.134505 0.081962 -0.228483
C54   C     C_3   0.995405 0.866245 0.542651 -0.189806
C55   C     C_3   0.509126 0.634497 0.081964 -0.228273
C56   C     C_3   0.495401 0.366241 0.542588 -0.189884
C57   C     C_3   0.224422 0.480648 0.337657 0.133031
C58   C     C_3   0.221229 0.523323 0.829586 0.105840
C59   C     C_3   0.724406 0.980650 0.337730 0.133044
C60   C     C_3   0.721201 0.023313 0.829711 0.105950
C61   C     C_3   0.300979 0.471066 0.407612 -0.248841
C62   C     C_3   0.297663 0.532520 0.906658 -0.153157
C63   C     C_3   0.800954 0.971090 0.407953 -0.249206
C64   C     C_3   0.797626 0.032425 0.907054 -0.153677
C65   C     C_3   0.803558 0.537169 0.906188 0.282414
C66   C     C_3   0.802451 0.463994 0.392276 0.280946
C67   C     C_3   0.303550 0.037166 0.906188 0.282395
C68   C     C_3   0.302459 0.963989 0.392300 0.280950
C69   C     C_3   0.739525 0.574697 0.874907 -0.311285
C70   C     C_3   0.735943 0.430814 0.331163 -0.311072
C71   C     C_3   0.239512 0.074686 0.874895 -0.311245
C72   C     C_3   0.235954 0.930801 0.331195 -0.311123
C73   C     C_3   0.018405 0.237361 0.606520 0.307582
C74   C     C_3   0.021781 0.761711 0.104492 0.285864
C75   C     C_3   0.518449 0.737384 0.606531 0.307835
C76   C     C_3   0.521740 0.261732 0.104485 0.285762
C77   C     C_R   0.109289 0.651085 0.928826 -0.303212
C78   C     C_R   0.107602 0.346537 0.435232 -0.242538
C79   C     C_R   0.609258 0.151109 0.928896 -0.303033
C80   C     C_R   0.607627 0.846554 0.435201 -0.242604
H1    H     H_    0.048435 0.270368 0.693990 0.094130
H2    H     H_    0.051962 0.727309 0.186309 0.084199
H3    H     H_    0.548461 0.770417 0.693943 0.094075
H4    H     H_    0.551936 0.227344 0.186352 0.084246
H5    H     H_    0.324879 0.465309 0.302904 0.107564
H6    H     H_    0.323588 0.538859 0.805411 0.119428
H7    H     H_    0.824947 0.965376 0.303375 0.108279
H8    H     H_    0.823642 0.038833 0.805993 0.119280
H9    H     H_    0.821379 0.533851 0.791450 0.012148
H10   H     H_    0.826529 0.470655 0.288106 0.014448
H11   H     H_    0.321374 0.033848 0.791454 0.012129
H12   H     H_    0.326540 0.970644 0.288133 0.014407
H13   H     H_    0.842222 0.559519 0.003630 0.041437
H14   H     H_    0.835506 0.436868 0.490152 0.035701
H15   H     H_    0.342209 0.059520 0.003631 0.041426
H16   H     H_    0.335514 0.936870 0.490193 0.035731
H17   H     H_    0.700567 0.554100 0.774784 0.175980
H18   H     H_    0.703067 0.456851 0.230449 0.180178
H19   H     H_    0.200560 0.054088 0.774764 0.175960
H20   H     H_    0.203085 0.956824 0.230438 0.180214
H21   H     H_    0.749415 0.621291 0.839245 0.022400
H22   H     H_    0.744349 0.385509 0.284302 0.057117
H23   H     H_    0.249396 0.121283 0.839239 0.022386
H24   H     H_    0.244368 0.885487 0.284397 0.057078
H25   H     H_    0.720232 0.576648 0.988345 0.156469
H26   H     H_    0.709910 0.425484 0.432957 0.141962
H27   H     H_    0.220213 0.076634 0.988324 0.156536
H28   H     H_    0.209911 0.925490 0.432977 0.141962
H29   H     H_    0.018646 0.251062 0.479203 -0.140020
H30   H     H_    0.019819 0.749699 0.974840 -0.052812
H31   H     H_    0.518677 0.751061 0.479191 -0.140228
H32   H     H_    0.519793 0.249708 0.974836 -0.052782
H33   H     H_    0.106291 0.180288 0.632579 0.069605
H34   H     H_    0.109435 0.818490 0.118869 0.102908
H35   H     H_    0.606367 0.680346 0.632618 0.069680
H36   H     H_    0.609359 0.318551 0.118798 0.102932
H37   H     H_    0.053768 0.163337 0.771414 0.152238
H38   H     H_    0.065696 0.830926 0.276921 0.142234
H39   H     H_    0.553895 0.663423 0.771560 0.152118
H40   H     H_    0.565623 0.330966 0.276875 0.142201
H41   H     H_    0.979740 0.110628 0.159381 0.083589
H42   H     H_    0.962538 0.891279 0.608709 0.142704
H43   H     H_    0.479791 0.610610 0.159404 0.083742
H44   H     H_    0.462506 0.391267 0.608581 0.142794
H45   H     H_    0.794192 0.241947 0.387278 0.112258
H46   H     H_    0.803668 0.765038 0.883104 0.104506
H47   H     H_    0.294233 0.741913 0.387252 0.112204
H48   H     H_    0.303635 0.265013 0.883132 0.104441
H49   H     H_    0.787200 0.320259 0.907705 0.123938
H50   H     H_    0.753322 0.655964 0.442380 0.087888
H51   H     H_    0.287226 0.820250 0.907698 0.123879
H52   H     H_    0.253303 0.155944 0.442407 0.087894
H53   H     H_    0.235067 0.669046 0.265421 0.112408
H54   H     H_    0.227821 0.326713 0.780779 0.109424
H55   H     H_    0.735122 0.169017 0.265357 0.111908
H56   H     H_    0.727838 0.826727 0.780761 0.109482
H57   H     H_    0.922337 0.388528 0.324211 0.055724
H58   H     H_    0.926676 0.616120 0.814697 0.058960
H59   H     H_    0.422329 0.888535 0.324233 0.055671
H60   H     H_    0.426675 0.116125 0.814686 0.058948
H61   H     H_    0.070670 0.618616 0.875918 0.055505
H62   H     H_    0.065417 0.375868 0.386171 0.093746
H63   H     H_    0.570624 0.118648 0.876004 0.055518
H64   H     H_    0.565444 0.875885 0.386135 0.093693
H65   H     H_    0.053445 0.201447 0.262602 -0.100331
H66   H     H_    0.047086 0.808192 0.740523 0.002399
H67   H     H_    0.553519 0.701426 0.262623 -0.099695
H68   H     H_    0.547070 0.308202 0.740505 0.002397
H69   H     H_    0.979174 0.132387 0.952886 0.149032
H70   H     H_    0.967374 0.861511 0.412493 0.150325
H71   H     H_    0.479187 0.632397 0.952905 0.149250
H72   H     H_    0.467405 0.361501 0.412402 0.150181
H73   H     H_    0.199363 0.490546 0.438251 0.053349
H74   H     H_    0.193928 0.516007 0.927658 0.002398
H75   H     H_    0.699275 0.990527 0.438207 0.053444
H76   H     H_    0.693839 0.015976 0.927665 0.002068
O1    O     O_2   0.866180 0.413660 0.823810 -0.462774
O2    O     O_2   0.866180 0.586340 0.323810 -0.467803
O3    O     O_2   0.366180 0.913660 0.823810 -0.462782
O4    O     O_2   0.366180 0.086340 0.323810 -0.467779
O5    O     O_3   0.216140 0.473274 0.725771 -0.653805
O6    O     O_3   0.217005 0.528014 0.224951 -0.639835
O7    O     O_3   0.716110 0.973311 0.725742 -0.653873
O8    O     O_3   0.717020 0.028023 0.225037 -0.640301
O9    O     O_3   0.048610 0.233218 0.024659 -0.562840
O10   O     O_3   0.038131 0.766180 0.512070 -0.605086
O11   O     O_3   0.548630 0.733216 0.024677 -0.562781
O12   O     O_3   0.538154 0.266180 0.512059 -0.605059
O13   O     O_3   0.077880 0.530130 0.092320 -0.443293
O14   O     O_3   0.077880 0.469870 0.592320 -0.501783
O15   O     O_3   0.577880 0.030130 0.092320 -0.443288
O16   O     O_3   0.577880 0.969870 0.592320 -0.501710
O17   O     O_3   0.922050 0.469730 0.097400 -0.500673
O18   O     O_3   0.922050 0.530270 0.597400 -0.499427
O19   O     O_3   0.422050 0.969730 0.097400 -0.500700
O20   O     O_3   0.422050 0.030270 0.597400 -0.499429
O21   O     O_3   0.976760 0.360270 0.628090 -0.504005
O22   O     O_3   0.976760 0.639730 0.128090 -0.510075
O23   O     O_3   0.476760 0.860270 0.628090 -0.503997
O24   O     O_3   0.476760 0.139730 0.128090 -0.510055
O25   O     O_2   0.868207 0.311050 0.703988 -0.407344
O26   O     O_2   0.870373 0.689200 0.203520 -0.427446
O27   O     O_2   0.368228 0.811031 0.704008 -0.407415
O28   O     O_2   0.370355 0.189186 0.203512 -0.427480
O29   O     O_3   0.787987 0.479684 0.955333 -0.616542
O30   O     O_3   0.788344 0.519500 0.455273 -0.625765
O31   O     O_3   0.287984 0.979681 0.955338 -0.616541
O32   O     O_3   0.288345 0.019498 0.455264 -0.625763
O33   O     O_3   0.952121 0.234022 0.628294 -0.574310
O34   O     O_3   0.956512 0.765570 0.132873 -0.561952
O35   O     O_3   0.452166 0.734022 0.628311 -0.574349
O36   O     O_3   0.456461 0.265573 0.132846 -0.562030
O37   O     O_2   0.133470 0.412980 0.865660 -0.428954
O38   O     O_2   0.133470 0.587020 0.365660 -0.455247
O39   O     O_2   0.633470 0.912980 0.865660 -0.428885
O40   O     O_2   0.633470 0.087020 0.365660 -0.455153
O41   O     O_3   0.022720 0.360150 0.061220 -0.404233
O42   O     O_3   0.022720 0.639850 0.561220 -0.491814
O43   O     O_3   0.522720 0.860150 0.061220 -0.404071
O44   O     O_3   0.522720 0.139850 0.561220 -0.491786
O45   O     O_2   0.135332 0.315745 0.009210 -0.457880
O46   O     O_2   0.131330 0.688760 0.509042 -0.386656
O47   O     O_2   0.635336 0.815749 0.009179 -0.457867
O48   O     O_2   0.631360 0.188748 0.509159 -0.386684
P1    P     P_3+3 0.859590 0.433890 0.993820 1.012479
P2    P     P_3+3 0.859590 0.566110 0.493820 0.994049
P3    P     P_3+3 0.359590 0.933890 0.993820 1.012528
P4    P     P_3+3 0.359590 0.066110 0.493820 0.994058
P5    P     P_3+3 0.140130 0.433190 0.695710 0.989670
P6    P     P_3+3 0.140130 0.566810 0.195710 1.043217
P7    P     P_3+3 0.640130 0.933190 0.695710 0.989727
P8    P     P_3+3 0.640130 0.066810 0.195710 1.042863
P9    P     P_3+3 0.082714 0.302208 0.110749 1.074948
P10   P     P_3+3 0.078103 0.700972 0.609842 1.001044
P11   P     P_3+3 0.582725 0.802213 0.110740 1.075160
P12   P     P_3+3 0.578106 0.200971 0.609879 1.001041
P13   P     P_3+3 0.915876 0.696120 0.080802 1.025959
P14   P     P_3+3 0.913899 0.304702 0.581442 1.033718
P15   P     P_3+3 0.415859 0.196109 0.080799 1.025870
P16   P     P_3+3 0.413915 0.804690 0.581447 1.033694
C81   C     C_2   0.334095 0.525693 0.499435 0.600762
H77   H     H_    0.305372 0.566355 0.506329 0.068044
O49   O     O_2   0.394264 0.525457 0.562510 -0.548701
C82   C     C_2   0.328317 0.476578 0.995900 0.616527
H78   H     H_    0.296706 0.438867 0.015071 0.002104
O50   O     O_2   0.389267 0.473079 0.047128 -0.547712
C83   C     C_2   0.833978 0.025719 0.499985 0.600827
H79   H     H_    0.805081 0.066347 0.507020 0.068034
O51   O     O_2   0.894257 0.025558 0.562946 -0.548092
C84   C     C_2   0.828147 0.976371 0.995962 0.618279
H80   H     H_    0.796536 0.938845 0.015273 0.001638
O52   O     O_2   0.889030 0.972632 0.046876 -0.547792
C85   C     C_2   0.316530 0.414402 0.508822 0.803744
O53   O     O_2   0.319409 0.414563 0.656010 -0.571920
O54   O     O_R   0.329050 0.361421 0.431393 -0.744737
H81   H     H_    0.332909 0.325231 0.506087 0.345860
C86   C     C_2   0.313676 0.588072 0.013720 0.809726
O55   O     O_2   0.325700 0.584280 0.163317 -0.624858
O56   O     O_R   0.319270 0.643833 0.940117 -0.695267
H82   H     H_    0.330841 0.677398 0.023516 0.321317
C87   C     C_2   0.816477 0.914402 0.509123 0.803179
O57   O     O_2   0.819305 0.914548 0.656385 -0.571828
O58   O     O_R   0.829024 0.861411 0.431607 -0.744576
H83   H     H_    0.832794 0.825199 0.506251 0.345774
C88   C     C_2   0.813669 0.087885 0.014521 0.808403
O59   O     O_2   0.826335 0.083858 0.164265 -0.624147
O60   O     O_R   0.818675 0.143833 0.941080 -0.695287
H84   H     H_    0.830721 0.177234 0.024973 0.320927
C89   C     C_2   0.172566 0.800609 0.811518 0.768307
O61   O     O_2   0.164483 0.848677 0.876380 -0.628787
O62   O     O_R   0.185939 0.799898 0.655131 -0.718104
H85   H     H_    0.187390 0.841911 0.607982 0.296894
C90   C     C_2   0.218261 0.241893 0.267907 0.862496
O63   O     O_2   0.272391 0.261989 0.254260 -0.567237
O64   O     O_R   0.186825 0.195983 0.163255 -0.780572
H86   H     H_    0.213793 0.183555 0.081127 0.303005
C91   C     C_2   0.672528 0.300637 0.811598 0.768136
O65   O     O_2   0.664449 0.348702 0.876481 -0.628870
O66   O     O_R   0.685898 0.299934 0.655208 -0.718063
H87   H     H_    0.687360 0.341949 0.608082 0.296918
C92   C     C_2   0.718287 0.741909 0.267879 0.862408
O67   O     O_2   0.772435 0.761990 0.254272 -0.567203
O68   O     O_R   0.686835 0.696011 0.163194 -0.780597
H88   H     H_    0.713804 0.683581 0.081072 0.302978
C93   C     C_2   0.017907 0.127569 0.531268 0.541880
H89   H     H_    0.963380 0.124516 0.501653 0.088270
O69   O     O_2   0.050410 0.090298 0.474979 -0.557027
C94   C     C_2   0.020085 0.872972 0.049225 0.660574
H90   H     H_    0.968367 0.880953 0.055273 0.110779
O70   O     O_2   0.046597 0.906146 0.966086 -0.526520
C95   C     C_2   0.518007 0.627575 0.531546 0.541783
H91   H     H_    0.463503 0.624398 0.502411 0.088369
O71   O     O_2   0.550501 0.590414 0.474849 -0.557366
C96   C     C_2   0.519971 0.372998 0.049170 0.660839
H92   H     H_    0.468257 0.380977 0.055292 0.110352
O72   O     O_2   0.546454 0.406170 0.965956 -0.526490
C97   C     C_2   0.953101 0.226819 0.141258 0.474459
H93   H     H_    0.930154 0.216364 0.242503 -0.096863
O73   O     O_2   0.922919 0.257597 0.027260 -0.545013
C98   C     C_2   0.948688 0.776346 0.649082 0.393778
H94   H     H_    0.923629 0.739490 0.573596 0.047213
O74   O     O_2   0.923550 0.798454 0.754206 -0.622467
C99   C     C_2   0.453160 0.726805 0.141421 0.473959
H95   H     H_    0.430176 0.716251 0.242535 -0.095987
O75   O     O_2   0.423035 0.757714 0.027658 -0.545318
C100  C     C_2   0.448675 0.276336 0.649028 0.393578
H96   H     H_    0.423637 0.239454 0.573614 0.047162
O76   O     O_2   0.423517 0.298455 0.754105 -0.622482
C101  C     C_2   0.074313 0.101360 0.098174 0.631147
H97   H     H_    0.110764 0.100438 0.215102 0.065142
O77   O     O_2   0.086299 0.074225 0.981318 -0.555353
C102  C     C_2   0.056741 0.904932 0.553559 0.530951
H98   H     H_    0.089467 0.914868 0.671841 0.116659
O78   O     O_2   0.068469 0.928144 0.430911 -0.562181
C103  C     C_2   0.574340 0.601350 0.098064 0.631041
H99   H     H_    0.610818 0.600423 0.214947 0.065240
O79   O     O_2   0.586292 0.574218 0.981167 -0.555430
C104  C     C_2   0.556734 0.404942 0.553579 0.530966
H100  H     H_    0.589438 0.414878 0.671882 0.116680
O80   O     O_2   0.568484 0.428161 0.430971 -0.562208
C105  C     C_2   0.193150 0.426614 0.244843 0.399602
H101  H     H_    0.222869 0.389075 0.217836 0.041941
O81   O     O_2   0.132729 0.426485 0.189721 -0.542679
C106  C     C_2   0.190753 0.575640 0.725370 0.476348
H102  H     H_    0.136529 0.578101 0.686150 0.016304
O82   O     O_2   0.225351 0.613132 0.676102 -0.543109
C107  C     C_2   0.693191 0.926611 0.244848 0.399421
H103  H     H_    0.722942 0.889072 0.217972 0.041957
O83   O     O_2   0.632781 0.926473 0.189541 -0.542564
C108  C     C_2   0.690803 0.075670 0.725572 0.477826
H104  H     H_    0.636579 0.078221 0.686506 0.015552
O84   O     O_2   0.725449 0.113049 0.676049 -0.542966

loop_
_geom_bond_atom_site_label_1
_geom_bond_atom_site_label_2
_ccdc_geom_bond_type
C64   C88   S    
C5    P10   S    
C71   H23   S    
Ba2   O42   S    
C17   H53   S    
C75   H3    S    
C20   H56   S    
C61   H5    S    
C3    C75   S    
C98   H94   S    
C65   H9    S    
C67   H11   S    
O27   P16   D    
Ba3   P7    S    
C25   C29   A    
C8    C80   A    
C57   O6    S    
C5    C9    A    
C7    C11   A    
C8    C12   A    
C94   H90   S    
C66   C70   S    
C99   O75   D    
Ba2   O17   S    
C29   P14   S    
C69   H17   S    
C63   C83   S    
C87   O57   D    
C71   H19   S    
C84   O52   D    
C73   H29   S    
C82   H78   S    
C22   C78   A    
C76   O36   S    
C88   O60   S    
C3    H35   S    
O66   H87   S    
C58   C62   S    
O2    P2    D    
C108  H104  S    
C67   H15   S    
C6    C78   A    
C13   C17   A    
C25   C41   A    
C15   C19   A    
C12   C16   A    
C61   C81   S    
C102  H98   S    
O26   P13   D    
Ba2   P6    S    
C93   O69   D    
C23   P8    S    
Ba4   O19   S    
C1    C73   S    
O38   P6    D    
C66   O30   S    
C89   O62   S    
C18   H54   S    
O22   P13   S    
C55   H71   S    
C1    C93   S    
C3    H39   S    
C10   C90   S    
C70   H26   S    
C57   C105  S    
C56   C104  S    
C38   H50   S    
O14   P5    S    
O15   P8    S    
O30   P2    S    
C76   H4    S    
O4    P4    D    
C64   H8    S    
C68   H12   S    
C57   C61   S    
Ba3   O16   S    
C37   C41   A    
C86   O56   S    
C39   C43   A    
C40   C44   A    
O31   P3    S    
Ba4   P8    S    
C75   H31   S    
C59   H75   S    
C48   O12   S    
C37   H49   S    
Ba1   O13   S    
C88   O59   D    
C22   P5    S    
O39   P7    D    
C60   C64   S    
C60   O7    S    
C53   H41   S    
C91   O65   D    
C2    C74   S    
C55   H43   S    
C45   C53   S    
O18   P2    S    
C86   O55   D    
O20   P4    S    
O32   P4    S    
C73   O33   S    
C48   C56   S    
C25   H45   S    
C105  O81   D    
Ba4   O15   S    
C12   C92   S    
O12   P12   S    
C33   C49   A    
C73   H1    S    
C85   O53   D    
C106  O82   D    
Ba3   P3    S    
C104  O80   D    
C51   H59   S    
C26   C30   A    
Ba1   P1    S    
C76   H32   S    
C6    C10   A    
O23   P16   S    
C46   C98   S    
Ba3   O20   S    
C101  H97   S    
C11   C91   S    
Ba1   O18   S    
C69   H21   S    
O16   P7    S    
C34   P2    S    
C92   O68   S    
O5    P5    S    
C54   H42   S    
C107  O83   D    
Ba4   O16   S    
Ba3   Ba4   S    
C17   C21   A    
C14   C18   A    
C26   C42   A    
Ba1   O37   S    
C20   C24   A    
C14   C44   S    
O68   H88   S    
C15   C41   S    
C62   C86   S    
C97   O73   D    
C9    C13   A    
O42   P10   S    
C98   O74   D    
C31   P16   S    
C63   C87   S    
C45   C97   S    
C81   O49   D    
C33   C37   A    
C47   H67   S    
O28   P15   D    
Ba4   O40   S    
C59   C107  S    
C94   O70   D    
C62   C82   S    
C96   H92   S    
C67   O31   S    
Ba3   O23   S    
C68   O32   S    
O11   P11   S    
O64   H86   S    
C6    P9    S    
C65   H13   S    
C40   H52   S    
O24   P15   S    
O9    P9    S    
C24   C80   A    
Ba3   O43   S    
C95   H91   S    
Ba1   O41   S    
C82   O50   D    
O60   H84   S    
C62   H6    S    
C11   C15   A    
O44   P12   S    
C47   C99   S    
C72   H20   S    
C66   H10   S    
O54   H81   S    
Ba2   O13   S    
O35   P16   S    
C108  O84   D    
O56   H82   S    
C100  H96   S    
C74   O34   S    
C54   H70   S    
C35   C51   A    
C36   C52   A    
C58   H74   S    
C65   C69   S    
O7    P7    S    
C30   P13   S    
Ba3   O3    S    
C70   H18   S    
C24   P7    S    
C102  O78   D    
Ba1   O1    S    
C72   H24   S    
C27   C43   A    
C93   H89   S    
C28   C44   A    
Ba2   O2    S    
C74   H30   S    
C78   H62   S    
Ba1   P5    S    
C80   H64   S    
C58   C106  S    
C46   C54   S    
C13   C43   S    
C4    H40   S    
C7    C79   A    
C26   H46   S    
C53   H69   S    
C103  H99   S    
C56   H72   S    
C32   C52   A    
C57   H73   S    
C99   H95   S    
C34   C50   A    
C56   H44   S    
C48   H68   S    
O45   P9    D    
C60   H76   S    
C63   H7    S    
C83   O51   D    
C32   P15   S    
C64   C84   S    
O34   P13   S    
C55   C103  S    
Ba3   O15   S    
C50   H58   S    
O25   P14   D    
C87   O58   S    
C38   C42   A    
C27   C31   A    
C84   H80   S    
C28   C32   A    
O37   P5    D    
Ba1   O21   S    
O21   P14   S    
C60   C108  S    
C48   C100  S    
C4    C96   S    
C69   H25   S    
O43   P11   S    
C36   P4    S    
C71   H27   S    
C23   C79   A    
O13   P6    S    
O29   P1    S    
C45   O9    S    
O8    P8    S    
C89   O61   D    
O1    P1    D    
C49   H57   S    
O36   P15   S    
C52   H60   S    
C105  H101  S    
C18   C22   A    
O48   P12   D    
C107  H103  S    
O19   P3    S    
C10   C14   A    
C68   C72   S    
C75   O35   S    
O46   P10   D    
C19   H55   S    
C21   P6    S    
C95   O71   D    
C90   O63   D    
C3    C95   S    
Ba4   O44   S    
C1    H37   S    
Ba1   Ba2   S    
Ba2   O22   S    
O17   P1    S    
O40   P8    D    
C16   C20   A    
C27   H47   S    
Ba4   O4    S    
C19   C23   A    
C92   O67   D    
C8    P11   S    
C21   C77   A    
C74   H2    S    
C61   C85   S    
C29   C49   A    
C59   C63   S    
Ba1   O14   S    
Ba2   P2    S    
C31   C51   A    
C46   O10   S    
C65   O29   S    
C91   O66   S    
O3    P3    D    
C35   C39   A    
C97   H93   S    
C1    H33   S    
C90   O64   S    
C70   H22   S    
C54   C102  S    
C46   H66   S    
Ba3   O39   S    
C36   C40   A    
C72   H28   S    
C9    C89   S    
C81   H77   S    
C35   P3    S    
Ba4   O24   S    
C39   H51   S    
C103  O79   D    
C33   P1    S    
O6    P6    S    
C79   H63   S    
C59   O8    S    
C77   H61   S    
C85   O54   S    
C96   O72   D    
C47   C55   S    
C2    H38   S    
O62   H85   S    
C28   H48   S    
C106  H102  S    
C4    H36   S    
C68   H16   S    
C104  H100  S    
O33   P14   S    
Ba2   O38   S    
C2    C94   S    
O58   H83   S    
C30   C50   A    
O47   P11   D    
Ba4   P4    S    
C45   H65   S    
C47   O11   S    
O41   P9    S    
C101  O77   D    
Ba2   O14   S    
C67   C71   S    
C100  O76   D    
C16   C42   S    
C53   C101  S    
C34   C38   A    
C58   O5    S    
C83   H79   S    
C4    C76   S    
C7    P12   S    
C2    H34   S    
C66   H14   S    
C5    C77   A    
O10   P10   S    
