data_mof_unit_12217.cif
_audit_creation_date              2012-12-10T18:05:41-0500
_audit_creation_method            fapswitch 2.2
_symmetry_space_group_name_H-M    P1
_symmetry_Int_Tables_number       1
_space_group_crystal_system       triclinic
_cell_length_a                    10.887613
_cell_length_b                    10.803749
_cell_length_c                    9.623584
_cell_angle_alpha                 92.120475
_cell_angle_beta                  90.488554
_cell_angle_gamma                 92.526171
_cell_volume                      1130.06070996

loop_
_atom_site_label
_atom_site_type_symbol
_atom_type_description
_atom_site_fract_x
_atom_site_fract_y
_atom_site_fract_z
_atom_type_partial_charge
C1    C     C_R   0.499168 0.262356 0.498307 0.780129
C2    C     C_R   0.500832 0.737644 0.501693 0.780121
C3    C     C_R   0.871515 0.497330 0.502221 -0.081027
C4    C     C_R   0.128486 0.502701 0.497787 -0.081031
C5    C     C_R   0.937780 0.454112 0.616310 0.008879
C6    C     C_R   0.062220 0.545917 0.383698 0.008844
C7    C     C_R   0.545866 0.061759 0.384452 -0.204031
C8    C     C_R   0.454131 0.938242 0.615546 -0.204065
C9    C     C_R   0.547509 0.933798 0.387060 -0.182634
C10   C     C_R   0.452489 0.066204 0.612939 -0.182658
C11   C     C_R   0.501938 0.871732 0.502772 -0.011206
C12   C     C_R   0.498061 0.128269 0.497228 -0.011204
C13   C     C_R   0.442249 0.403892 0.066441 0.176109
C14   C     C_R   0.557758 0.596104 0.933559 0.176080
C15   C     C_R   0.443104 0.406305 0.918511 -0.047893
C16   C     C_R   0.556899 0.593695 0.081490 -0.047915
C17   C     C_R   0.262524 0.501296 0.499250 0.789625
C18   C     C_R   0.737476 0.498712 0.500750 0.789632
C19   C     C_R   0.253257 0.743425 0.143407 -0.119063
C20   C     C_R   0.746679 0.256402 0.856364 -0.119068
C21   C     C_R   0.187332 0.705602 0.259530 -0.113062
C22   C     C_R   0.812648 0.294318 0.740302 -0.113090
C23   C     C_R   0.122950 0.589947 0.256442 0.072580
C24   C     C_R   0.877036 0.409979 0.743520 0.072546
C25   C     C_R   0.124807 0.512718 0.135162 0.018198
C26   C     C_R   0.875149 0.487118 0.864881 0.018166
C27   C     C_R   0.190319 0.552132 0.019075 -0.143026
C28   C     C_R   0.809603 0.447604 0.980915 -0.142977
C29   C     C_R   0.253940 0.667342 0.023043 -0.083724
C30   C     C_R   0.745967 0.332392 0.976807 -0.083775
C31   C     C_R   0.934592 0.542592 0.387303 -0.218145
C32   C     C_R   0.065409 0.457450 0.612711 -0.218124
Cu1   Cu    Cu3+1 0.500000 0.500020 0.640660 0.925157
Cu2   Cu    Cu3+1 0.500000 0.499980 0.359340 0.925163
H1    H     H_    0.304739 0.697123 0.933117 0.130604
H2    H     H_    0.695119 0.302535 0.066677 0.130514
H3    H     H_    0.398616 0.333552 0.854447 0.132150
H4    H     H_    0.601384 0.666449 0.145556 0.132156
H5    H     H_    0.305273 0.830923 0.147190 0.122479
H6    H     H_    0.694641 0.168908 0.852474 0.122513
H7    H     H_    0.188888 0.764803 0.352934 0.119298
H8    H     H_    0.811109 0.235187 0.646836 0.119291
H9    H     H_    0.192682 0.493435 0.925658 0.122404
H10   H     H_    0.807212 0.506229 0.074392 0.122505
H11   H     H_    0.884531 0.577312 0.300166 0.143186
H12   H     H_    0.115469 0.422718 0.699838 0.143177
H13   H     H_    0.584300 0.108430 0.296114 0.135582
H14   H     H_    0.415695 0.891572 0.703883 0.135591
H15   H     H_    0.585508 0.883499 0.299211 0.132389
H16   H     H_    0.414491 0.116502 0.700788 0.132392
N1    N     N_R   0.500030 0.500030 0.852070 -0.187042
N2    N     N_R   0.499970 0.499970 0.147930 -0.187031
O1    O     O_R   0.499990 0.319660 0.618740 -0.586928
O2    O     O_R   0.500010 0.680340 0.381260 -0.586937
O3    O     O_R   0.499990 0.319630 0.381170 -0.610403
O4    O     O_R   0.500010 0.680370 0.618830 -0.610410
O5    O     O_R   0.319650 0.500020 0.618780 -0.587518
O6    O     O_R   0.680350 0.499980 0.381220 -0.587511
O7    O     O_R   0.319640 0.500000 0.381210 -0.579206
O8    O     O_R   0.680360 0.500000 0.618790 -0.579199
C33   C     C_1   0.062902 0.391745 0.130318 0.188081
N3    N     N_1   0.012715 0.295006 0.127246 -0.292124
C34   C     C_1   0.937054 0.608102 0.869868 0.188043
N4    N     N_1   0.987244 0.704852 0.873071 -0.292124
C35   C     C_3   0.384361 0.290034 0.131964 -0.369278
C36   C     C_3   0.303051 0.200529 0.038722 -0.459171
C37   C     C_3   0.243724 0.098163 0.124285 -0.787891
H17   H     H_    0.316042 0.046653 0.176277 0.241154
H18   H     H_    0.183387 0.137825 0.205298 0.268649
H19   H     H_    0.187774 0.032698 0.055218 0.250855
H20   H     H_    0.230195 0.251123 0.986592 0.236030
H21   H     H_    0.360192 0.155080 0.958175 0.208670
H22   H     H_    0.461034 0.234003 0.165371 0.208653
H23   H     H_    0.327516 0.320360 0.220584 0.252606
C38   C     C_3   0.615656 0.709956 0.868037 -0.369294
C39   C     C_3   0.696962 0.799461 0.961283 -0.459149
C40   C     C_3   0.756332 0.901794 0.875710 -0.788083
H24   H     H_    0.816784 0.862108 0.794847 0.268691
H25   H     H_    0.684059 0.953208 0.823546 0.241214
H26   H     H_    0.812176 0.967338 0.944782 0.250867
H27   H     H_    0.639811 0.844932 0.041800 0.208687
H28   H     H_    0.769795 0.748864 0.013446 0.236083
H29   H     H_    0.672504 0.679628 0.779421 0.252621
H30   H     H_    0.538987 0.765989 0.834626 0.208656

loop_
_geom_bond_atom_site_label_1
_geom_bond_atom_site_label_2
_ccdc_geom_bond_type
C27   C29   A    
C26   C34   S    
C20   C30   A    
C40   H24   S    
C19   H5    S    
C19   C21   A    
C24   C26   A    
C20   H6    S    
C38   H30   S    
C35   H22   S    
C3    C18   S    
C1    O1    A    
C15   H3    S    
C18   O6    A    
C36   H21   S    
C36   H20   S    
C15   N1    A    
C5    C32   A    
Cu1   O4    S    
C6    C31   A    
Cu2   O3    S    
C1    C12   S    
C32   H12   S    
C2    C11   S    
C40   H25   S    
Cu1   O1    S    
C7    C12   A    
C37   H17   S    
C9    H15   S    
C39   C40   S    
C4    C6    A    
C2    O2    A    
C39   H28   S    
C13   C35   S    
C28   H10   S    
C35   H23   S    
C37   H18   S    
C7    H13   S    
C38   C39   S    
C8    H14   S    
C13   N2    A    
C14   N1    A    
Cu1   Cu2   S    
C25   C33   S    
C3    C31   A    
C9    C11   A    
C4    C32   A    
C10   C12   A    
C17   O7    A    
C21   H7    S    
C4    C17   S    
C18   O8    A    
C20   C22   A    
Cu2   O2    S    
Cu1   O8    S    
C13   C15   A    
Cu2   O7    S    
C22   C24   A    
C25   C27   A    
C10   H16   S    
C40   H26   S    
C7    C9    A    
Cu1   O5    S    
Cu2   N2    S    
C16   N2    A    
C3    C5    A    
C39   H27   S    
Cu1   N1    S    
C29   H1    S    
C26   C28   A    
C30   H2    S    
C37   H19   S    
C14   C38   S    
C21   C23   A    
C1    O3    A    
C2    O4    A    
C38   H29   S    
C22   H8    S    
C5    C24   S    
C8    C11   A    
C6    C23   S    
C28   C30   A    
C36   C37   S    
C14   C16   A    
C23   C25   A    
C33   N3    T    
C34   N4    T    
C27   H9    S    
C8    C10   A    
C35   C36   S    
C31   H11   S    
C16   H4    S    
Cu2   O6    S    
C17   O5    A    
C19   C29   A    
