data_mof_unit_63549.cif
_audit_creation_date              2013-03-05T15:39:58-0500
_audit_creation_method            fapswitch 2.2
_symmetry_space_group_name_H-M    P1
_symmetry_Int_Tables_number       1
_space_group_crystal_system       triclinic
_cell_length_a                    15.888222
_cell_length_b                    18.000255
_cell_length_c                    29.371405
_cell_angle_alpha                 89.787845
_cell_angle_beta                  89.963656
_cell_angle_gamma                 90.054148
_cell_volume                      8399.92520899

loop_
_atom_site_label
_atom_site_type_symbol
_atom_site_description
_atom_site_fract_x
_atom_site_fract_y
_atom_site_fract_z
_atom_type_partial_charge
O1    O     O_R   0.429360 0.416280 0.044700 -0.551993
O2    O     O_R   0.570640 0.583720 0.044700 -0.595976
O3    O     O_R   0.570640 0.416280 0.044700 -0.590616
O4    O     O_R   0.429360 0.583720 0.044700 -0.559824
O5    O     O_R   0.427420 0.583550 0.955440 -0.542812
O6    O     O_R   0.572580 0.416450 0.955440 -0.533554
O7    O     O_R   0.572580 0.583550 0.955440 -0.549876
O8    O     O_R   0.427420 0.416450 0.955440 -0.549828
Cu1   Cu    Cu3+1 0.415470 0.500000 0.000080 1.141169
Cu2   Cu    Cu3+1 0.584530 0.500000 0.000080 1.118692
C1    C     C_R   0.499981 0.389984 0.058882 0.764895
C2    C     C_R   0.500009 0.609921 0.058855 0.791070
C3    C     C_R   0.499997 0.611042 0.942018 0.890578
C4    C     C_R   0.500039 0.389109 0.941884 0.896759
C5    C     C_R   0.565863 0.754060 0.853014 0.242496
C6    C     C_R   0.440729 0.200053 0.893198 0.228631
C7    C     C_R   0.454415 0.807048 0.900315 0.220922
C8    C     C_R   0.556655 0.251240 0.848193 0.248935
C9    C     C_R   0.559633 0.686382 0.877253 0.200762
C10   C     C_R   0.441469 0.263887 0.920877 0.210694
C11   C     C_R   0.447253 0.739066 0.923965 0.201212
C12   C     C_R   0.557505 0.315102 0.875941 0.200037
C13   C     C_R   0.783660 0.940770 0.709128 -0.109931
C14   C     C_R   0.236251 0.041120 0.708760 -0.108191
C15   C     C_R   0.266103 0.910687 0.695760 -0.132925
C16   C     C_R   0.773050 0.074862 0.702783 -0.111881
C17   C     C_R   0.865319 0.943880 0.691353 -0.146507
C18   C     C_R   0.155595 0.031461 0.690616 -0.155522
C19   C     C_R   0.185412 0.901301 0.677629 -0.134284
C20   C     C_R   0.854721 0.077694 0.685016 -0.146565
H1    H     H_    0.901361 0.893441 0.686997 0.159025
H2    H     H_    0.112500 0.077889 0.688694 0.151490
H3    H     H_    0.165337 0.847311 0.665702 0.156457
H4    H     H_    0.882573 0.130499 0.675765 0.161054
C21   C     C_3   0.511926 0.000390 0.783221 -0.074774
C22   C     C_R   0.513487 0.814212 0.864772 -0.210630
C23   C     C_R   0.498712 0.193697 0.857178 -0.212528
C24   C     C_R   0.500434 0.678728 0.912976 -0.336795
C25   C     C_R   0.500034 0.321819 0.912552 -0.343450
C26   C     C_R   0.737386 0.006341 0.714984 0.092124
C27   C     C_R   0.291628 0.980630 0.711507 0.113492
C28   C     C_R   0.900883 0.012303 0.679518 0.020799
C29   C     C_R   0.130131 0.961536 0.675315 0.028382
H5    H     H_    0.757091 0.887560 0.718842 0.186512
H6    H     H_    0.254922 0.095254 0.721265 0.161983
H7    H     H_    0.307982 0.863344 0.698164 0.155754
H8    H     H_    0.738233 0.125976 0.707566 0.185822
C30   C     C_1   0.513999 0.935621 0.813464 0.062825
C31   C     C_1   0.506986 0.068537 0.810119 0.082632
C32   C     C_1   0.589308 0.002030 0.756067 0.046438
C33   C     C_1   0.436868 0.994825 0.754486 0.034029
C34   C     C_1   0.514423 0.880906 0.837253 0.192543
C35   C     C_1   0.503114 0.125363 0.831615 0.193273
C36   C     C_1   0.371818 0.988929 0.733655 -0.001053
C37   C     C_1   0.655807 0.003807 0.736250 0.028149
C38   C     C_R   0.653111 0.104903 0.287141 0.265326
C39   C     C_R   0.359136 0.003886 0.274703 0.257241
C40   C     C_R   0.429610 0.088032 0.328107 0.197466
C41   C     C_R   0.591871 0.981276 0.298590 0.194108
C42   C     C_R   0.715435 0.087276 0.319667 0.266774
C43   C     C_R   0.297657 0.989050 0.308441 0.258984
C44   C     C_R   0.367941 0.071788 0.360979 0.249743
C45   C     C_R   0.653746 0.965783 0.331647 0.252329
C46   C     C_R   0.546972 0.182610 0.196913 -0.100627
C47   C     C_R   0.439589 0.045166 0.170170 -0.118017
C48   C     C_R   0.427066 0.202611 0.245744 -0.083686
C49   C     C_R   0.571092 0.985091 0.188608 -0.071003
C50   C     C_R   0.539079 0.254830 0.179820 -0.101885
C51   C     C_R   0.441592 0.013668 0.126811 -0.066209
C52   C     C_R   0.419538 0.274893 0.228766 -0.088991
C53   C     C_R   0.572786 0.953458 0.145220 -0.121236
H9    H     H_    0.581996 0.274043 0.153614 0.147588
H10   H     H_    0.391917 0.026489 0.102787 0.178267
H11   H     H_    0.368527 0.309766 0.240624 0.162475
H12   H     H_    0.625968 0.919430 0.135403 0.157620
C54   C     C_3   0.502900 0.072936 0.249227 0.004763
C55   C     C_R   0.585941 0.053458 0.277165 -0.216278
C56   C     C_R   0.427899 0.054515 0.283465 -0.213514
C57   C     C_R   0.712981 0.019701 0.343235 -0.183991
C58   C     C_R   0.302656 0.022623 0.351198 -0.196910
C59   C     C_R   0.494940 0.155818 0.232826 0.108761
C60   C     C_R   0.502207 0.029116 0.203293 0.109382
C61   C     C_R   0.476401 0.301655 0.196464 0.107660
C62   C     C_R   0.507895 0.967279 0.114354 0.094309
H13   H     H_    0.595442 0.147518 0.182569 0.161463
H14   H     H_    0.388601 0.082867 0.178080 0.162438
H15   H     H_    0.378231 0.184620 0.268786 0.147090
H16   H     H_    0.625693 0.975782 0.209679 0.155155
C63   C     C_1   0.239132 0.008975 0.385412 0.181060
C64   C     C_1   0.769731 0.007741 0.380968 0.187799
C65   C     C_1   0.186506 0.002184 0.414628 -0.068897
C66   C     C_1   0.817483 0.001832 0.412591 -0.065555
C67   C     C_1   0.469500 0.376880 0.180068 -0.040487
C68   C     C_1   0.511010 0.936150 0.069294 -0.058029
C69   C     C_1   0.463630 0.440065 0.166681 0.058883
C70   C     C_1   0.513794 0.910313 0.031510 0.246337
O9    O     O_R   0.093410 0.059470 0.464300 -0.564299
O10   O     O_R   0.906590 0.940530 0.464300 -0.565645
O11   O     O_R   0.906590 0.059470 0.464300 -0.560033
O12   O     O_R   0.093410 0.940530 0.464300 -0.568145
O13   O     O_R   0.920740 0.061400 0.553530 -0.558062
O14   O     O_R   0.079260 0.938600 0.553530 -0.561138
O15   O     O_R   0.079260 0.061400 0.553530 -0.554787
O16   O     O_R   0.920740 0.938600 0.553530 -0.556901
Cu3   Cu    Cu3+1 1.000000 0.072960 0.508900 1.063483
Cu4   Cu    Cu3+1 1.000000 0.927040 0.508900 1.049957
C71   C     C_R   0.123142 0.000249 0.449223 0.843763
C72   C     C_R   0.876838 0.000186 0.449217 0.839407
C73   C     C_R   0.892781 0.999884 0.569169 0.722145
C74   C     C_R   0.107184 0.999945 0.569151 0.721899
N1    N     N_R   0.613590 0.625420 0.865457 0.184678
O17   O     O_R   0.694508 0.635171 0.861993 -0.237068
O18   O     O_R   0.581846 0.559990 0.857899 -0.280048
N2    N     N_R   0.383132 0.268928 0.958001 0.178448
O19   O     O_R   0.410602 0.268415 0.999695 -0.350125
O20   O     O_R   0.302558 0.265542 0.950401 -0.254068
N3    N     N_R   0.389937 0.733417 0.961492 0.169234
O21   O     O_R   0.406740 0.767057 0.999529 -0.344340
O22   O     O_R   0.316279 0.703313 0.955660 -0.252920
N4    N     N_R   0.613242 0.375080 0.864706 0.180962
O23   O     O_R   0.682304 0.383977 0.887824 -0.248218
O24   O     O_R   0.604927 0.409048 0.825803 -0.226518
N5    N     N_R   0.623136 0.760566 0.815236 0.161819
O25   O     O_R   0.623939 0.710354 0.783479 -0.265667
O26   O     O_R   0.673667 0.817287 0.812014 -0.342430
N6    N     N_R   0.383203 0.140277 0.903017 0.180286
O27   O     O_R   0.376500 0.114112 0.944221 -0.238577
O28   O     O_R   0.338098 0.111111 0.870710 -0.299454
N7    N     N_R   0.401154 0.868623 0.912376 0.162949
O29   O     O_R   0.320914 0.858710 0.918903 -0.231871
O30   O     O_R   0.432798 0.934813 0.917338 -0.312215
N8    N     N_R   0.616073 0.244436 0.811411 0.161104
O31   O     O_R   0.695282 0.259462 0.817872 -0.259877
O32   O     O_R   0.591240 0.223448 0.771248 -0.340701
N9    N     N_R   0.780730 0.140100 0.329794 0.171130
O33   O     O_R   0.761705 0.205919 0.344738 -0.218742
O34   O     O_R   0.859444 0.120718 0.327061 -0.311478
N10   N     N_R   0.230177 0.937982 0.299147 0.176307
O35   O     O_R   0.246503 0.870314 0.286504 -0.215386
O36   O     O_R   0.152249 0.958441 0.304366 -0.309412
N11   N     N_R   0.372461 0.105822 0.405146 0.173649
O37   O     O_R   0.370297 0.177761 0.409017 -0.253981
O38   O     O_R   0.376972 0.064855 0.441654 -0.308033
N12   N     N_R   0.654452 0.894954 0.354443 0.175974
O39   O     O_R   0.661540 0.833960 0.331143 -0.241717
O40   O     O_R   0.647948 0.891221 0.398555 -0.295105
N13   N     N_R   0.661556 0.175359 0.265111 0.134038
O41   O     O_R   0.722069 0.184444 0.235718 -0.321967
O42   O     O_R   0.628633 0.233871 0.283906 -0.225139
N14   N     N_R   0.348734 0.965939 0.232378 0.140018
O43   O     O_R   0.282540 0.980244 0.207762 -0.306954
O44   O     O_R   0.388733 0.904000 0.225498 -0.221019
N15   N     N_R   0.495957 0.137219 0.341897 0.155766
O45   O     O_R   0.485794 0.208426 0.336831 -0.255993
O46   O     O_R   0.548151 0.114375 0.373062 -0.299342
N16   N     N_R   0.531661 0.923747 0.289648 0.166391
O47   O     O_R   0.549027 0.874799 0.258579 -0.265179
O48   O     O_R   0.479677 0.904843 0.321949 -0.278675

loop_
_geom_bond_atom_site_label_1
_geom_bond_atom_site_label_2
_geom_bond_distance
_ccdc_geom_bond_type
C40   C44   1.404949 A    
O7    Cu2   2.000790 S    
C53   H12   1.083628 S    
C42   C57   1.397808 A    
N6    O27   1.301269 A    
N5    O25   1.301292 A    
C46   H13   1.082604 S    
C8    N8    1.439889 S    
N13   O41   1.301547 A    
O1    C1    1.287118 A    
O2    C2    1.287040 A    
C41   C55   1.444741 A    
O16   Cu4   1.829722 S    
N2    O19   1.300309 A    
C47   H14   1.082935 S    
C45   C57   1.394497 A    
C12   N4    1.433132 S    
O11   C72   1.249497 A    
C49   H16   1.078822 S    
C5    N5    1.438913 S    
O15   C74   1.276103 A    
C14   H6    1.083821 S    
C46   C50   1.397605 A    
C44   C58   1.393614 A    
N16   O47   1.300473 A    
N13   O42   1.301007 A    
C8    C23   1.409207 A    
C54   C56   1.592632 S    
N7    O29   1.301116 A    
N3    O22   1.300883 A    
O16   C73   1.276571 A    
C31   C35   1.205646 T    
C43   N10   1.438530 S    
N5    O26   1.301385 A    
C43   C58   1.397948 A    
O13   C73   1.276507 A    
C13   C26   1.402220 A    
C61   C67   1.439774 S    
C19   H3    1.082129 S    
O10   C72   1.253200 A    
C58   C63   1.444058 S    
C57   C64   1.444812 S    
C11   N3    1.432570 S    
C4    C25   1.488971 S    
C66   C72   1.431285 S    
C11   C24   1.414825 A    
N1    O17   1.301284 A    
N8    O31   1.301152 A    
C52   H11   1.083702 S    
N6    O28   1.301335 A    
C45   N12   1.437934 S    
C51   H10   1.083479 S    
C7    C22   1.408861 A    
C13   C17   1.399206 A    
C63   C65   1.203542 T    
Cu1   Cu2   2.686064 S    
O5    C3    1.314115 A    
C22   C34   1.444811 S    
C50   H9    1.083475 S    
C6    C23   1.407453 A    
O9    Cu3   1.994527 S    
N9    O33   1.300781 A    
C67   C69   1.205734 T    
C19   C29   1.397486 A    
C15   C19   1.398884 A    
C14   C27   1.402659 A    
C21   C30   1.463487 S    
N4    O24   1.300804 A    
O13   Cu3   1.828347 S    
O11   Cu3   1.995423 S    
C20   H4    1.081773 S    
C17   H1    1.081817 S    
C65   C71   1.430245 S    
C18   H2    1.082223 S    
O1    Cu1   2.005892 S    
C54   C55   1.592851 S    
N12   O40   1.301172 A    
C15   C27   1.402504 A    
C48   H15   1.078053 S    
C10   C25   1.417396 A    
O8    Cu1   2.007920 S    
O4    C2    1.286973 A    
C7    N7    1.440269 S    
C7    C11   1.409330 A    
C13   H5    1.083531 S    
C38   C42   1.411902 A    
C5    C9    1.412086 A    
C21   C31   1.463657 S    
C40   N15   1.435464 S    
O6    C4    1.315321 A    
C64   C66   1.204151 T    
O7    C3    1.315442 A    
C6    C10   1.410046 A    
C26   C37   1.439044 S    
C39   N14   1.430268 S    
C21   C32   1.465269 S    
N1    O18   1.300662 A    
C62   C68   1.439964 S    
C68   C70   1.205659 T    
C52   C61   1.393960 A    
C42   N9    1.438554 S    
C3    C24   1.484723 S    
N10   O36   1.301211 A    
C16   H8    1.083550 S    
C16   C20   1.399117 A    
C21   C33   1.464996 S    
O15   Cu3   1.829761 S    
N14   O44   1.300238 A    
O14   C74   1.276619 A    
N15   O46   1.301329 A    
C44   N11   1.438485 S    
C54   C60   1.565367 S    
O2    Cu2   2.012987 S    
C5    C22   1.410046 A    
N4    O23   1.300816 A    
C53   C62   1.395266 A    
N9    O34   1.301202 A    
O12   C71   1.253014 A    
O8    C4    1.316778 A    
C38   C55   1.443194 A    
C8    C12   1.411649 A    
C50   C61   1.394671 A    
O12   Cu4   1.993004 S    
C39   C56   1.445887 A    
C14   C18   1.399111 A    
O5    Cu1   2.000363 S    
N12   O39   1.300810 A    
C54   C59   1.571286 S    
O6    Cu2   2.007808 S    
N2    O20   1.301046 A    
C41   N16   1.434191 S    
C39   C43   1.415520 A    
C9    N1    1.436426 S    
Cu3   Cu4   2.626599 S    
C18   C29   1.397637 A    
C41   C45   1.409476 A    
C32   C37   1.206294 T    
O10   Cu4   1.994584 S    
C33   C36   1.206164 T    
C38   N13   1.427787 S    
N11   O38   1.301199 A    
O4    Cu1   2.012857 S    
C23   C35   1.445169 S    
C51   C62   1.394369 A    
N11   O37   1.300809 A    
C48   C59   1.421229 A    
C10   N2    1.433836 S    
C17   C28   1.397239 A    
C16   C26   1.402115 A    
C47   C60   1.421074 A    
C48   C52   1.396911 A    
C47   C51   1.396278 A    
C12   C25   1.415853 A    
N16   O48   1.301592 A    
O14   Cu4   1.830595 S    
C49   C53   1.397957 A    
C27   C36   1.438798 S    
C46   C59   1.422320 A    
O3    C1    1.286393 A    
N10   O35   1.301007 A    
C40   C56   1.445621 A    
O9    C71   1.248902 A    
C30   C34   1.205482 T    
C9    C24   1.414898 A    
C49   C60   1.419653 A    
N8    O32   1.301360 A    
O3    Cu2   2.005396 S    
N14   O43   1.301992 A    
C20   C28   1.397269 A    
N15   O45   1.300047 A    
N3    O21   1.300426 A    
C6    N6    1.439369 S    
C15   H7    1.083805 S    
N7    O30   1.301453 A    
