data_mof_unit_30671.cif
_audit_creation_date              2012-12-10T17:22:20-0500
_audit_creation_method            fapswitch 2.2
_symmetry_space_group_name_H-M    P1
_symmetry_Int_Tables_number       1
_space_group_crystal_system       triclinic
_cell_length_a                    18.761929
_cell_length_b                    18.694987
_cell_length_c                    18.854685
_cell_angle_alpha                 109.211877
_cell_angle_beta                  109.830632
_cell_angle_gamma                 109.086886
_cell_volume                      5108.56082924

loop_
_atom_site_label
_atom_site_type_symbol
_atom_type_description
_atom_site_fract_x
_atom_site_fract_y
_atom_site_fract_z
_atom_type_partial_charge
C1    C     C_R   0.380367 0.380157 0.500085 0.841647
C2    C     C_3   0.808996 0.497488 0.806474 -0.082061
C3    C     C_3   0.846942 0.544391 0.760911 0.802445
C4    C     C_3   0.773806 0.551787 0.850747 -0.614531
C5    C     C_R   0.408600 0.375133 0.656879 -0.258065
C6    C     C_R   0.418541 0.384331 0.736419 0.347356
C7    C     C_R   0.345676 0.335555 0.739808 0.334875
C8    C     C_R   0.264002 0.277945 0.662439 0.314161
C9    C     C_R   0.258489 0.259214 0.580344 -0.068194
C10   C     C_R   0.327891 0.315945 0.578972 -0.064325
C11   C     C_R   0.186312 0.186383 0.499503 -0.172436
C12   C     C_R   0.618521 0.498037 0.620681 0.915425
C13   C     C_R   0.178707 0.177642 0.418749 0.017302
C14   C     C_R   0.237581 0.248792 0.420673 0.004133
C15   C     C_R   0.314277 0.313956 0.499935 -0.091852
C16   C     C_R   0.114903 0.101347 0.336047 0.476064
C17   C     C_R   0.100689 0.105490 0.259584 -0.246030
C18   C     C_R   0.150666 0.181588 0.263539 -0.183662
C19   C     C_R   0.219573 0.252166 0.342906 -0.161487
C20   C     C_R   0.226391 0.487936 0.385113 -0.148067
C21   C     C_R   0.160570 0.497941 0.397765 -0.140000
C22   C     C_R   0.107814 0.518037 0.345148 -0.153791
C23   C     C_R   0.616147 0.621090 0.497227 0.973833
C24   C     C_R   0.117141 0.522467 0.276386 -0.148716
C25   C     C_R   0.179986 0.506559 0.259082 0.060054
C26   C     C_R   0.240629 0.497777 0.318715 0.051956
C27   C     C_R   0.182294 0.497149 0.182819 -0.186584
C28   C     C_R   0.244120 0.480243 0.165705 0.008209
C29   C     C_R   0.316735 0.491535 0.233321 -0.018978
C30   C     C_R   0.313148 0.498644 0.310080 -0.244159
C31   C     C_R   0.233905 0.451377 0.081670 -0.158983
C32   C     C_R   0.295433 0.436287 0.065272 -0.194348
C33   C     C_R   0.372160 0.457770 0.133216 -0.267110
C34   C     C_R   0.380959 0.501346 0.378825 0.952507
C35   C     C_R   0.388229 0.493824 0.219719 0.522459
C36   C     C_R   0.610543 0.789093 0.513868 0.364605
C37   C     C_R   0.623537 0.875054 0.536817 0.305548
C38   C     C_R   0.686338 0.930454 0.527552 0.399391
C39   C     C_R   0.749221 0.911388 0.520687 -0.354127
C40   C     C_R   0.746879 0.832118 0.509776 -0.045015
C41   C     C_R   0.678069 0.769072 0.507507 -0.072648
C42   C     C_R   0.812131 0.815302 0.499293 -0.073958
C43   C     C_R   0.813049 0.737937 0.488800 0.067157
C44   C     C_R   0.754074 0.680258 0.499489 -0.027328
C45   C     C_3   0.654189 0.402044 0.672388 0.104861
C46   C     C_R   0.683116 0.691483 0.501607 -0.158692
C47   C     C_R   0.871972 0.716777 0.467838 -0.220082
C48   C     C_R   0.877272 0.643726 0.465824 -0.253052
C49   C     C_R   0.827056 0.592401 0.488757 0.499178
C50   C     C_R   0.768053 0.612313 0.507783 -0.170188
C51   C     C_R   0.996845 0.380395 0.876451 0.841115
C52   C     C_R   0.876873 0.497701 0.874350 0.945105
C53   C     C_R   0.000142 0.620625 0.119446 0.923187
C54   C     C_R   0.117390 0.500646 0.118621 0.894059
C55   C     C_R   0.003862 0.882970 0.381359 0.998828
C56   C     C_3   0.727614 0.402132 0.742253 0.212883
C57   C     C_R   0.120011 0.119923 0.499691 1.118900
C58   C     C_R   0.997762 0.118144 0.619448 0.914345
C59   C     C_R   0.879944 0.879593 0.499139 0.847929
C60   C     C_R   0.014079 0.400606 0.735436 -0.232932
C61   C     C_R   0.034420 0.417178 0.676129 0.550371
C62   C     C_R   0.045681 0.356667 0.620361 -0.282176
C63   C     C_R   0.031737 0.279327 0.621640 -0.189892
C64   C     C_R   0.011488 0.262238 0.682646 0.087860
C65   C     C_R   0.007575 0.326099 0.743548 -0.017562
C66   C     C_R   0.998580 0.184609 0.686149 -0.179951
C67   C     C_3   0.769744 0.530910 0.683061 -0.486194
C68   C     C_R   0.997258 0.176282 0.758536 -0.063917
C69   C     C_R   0.007647 0.247491 0.826146 0.045460
C70   C     C_R   0.001677 0.315922 0.813070 -0.140377
C71   C     C_R   0.990460 0.101966 0.769341 0.461091
C72   C     C_R   0.010520 0.107625 0.849997 -0.121188
C73   C     C_R   0.030183 0.182020 0.918915 -0.246116
C74   C     C_R   0.026770 0.250345 0.906959 -0.151268
C75   C     C_R   0.168673 0.779493 0.260157 0.531099
C76   C     C_R   0.234073 0.865682 0.297016 -0.347984
C77   C     C_R   0.231339 0.933613 0.351124 -0.313836
C78   C     C_3   0.704489 0.556739 0.781763 0.323272
C79   C     C_R   0.165813 0.916579 0.372774 0.550806
C80   C     C_R   0.086140 0.834238 0.316133 -0.094665
C81   C     C_R   0.086232 0.765925 0.254280 -0.081584
C82   C     C_R   0.006665 0.817778 0.317221 -0.182955
C83   C     C_R   0.926707 0.741329 0.251532 0.054260
C84   C     C_R   0.924682 0.681898 0.181506 0.082905
C85   C     C_R   0.004332 0.689352 0.187630 -0.183611
C86   C     C_R   0.847182 0.724733 0.251685 -0.156737
C87   C     C_R   0.767437 0.659783 0.178053 -0.131128
C88   C     C_R   0.764951 0.607658 0.104318 -0.147102
C89   C     C_3   0.685570 0.497116 0.688394 -0.069488
C90   C     C_R   0.842390 0.617897 0.105749 -0.156430
H1    H     H_    0.827810 0.618152 0.903759 0.250545
H2    H     H_    0.784891 0.593370 0.682331 0.180761
H3    H     H_    0.138318 0.184694 0.204506 0.157303
H4    H     H_    0.465550 0.414992 0.657136 0.175342
H5    H     H_    0.051047 0.049190 0.196527 0.135929
H6    H     H_    0.595687 0.382377 0.680586 0.060514
H7    H     H_    0.258439 0.309200 0.342476 0.147612
H8    H     H_    0.419611 0.448183 0.117276 0.145403
H9    H     H_    0.264135 0.470556 0.426820 0.146305
H10   H     H_    0.151145 0.490750 0.449028 0.146538
H11   H     H_    0.058000 0.528066 0.355987 0.144364
H12   H     H_    0.074068 0.537632 0.236894 0.161045
H13   H     H_    0.176834 0.437128 0.026863 0.147441
H14   H     H_    0.285063 0.410962 0.999929 0.177930
H15   H     H_    0.699248 0.387245 0.782229 0.130669
H16   H     H_    0.801461 0.963440 0.526552 0.199156
H17   H     H_    0.913755 0.755587 0.451668 0.150073
H18   H     H_    0.922065 0.628711 0.448538 0.137597
H19   H     H_    0.733878 0.573562 0.529263 0.162721
H20   H     H_    0.045636 0.185828 0.981292 0.162073
H21   H     H_    0.005051 0.449157 0.775270 0.220864
H22   H     H_    0.066302 0.369405 0.576653 0.147353
H23   H     H_    0.041587 0.235689 0.576844 0.204430
H24   H     H_    0.008183 0.052471 0.858425 0.164152
H25   H     H_    0.042171 0.306416 0.963040 0.157588
H26   H     H_    0.702956 0.558846 0.046000 0.138213
H27   H     H_    0.291319 0.880898 0.290467 0.167067
H28   H     H_    0.285457 0.998917 0.383501 0.170765
H29   H     H_    0.759378 0.484653 0.620625 0.207643
H30   H     H_    0.845112 0.762729 0.307508 0.132884
H31   H     H_    0.707503 0.651805 0.177528 0.135267
H32   H     H_    0.836343 0.577052 0.045690 0.144724
H33   H     H_    0.642336 0.530215 0.782762 0.103739
H34   H     H_    0.743983 0.522110 0.882988 0.139251
O1    O     O_R   0.408690 0.356690 0.448570 -0.620432
O2    O     O_R   0.049540 0.460090 0.906170 -0.638687
O3    O     O_R   0.853530 0.448360 0.905250 -0.637731
O4    O     O_R   0.956970 0.551730 0.905180 -0.559264
O5    O     O_R   0.945170 0.540000 0.088470 -0.649014
O6    O     O_R   0.048600 0.643370 0.088400 -0.571087
O7    O     O_R   0.037740 0.448360 0.089460 -0.637156
O8    O     O_R   0.141170 0.551730 0.089390 -0.611934
O9    O     O_R   0.948510 0.908450 0.356890 -0.614464
O10   O     O_R   0.052500 0.908420 0.460860 -0.622885
O11   O     O_R   0.039610 0.091640 0.448030 -0.612010
O12   O     O_R   0.408090 0.460090 0.551440 -0.641477
O13   O     O_R   0.143600 0.091610 0.551990 -0.598482
O14   O     O_R   0.947500 0.091600 0.539170 -0.661782
O15   O     O_R   0.051490 0.091570 0.643140 -0.560715
O16   O     O_R   0.856400 0.908420 0.448030 -0.664872
O17   O     O_R   0.960390 0.908390 0.552000 -0.584415
O18   O     O_R   0.592400 0.448300 0.540670 -0.568431
O19   O     O_R   0.591800 0.551700 0.643540 -0.635182
O20   O     O_R   0.591910 0.539910 0.448560 -0.639339
O21   O     O_R   0.591310 0.643310 0.551430 -0.557166
O22   O     O_R   0.408200 0.448300 0.356460 -0.588624
O23   O     O_R   0.407600 0.551700 0.459330 -0.636540
O24   O     O_R   0.946100 0.356720 0.906240 -0.608653
Zn1   Zn    Zn3+2 0.500400 0.430960 0.431310 0.994186
Zn2   Zn    Zn3+2 0.499600 0.569040 0.568690 0.956016
Zn3   Zn    Zn3+2 0.928290 0.431030 0.997370 0.959777
Zn4   Zn    Zn3+2 0.066410 0.569060 0.997270 1.008781
Zn5   Zn    Zn3+2 0.930570 0.000030 0.430590 0.942627
Zn6   Zn    Zn3+2 0.069430 0.999990 0.569430 0.987048
O25   O     O_3   0.629347 0.343002 0.587838 -0.732410
H35   H     H_    0.590126 0.284185 0.575157 0.347032
O26   O     O_3   0.902031 0.634568 0.820906 -0.721235
H36   H     H_    0.928164 0.662772 0.792931 0.331066
O27   O     O_3   0.499478 0.444248 0.809370 -0.806447
H37   H     H_    0.496288 0.449064 0.861936 0.358442
O28   O     O_3   0.352532 0.347056 0.818749 -0.665286
C91   C     C_3   0.383390 0.293879 0.842077 0.027815
H38   H     H_    0.417364 0.325541 0.914014 0.174430
H39   H     H_    0.432494 0.288580 0.823071 0.134126
C92   C     C_3   0.307704 0.202909 0.804413 -0.326250
H40   H     H_    0.258199 0.209033 0.821855 0.241576
H41   H     H_    0.276495 0.167699 0.732594 0.232258
C93   C     C_3   0.339212 0.149381 0.838859 -0.971767
H42   H     H_    0.389247 0.142900 0.822666 0.258943
H43   H     H_    0.283446 0.083289 0.808701 0.269354
H44   H     H_    0.367474 0.180975 0.910369 0.269500
O29   O     O_3   0.188758 0.243955 0.666033 -0.797346
H45   H     H_    0.201029 0.272068 0.726569 0.371571
O30   O     O_3   0.071667 0.022318 0.330253 -0.762053
H46   H     H_    0.031897 0.976512 0.268428 0.324033
O31   O     O_3   0.470938 0.531535 0.290937 -0.644663
C94   C     C_3   0.540973 0.564071 0.275926 0.075026
H47   H     H_    0.593839 0.626351 0.334769 0.155486
H48   H     H_    0.525630 0.582712 0.224580 0.121072
C95   C     C_3   0.576234 0.500372 0.259699 -0.321251
H49   H     H_    0.607090 0.497534 0.319495 0.254560
H50   H     H_    0.522511 0.433538 0.208506 0.209425
C96   C     C_3   0.643945 0.528192 0.232897 -0.973238
H51   H     H_    0.612906 0.524730 0.169284 0.256311
H52   H     H_    0.671523 0.483679 0.226359 0.275827
H53   H     H_    0.697792 0.595561 0.282708 0.272976
O32   O     O_3   0.832801 0.521690 0.491811 -0.808810
H54   H     H_    0.873680 0.513550 0.472081 0.322386
O33   O     O_3   0.536909 0.727487 0.505159 -0.604126
C97   C     C_3   0.458688 0.729493 0.465527 0.170462
H55   H     H_    0.411863 0.666987 0.404735 0.139042
H56   H     H_    0.464095 0.778483 0.444086 0.090442
C98   C     C_3   0.420243 0.739579 0.526069 -0.279056
H57   H     H_    0.409772 0.686371 0.542055 0.239574
H58   H     H_    0.466620 0.801594 0.588258 0.243716
C99   C     C_3   0.333551 0.737568 0.485556 -1.016095
H59   H     H_    0.286573 0.677189 0.422169 0.281797
H60   H     H_    0.342802 0.794782 0.476278 0.251854
H61   H     H_    0.305733 0.739322 0.529130 0.275572
O34   O     O_3   0.589196 0.907412 0.586518 -0.637050
C100  C     C_3   0.545126 0.949181 0.556480 0.110468
H62   H     H_    0.479085 0.918322 0.547774 0.135612
H63   H     H_    0.533856 0.940557 0.491926 0.113400
C101  C     C_3   0.591178 0.045393 0.625098 -0.251541
H64   H     H_    0.588057 0.050020 0.684173 0.208674
H65   H     H_    0.660940 0.078144 0.644092 0.266614
C102  C     C_3   0.548441 0.093205 0.591879 -0.999111
H66   H     H_    0.550945 0.089642 0.532884 0.257822
H67   H     H_    0.583571 0.162762 0.642595 0.291527
H68   H     H_    0.479397 0.063916 0.575986 0.252096
O35   O     O_3   0.692141 0.007561 0.531713 -0.648759
C103  C     C_3   0.650461 0.993957 0.446105 0.041889
H69   H     H_    0.631312 0.044790 0.450009 0.174222
H70   H     H_    0.589175 0.930155 0.401138 0.109644
C104  C     C_3   0.710217 0.001237 0.406589 -0.343959
H71   H     H_    0.775067 0.060275 0.454025 0.248087
H72   H     H_    0.719291 0.943412 0.389722 0.229786
C105  C     C_3   0.670391 0.004188 0.322970 -0.968954
H73   H     H_    0.607694 0.943018 0.273639 0.267281
H74   H     H_    0.715671 0.010928 0.296909 0.264857
H75   H     H_    0.658413 0.060222 0.334931 0.264729
O36   O     O_3   0.055814 0.499331 0.685279 -0.640823
C106  C     C_3   0.020835 0.498035 0.605352 0.080078
H76   H     H_    0.982050 0.531661 0.608479 0.191889
H77   H     H_    0.975418 0.431820 0.547159 0.116695
C107  C     C_3   0.095636 0.549238 0.595326 -0.319294
H78   H     H_    0.146169 0.609834 0.658080 0.248585
H79   H     H_    0.126045 0.509451 0.577623 0.200541
C108  C     C_3   0.064210 0.574482 0.526462 -1.018830
H80   H     H_    0.012900 0.515389 0.462929 0.260009
H81   H     H_    0.119796 0.610292 0.520076 0.272422
H82   H     H_    0.037899 0.618066 0.545949 0.271921
O37   O     O_3   0.742633 0.330765 0.712224 -0.638617
C109  C     C_3   0.784672 0.334167 0.663204 0.203253
H83   H     H_    0.854758 0.361677 0.706870 0.155595
H84   H     H_    0.774816 0.372610 0.631003 0.218195
C110  C     C_3   0.749599 0.242405 0.591945 -0.346953
H85   H     H_    0.766080 0.203225 0.621256 0.248829
H86   H     H_    0.677608 0.210387 0.552445 0.236167
C111  C     C_3   0.787894 0.245587 0.532655 -0.953959
H87   H     H_    0.777239 0.289179 0.507161 0.273837
H88   H     H_    0.755681 0.179895 0.476730 0.273401
H89   H     H_    0.858572 0.268852 0.568226 0.272374
O38   O     O_3   0.960307 0.021379 0.702990 -0.744357
H90   H     H_    0.911903 0.012229 0.652432 0.309973
O39   O     O_3   0.182185 0.709322 0.227576 -0.634355
C112  C     C_3   0.269641 0.727960 0.273653 0.077981
H91   H     H_    0.267616 0.672394 0.283551 0.158172
H92   H     H_    0.308776 0.785128 0.340321 0.113580
C113  C     C_3   0.315929 0.737474 0.221102 -0.295913
H93   H     H_    0.281338 0.676812 0.158314 0.255185
H94   H     H_    0.316648 0.790295 0.206324 0.201991
C114  C     C_3   0.409328 0.756759 0.269915 -1.033033
H95   H     H_    0.446121 0.817678 0.333114 0.242609
H96   H     H_    0.441702 0.765172 0.231404 0.274454
H97   H     H_    0.410050 0.702025 0.280782 0.266338
O40   O     O_3   0.179630 0.981063 0.447045 -0.614062
C115  C     C_3   0.255083 0.003804 0.522039 0.113020
H98   H     H_    0.266976 0.060020 0.578231 0.170531
H99   H     H_    0.315060 0.027631 0.517553 0.109567
C116  C     C_3   0.243937 0.929221 0.543084 -0.376035
H100  H     H_    0.189111 0.912213 0.556227 0.243899
H101  H     H_    0.229353 0.870387 0.487427 0.210670
C117  C     C_3   0.326404 0.955245 0.622454 -0.977098
H102  H     H_    0.381738 0.969189 0.609871 0.265445
H103  H     H_    0.315790 0.900971 0.637021 0.273611
H104  H     H_    0.342949 0.013785 0.679728 0.266421
O41   O     O_3   0.896419 0.511659 0.733927 -0.842593
H105  H     H_    0.914375 0.539182 0.701509 0.334442
O42   O     O_3   0.734641 0.644474 0.799736 -0.579640
C118  C     C_3   0.719801 0.691841 0.863937 0.114089
H106  H     H_    0.773387 0.760475 0.901447 0.165511
H107  H     H_    0.721842 0.668648 0.911706 0.123427
C119  C     C_3   0.633070 0.689920 0.821617 -0.318509
H108  H     H_    0.632439 0.714346 0.775152 0.238496
H109  H     H_    0.578301 0.622002 0.785339 0.236061
C120  C     C_3   0.619224 0.746178 0.889424 -0.967398
H110  H     H_    0.618288 0.722031 0.935815 0.273120
H111  H     H_    0.555885 0.743256 0.856817 0.268844
H112  H     H_    0.672025 0.815050 0.925556 0.264839

loop_
_geom_bond_atom_site_label_1
_geom_bond_atom_site_label_2
_ccdc_geom_bond_type
C58   O15   A    
C8    C9    A    
C118  C119  S    
C66   C68   A    
C56   O37   S    
C97   H55   S    
C31   H13   S    
C39   H16   S    
C119  C120  S    
C100  H63   S    
C73   C74   A    
O7    Zn3   S    
C106  H76   S    
O24   Zn3   S    
C43   C44   A    
C102  H67   S    
C13   C16   A    
C5    H4    S    
C19   H7    S    
C106  C107  S    
C7    C8    A    
C48   H18   S    
C95   H49   S    
O35   C103  S    
C54   O7    A    
C23   O21   A    
C58   C66   S    
C92   H40   S    
C22   H11   S    
C109  H84   S    
O9    Zn5   S    
C35   O31   S    
C51   O24   A    
O18   Zn1   S    
C21   C22   A    
C36   C37   A    
C1    O1    A    
C71   O38   S    
O5    Zn3   S    
C108  H82   S    
C10   C15   A    
C104  H72   S    
C114  H95   S    
O17   Zn6   S    
C99   H59   S    
C113  H94   S    
C65   C70   A    
O22   Zn1   S    
C55   O10   A    
C72   H24   S    
C67   C89   S    
C110  H85   S    
C18   C19   A    
O38   H90   S    
C4    H34   S    
C33   H8    S    
C100  H62   S    
C37   O34   S    
C79   C80   A    
C49   C50   A    
O30   H46   S    
C67   H2    S    
C44   C50   A    
C97   C98   S    
O3    Zn3   S    
C61   O36   S    
O2    Zn4   S    
O4    Zn4   S    
C93   H44   S    
O27   H37   S    
C45   C56   S    
C44   C46   A    
O34   C100  S    
C98   H58   S    
C102  H68   S    
C41   C46   A    
C32   H14   S    
C1    C15   S    
C51   C70   S    
C38   O35   S    
C1    O12   A    
C45   C89   S    
C9    C10   A    
O39   C112  S    
C24   H12   S    
O21   Zn2   S    
C95   C96   S    
O16   Zn5   S    
C72   C73   A    
C4    H1    S    
C98   C99   S    
C113  C114  S    
C40   C42   A    
C118  H106  S    
C92   H41   S    
C23   C46   S    
C120  H110  S    
O26   H36   S    
C101  H64   S    
C90   H32   S    
C36   C41   A    
O36   C106  S    
C84   C90   A    
C99   H61   S    
C117  H104  S    
C87   C88   A    
C108  H80   S    
C95   H50   S    
O28   C91   S    
C91   H39   S    
C76   C77   A    
C112  H92   S    
C78   C89   S    
C52   O4    A    
C38   C39   A    
C27   C54   S    
C30   C34   S    
C36   O33   S    
C79   O40   S    
C47   C48   A    
C93   H42   S    
C12   C89   S    
C73   H20   S    
O23   Zn2   S    
C24   C25   A    
C99   H60   S    
C77   H28   S    
C96   H53   S    
C39   C40   A    
C116  H101  S    
C21   H10   S    
C86   C87   A    
C16   C17   A    
O15   Zn6   S    
C94   H48   S    
C25   C26   A    
C55   O9    A    
C82   C83   A    
C111  H89   S    
C6    O27   S    
C102  H66   S    
C60   C61   A    
C109  C110  S    
C64   C66   A    
C88   H26   S    
C50   H19   S    
C2    C4    S    
C75   C76   A    
C28   C31   A    
C96   H51   S    
C4    C78   S    
C37   C38   A    
O19   Zn2   S    
C91   C92   S    
C7    O28   S    
C34   O23   A    
C105  H74   S    
C83   C84   A    
C49   O32   S    
C101  C102  S    
C94   C95   S    
C62   C63   A    
C111  H88   S    
C17   C18   A    
C77   C79   A    
C57   O13   A    
C69   C74   A    
C45   O25   S    
C11   C57   S    
C84   C85   A    
C55   C82   S    
C78   H33   S    
C9    C11   A    
C75   O39   S    
C2    C52   S    
C94   H47   S    
C17   H5    S    
O14   Zn5   S    
C80   C82   A    
O31   C94   S    
C88   C90   A    
C60   C65   A    
C107  H78   S    
C92   C93   S    
C107  H79   S    
C110  H86   S    
O6    Zn4   S    
O8    Zn4   S    
C100  C101  S    
C22   C24   A    
C23   O20   A    
C120  H112  S    
C115  C116  S    
C52   O3    A    
C109  H83   S    
C28   C29   A    
C115  H99   S    
O40   C115  S    
O29   H45   S    
C105  H75   S    
C114  H96   S    
C91   H38   S    
O37   C109  S    
C112  C113  S    
C16   O30   S    
O33   C97   S    
C118  H107  S    
C119  H108  S    
C40   C41   A    
C97   H56   S    
C104  C105  S    
O20   Zn1   S    
O42   C118  S    
C103  C104  S    
C14   C19   A    
C68   C69   A    
C31   C32   A    
C3    C67   S    
C103  H70   S    
C80   C81   A    
C51   O2    A    
O11   Zn5   S    
C42   C59   S    
C114  H97   S    
O12   Zn2   S    
C112  H91   S    
C106  H77   S    
C26   C30   A    
C6    C7    A    
C75   C81   A    
C25   C27   A    
C107  C108  S    
C54   O8    A    
C29   C35   A    
C47   H17   S    
C76   H27   S    
C116  C117  S    
C12   O19   A    
C34   O22   A    
C32   C33   A    
C120  H111  S    
C2    C3    S    
C117  H102  S    
O32   H54   S    
C108  H81   S    
C60   H21   S    
C2    C56   S    
C64   C65   A    
O10   Zn6   S    
C101  H65   S    
C11   C13   A    
C58   O14   A    
C105  H73   S    
C5    C6    A    
C20   H9    S    
C20   C26   A    
C59   O16   A    
C68   C71   A    
C48   C49   A    
C74   H25   S    
C3    O41   S    
C93   H43   S    
C111  H87   S    
C33   C35   A    
C12   O18   A    
O13   Zn6   S    
C115  H98   S    
C119  H109  S    
C78   O42   S    
C104  H71   S    
C61   C62   A    
O1    Zn1   S    
C69   C70   A    
C56   H15   S    
C113  H93   S    
C43   C47   A    
C53   C85   S    
C29   C30   A    
C63   C64   A    
C63   H23   S    
C5    C10   A    
C83   C86   A    
C53   O5    A    
C20   C21   A    
C59   O17   A    
C96   H52   S    
C117  H103  S    
C98   H57   S    
C42   C43   A    
C110  C111  S    
O25   H35   S    
C3    O26   S    
C18   H3    S    
C116  H100  S    
C14   C15   A    
C57   O11   A    
C86   H30   S    
C53   O6    A    
C62   H22   S    
C71   C72   A    
C13   C14   A    
C45   H6    S    
C67   H29   S    
C81   C85   A    
C8    O29   S    
C103  H69   S    
O41   H105  S    
C27   C28   A    
C87   H31   S    
