data_mof_unit_31815.cif
_audit_creation_date              2012-12-10T17:05:22-0500
_audit_creation_method            fapswitch 2.2
_symmetry_space_group_name_H-M    P1
_symmetry_Int_Tables_number       1
_space_group_crystal_system       triclinic
_cell_length_a                    10.03676
_cell_length_b                    10.736245
_cell_length_c                    15.560766
_cell_angle_alpha                 90.189147
_cell_angle_beta                  68.127923
_cell_angle_gamma                 90.021969
_cell_volume                      1556.07576738

loop_
_atom_site_label
_atom_site_type_symbol
_atom_type_description
_atom_site_fract_x
_atom_site_fract_y
_atom_site_fract_z
_atom_type_partial_charge
Br1   Br    Br    0.230372 0.307553 0.365744 -0.525214
Br2   Br    Br    0.056156 0.535346 0.785635 -0.563134
C1    C     C_R   0.498219 0.737246 0.503291 0.916916
C2    C     C_R   0.706107 0.398448 0.042574 0.168493
C3    C     C_R   0.569293 0.449513 0.094008 0.093103
C4    C     C_R   0.410001 0.503431 0.676239 0.913006
C5    C     C_R   0.807627 0.383892 0.084173 -0.203658
C6    C     C_R   0.774809 0.422123 0.175670 -0.203799
C7    C     C_R   0.543905 0.496493 0.181986 -0.211429
C8    C     C_2   0.602956 0.067331 0.514092 -0.170816
C9    C     C_2   0.504788 0.130768 0.493054 -0.303821
C10   C     C_2   0.607642 0.933258 0.508955 -0.164658
C11   C     C_2   0.490956 0.868535 0.515199 -0.317927
C12   C     C_R   0.406661 0.470402 0.917059 -0.035652
C13   C     C_2   0.102214 0.423264 0.450596 0.298531
C14   C     C_2   0.949048 0.416819 0.457304 -0.172176
C15   C     C_R   0.500776 0.262648 0.498871 0.945225
C16   C     C_R   0.589489 0.498061 0.324393 0.880523
C17   C     C_R   0.353984 0.505101 0.778427 -0.245272
C18   C     C_R   0.641796 0.477916 0.224706 -0.052961
C19   C     C_R   0.160940 0.508105 0.929897 -0.255910
C20   C     C_R   0.205375 0.511563 0.833677 0.235164
C21   C     C_R   0.453910 0.499104 0.822502 0.373658
C22   C     C_3   0.627908 0.649920 0.796555 0.109672
C23   C     C_R   0.259925 0.487059 0.971961 0.058717
C24   C     C_3   0.616317 0.744036 0.725856 -0.340797
C25   C     C_3   0.657545 0.874747 0.745688 -0.947692
C26   C     C_R   0.504172 0.437283 0.959310 0.066744
C27   C     C_R   0.462675 0.455466 0.055340 0.054468
C28   C     C_R   0.315790 0.475955 0.109530 -0.194062
C29   C     C_R   0.215124 0.486673 0.068188 -0.179810
C30   C     C_R   0.639826 0.383506 0.909076 -0.149298
C31   C     C_R   0.738363 0.362059 0.950951 -0.221897
H1    H     H_    0.103006 0.499682 0.111483 0.146632
H2    H     H_    0.446382 0.547326 0.219158 0.158530
H3    H     H_    0.850755 0.404736 0.208703 0.159174
H4    H     H_    0.841098 0.320048 0.910938 0.181249
H5    H     H_    0.048542 0.521847 0.971832 0.182822
H6    H     H_    0.275261 0.478114 0.184269 0.174142
H7    H     H_    0.668940 0.353238 0.838067 0.207021
H8    H     H_    0.740178 0.650029 0.793665 0.201044
H9    H     H_    0.559332 0.680173 0.868136 0.126062
H10   H     H_    0.688839 0.715458 0.655208 0.243410
H11   H     H_    0.504416 0.746096 0.728075 0.212613
H12   H     H_    0.910550 0.340492 0.046767 0.148210
H13   H     H_    0.585345 0.906139 0.815651 0.270461
H14   H     H_    0.647400 0.940686 0.693651 0.271378
H15   H     H_    0.770394 0.876011 0.741649 0.271892
H16   H     H_    0.683999 0.114032 0.533262 0.180170
H17   H     H_    0.427544 0.087233 0.468985 0.171958
H18   H     H_    0.708986 0.888030 0.499574 0.179783
H19   H     H_    0.386375 0.910930 0.531316 0.159963
H20   H     H_    0.074567 0.553479 0.548110 0.157019
H21   H     H_    0.919102 0.340479 0.422327 0.188337
H22   H     H_    0.882747 0.575559 0.526724 0.158728
N1    N     N_2   0.148330 0.498670 0.499030 -0.196784
N2    N     N_2   0.852680 0.498640 0.499000 -0.198691
O1    O     O_R   0.386950 0.680940 0.500010 -0.612316
O2    O     O_R   0.613110 0.680900 0.499990 -0.632055
O3    O     O_R   0.322330 0.500030 0.632270 -0.568112
O4    O     O_R   0.548480 0.499990 0.632240 -0.558403
O5    O     O_R   0.386890 0.319100 0.500010 -0.565131
O6    O     O_R   0.613050 0.319060 0.499990 -0.621022
O7    O     O_R   0.451520 0.500010 0.367760 -0.578686
O8    O     O_R   0.677670 0.499970 0.367730 -0.618683
O9    O     O_3   0.597368 0.527883 0.773860 -0.626889
Zn1   Zn    Zn3+2 0.349000 0.500030 0.500020 1.015191
Zn2   Zn    Zn3+2 0.651000 0.499970 0.499980 0.956751

loop_
_geom_bond_atom_site_label_1
_geom_bond_atom_site_label_2
_ccdc_geom_bond_type
C12   C21   A    
C23   C29   A    
C17   C21   A    
O7    Zn1   S    
Br2   C20   S    
C27   C28   A    
Br1   C13   S    
C4    O4    A    
C15   O5    A    
N1    Zn1   S    
C22   H9    S    
C7    C18   A    
C3    C27   A    
C1    C11   S    
C22   O9    S    
O8    Zn2   S    
C30   C31   A    
C10   H18   S    
C30   H7    S    
C29   H1    S    
C24   H11   S    
C5    C6    A    
C9    H17   S    
C19   C20   A    
C15   O6    A    
C16   O8    A    
C3    C7    A    
C22   H8    S    
O4    Zn2   S    
C16   O7    A    
C24   C25   S    
C6    C18   A    
C8    C10   S    
O5    Zn1   S    
C2    C5    A    
C5    H12   S    
C25   H13   S    
C26   C27   A    
C4    C17   S    
C24   H10   S    
C16   C18   S    
C14   N2    D    
H22   N2    S    
C12   C23   A    
C28   C29   A    
O2    Zn2   S    
C13   N1    D    
C14   H21   S    
C8    C9    D    
N2    Zn2   S    
C13   C14   S    
C11   H19   S    
C1    O1    A    
C4    O3    A    
O1    Zn1   S    
C26   C30   A    
C17   C20   A    
C10   C11   D    
C21   O9    S    
C6    H3    S    
H20   N1    S    
C25   H14   S    
C28   H6    S    
C7    H2    S    
C19   C23   A    
C2    C31   A    
C9    C15   S    
C25   H15   S    
C12   C26   A    
O6    Zn2   S    
C8    H16   S    
C31   H4    S    
C19   H5    S    
O3    Zn1   S    
C22   C24   S    
C2    C3    A    
C1    O2    A    
