data_mof_unit_38590.cif
_audit_creation_date              2012-12-10T17:55:04-0500
_audit_creation_method            fapswitch 2.2
_symmetry_space_group_name_H-M    P1
_symmetry_Int_Tables_number       1
_space_group_crystal_system       triclinic
_cell_length_a                    8.810025
_cell_length_b                    10.794371
_cell_length_c                    9.519084
_cell_angle_alpha                 90.014877
_cell_angle_beta                  97.858832
_cell_angle_gamma                 90.182552
_cell_volume                      896.745372704

loop_
_atom_site_label
_atom_site_type_symbol
_atom_type_description
_atom_site_fract_x
_atom_site_fract_y
_atom_site_fract_z
_atom_type_partial_charge
C1    C     C_R   0.499926 0.262412 0.499937 0.884582
C2    C     C_R   0.500074 0.737588 0.500063 0.884582
C3    C     C_R   0.204367 0.499287 0.464190 0.852306
C4    C     C_R   0.795633 0.500713 0.535810 0.852305
C5    C     C_2   0.039722 0.488681 0.445046 -0.037121
C6    C     C_2   0.960278 0.511319 0.554953 -0.037121
C7    C     C_R   0.606521 0.065144 0.429566 0.060574
C8    C     C_R   0.393479 0.934856 0.570433 0.060574
C9    C     C_R   0.606577 0.935379 0.429634 0.059595
C10   C     C_R   0.393423 0.064621 0.570365 0.059595
C11   C     C_R   0.500062 0.871480 0.500070 -0.075955
C12   C     C_R   0.499938 0.128520 0.499929 -0.075955
C13   C     C_R   0.397914 0.428809 0.061438 -0.028087
C14   C     C_R   0.602086 0.571191 0.938562 -0.028086
C15   C     C_R   0.397961 0.428829 0.912620 -0.003870
C16   C     C_R   0.602039 0.571171 0.087380 -0.003870
Cu1   Cu    Cu3+1 0.500000 0.500020 0.640660 0.965098
Cu2   Cu    Cu3+1 0.500000 0.499980 0.359340 0.965098
H1    H     H_    0.316286 0.371634 0.107140 0.115577
H2    H     H_    0.683714 0.628366 0.892860 0.115577
H3    H     H_    0.316376 0.371644 0.846184 0.133917
H4    H     H_    0.683624 0.628356 0.153816 0.133917
N1    N     N_R   0.500040 0.500030 0.852080 -0.157328
N2    N     N_R   0.499960 0.499970 0.147920 -0.157328
O1    O     O_R   0.499990 0.319660 0.618740 -0.575990
O2    O     O_R   0.500010 0.680340 0.381260 -0.575989
O3    O     O_R   0.499990 0.319630 0.381170 -0.572728
O4    O     O_R   0.500010 0.680370 0.618830 -0.572727
O5    O     O_R   0.274840 0.500010 0.591370 -0.542389
O6    O     O_R   0.725160 0.499990 0.408630 -0.542388
O7    O     O_R   0.274830 0.499980 0.353800 -0.614842
O8    O     O_R   0.725170 0.500020 0.646200 -0.614842
N3    N     N_3   0.965617 0.446830 0.308929 -0.566792
H5    H     H_    0.989245 0.510404 0.231847 0.218276
H6    H     H_    0.012492 0.361364 0.286432 0.210193
N4    N     N_3   0.034383 0.553169 0.691071 -0.566791
H7    H     H_    0.010756 0.489593 0.768152 0.218275
H8    H     H_    0.987506 0.638635 0.713570 0.210192
N5    N     N_3   0.716534 0.133646 0.362110 -0.576426
H9    H     H_    0.826736 0.109625 0.409009 0.205150
H10   H     H_    0.703957 0.109728 0.254747 0.223683
N6    N     N_3   0.283464 0.866354 0.637888 -0.576426
H11   H     H_    0.173263 0.890373 0.590986 0.205150
H12   H     H_    0.296036 0.890274 0.745250 0.223683
N7    N     N_3   0.716613 0.867419 0.362214 -0.600209
H13   H     H_    0.826805 0.892196 0.408976 0.205891
H14   H     H_    0.703874 0.891031 0.254791 0.216895
N8    N     N_3   0.283386 0.132581 0.637785 -0.600209
H15   H     H_    0.173195 0.107803 0.591024 0.205892
H16   H     H_    0.296126 0.108969 0.745208 0.216894

loop_
_geom_bond_atom_site_label_1
_geom_bond_atom_site_label_2
_ccdc_geom_bond_type
C14   N1    A    
C16   H4    S    
C1    O1    A    
C9    N7    S    
Cu2   O6    S    
C1    O3    A    
Cu1   O5    S    
C16   N2    A    
Cu2   O2    S    
Cu1   O1    S    
N8    H16   S    
N3    H5    S    
C2    O2    A    
Cu1   N1    S    
N7    H13   S    
C3    O7    A    
C9    C11   A    
C3    O5    A    
C4    O8    A    
C1    C12   S    
N6    H12   S    
C8    C11   A    
Cu2   N2    S    
C2    C11   S    
C10   C12   A    
C15   N1    A    
N8    H15   S    
N3    H6    S    
C8    N6    S    
Cu1   Cu2   S    
C13   C15   A    
C10   N8    S    
C5    C6    D    
C14   C16   A    
C7    C12   A    
C4    C6    S    
N6    H11   S    
C13   H1    S    
N4    H8    S    
C14   H2    S    
C15   H3    S    
N5    H10   S    
N7    H14   S    
N5    H9    S    
C7    C9    A    
Cu1   O8    S    
C7    N5    S    
N4    H7    S    
C2    O4    A    
Cu2   O7    S    
Cu1   O4    S    
C8    C10   A    
C4    O6    A    
Cu2   O3    S    
C13   N2    A    
C6    N4    S    
C3    C5    S    
C5    N3    S    
