data_mof_unit_5909.cif
_audit_creation_date              2012-12-10T19:03:07-0500
_audit_creation_method            fapswitch 2.2
_symmetry_space_group_name_H-M    P1
_symmetry_Int_Tables_number       1
_space_group_crystal_system       triclinic
_cell_length_a                    10.717989
_cell_length_b                    10.824154
_cell_length_c                    9.55768
_cell_angle_alpha                 89.931856
_cell_angle_beta                  89.643685
_cell_angle_gamma                 90.494054
_cell_volume                      1108.75317334

loop_
_atom_site_label
_atom_site_type_symbol
_atom_type_description
_atom_site_fract_x
_atom_site_fract_y
_atom_site_fract_z
_atom_type_partial_charge
C1    C     C_R   0.501373 0.262397 0.500056 0.794399
C2    C     C_3   0.878037 0.493760 0.502244 0.163257
C3    C     C_3   0.929250 0.625057 0.470688 -0.384997
C4    C     C_3   0.927936 0.400296 0.392838 -0.372613
C5    C     C_R   0.496918 0.063443 0.625195 0.060215
C6    C     C_R   0.511269 0.129288 0.500476 -0.093939
C7    C     C_R   0.540028 0.064913 0.376974 -0.222839
C8    C     C_R   0.539516 0.936122 0.376875 -0.214118
C9    C     C_R   0.510576 0.870929 0.500308 -0.166941
C10   C     C_R   0.496367 0.936143 0.625194 0.108341
C11   C     C_3   0.393047 0.929017 0.730921 0.354511
C12   C     C_R   0.259905 0.496708 0.500496 0.744688
C13   C     C_3   0.394486 0.069573 0.731562 -0.540418
C14   C     C_R   0.542327 0.600772 0.071967 0.164010
C15   C     C_R   0.446343 0.406146 0.074954 -0.072553
C16   C     C_R   0.446766 0.405950 0.926156 -0.080842
C17   C     C_R   0.537886 0.602213 0.925223 0.258514
C18   C     C_3   0.659352 0.666879 0.910234 -0.531479
C19   C     C_3   0.669366 0.661721 0.069386 0.305943
C20   C     C_R   0.501164 0.737625 0.499930 0.795545
C21   C     C_R   0.740032 0.496176 0.500269 0.755957
C22   C     C_3   0.070715 0.456306 0.648293 -0.373308
C23   C     C_3   0.927424 0.453836 0.648019 -0.370997
C24   C     C_3   0.072921 0.624420 0.464657 -0.393222
C25   C     C_3   0.071754 0.400371 0.392659 -0.395871
C26   C     C_3   0.121895 0.494343 0.501672 0.175901
Cu1   Cu    Cu3+1 0.499990 0.499980 0.640670 0.943327
Cu2   Cu    Cu3+1 0.500010 0.500020 0.359330 0.955066
H1    H     H_    0.103270 0.523003 0.729148 0.170366
H2    H     H_    0.104959 0.651619 0.357882 0.159412
H3    H     H_    0.891432 0.660135 0.370982 0.183970
H4    H     H_    0.557915 0.113467 0.279648 0.166569
H5    H     H_    0.556713 0.888230 0.279449 0.157400
H6    H     H_    0.306870 0.885330 0.687423 0.055180
H7    H     H_    0.307648 0.110510 0.689322 0.144306
H8    H     H_    0.427171 0.110118 0.831774 0.211414
H9    H     H_    0.404463 0.329209 0.130757 0.132369
H10   H     H_    0.106033 0.363427 0.677603 0.154320
H11   H     H_    0.404965 0.329168 0.871120 0.133439
H12   H     H_    0.728027 0.609794 0.853017 0.211044
H13   H     H_    0.649510 0.762273 0.869225 0.200454
H14   H     H_    0.668968 0.753496 0.121799 0.068960
H15   H     H_    0.892974 0.359271 0.674417 0.165407
H16   H     H_    0.893404 0.517287 0.730949 0.168335
H17   H     H_    0.110668 0.694054 0.539252 0.144527
H18   H     H_    0.898009 0.690002 0.553844 0.148648
H19   H     H_    0.106255 0.424527 0.285918 0.171238
H20   H     H_    0.105910 0.306069 0.417461 0.148509
N1    N     N_R   0.500800 0.500930 0.147930 -0.169921
N2    N     N_R   0.500800 0.500890 0.852020 -0.178032
O1    O     O_R   0.500000 0.319640 0.618810 -0.579163
O2    O     O_R   0.500010 0.319680 0.381230 -0.593560
O3    O     O_R   0.317690 0.499960 0.618790 -0.591095
O4    O     O_R   0.317700 0.500000 0.381210 -0.592321
O5    O     O_R   0.499990 0.680320 0.618770 -0.558074
O6    O     O_R   0.500000 0.680360 0.381190 -0.593299
O7    O     O_R   0.682300 0.500000 0.618790 -0.596529
O8    O     O_R   0.682310 0.500040 0.381210 -0.529993
H21   H     H_    0.894024 0.423286 0.286579 0.215864
O9    O     O_3   0.436193 0.878752 0.857907 -0.565671
C27   C     C_3   0.333829 0.856609 0.947983 -0.361289
H22   H     H_    0.273025 0.781597 0.906238 0.158251
H23   H     H_    0.278877 0.942019 0.965947 0.162033
H24   H     H_    0.369591 0.825717 0.050830 0.179023
O10   O     O_3   0.765060 0.581850 0.113723 -0.530641
C28   C     C_3   0.882205 0.640108 0.090837 -0.367486
H25   H     H_    0.886873 0.733432 0.139395 0.146525
H26   H     H_    0.904852 0.647107 0.977594 0.158912
H27   H     H_    0.956226 0.583262 0.138367 0.178625
H28   H     H_    0.892395 0.305837 0.417866 0.146435

loop_
_geom_bond_atom_site_label_1
_geom_bond_atom_site_label_2
_ccdc_geom_bond_type
C17   N2    A    
C8    C9    A    
C27   H24   S    
C28   H26   S    
Cu1   O3    S    
C19   H14   S    
C6    C7    A    
C22   H1    S    
Cu2   O8    S    
C1    O1    A    
Cu2   N1    S    
C25   H19   S    
C9    C20   S    
C5    C13   S    
C12   O3    A    
C14   C17   A    
Cu1   N2    S    
C20   O6    A    
C2    C21   S    
C4    H28   S    
C17   C18   S    
Cu2   O6    S    
C23   H15   S    
C21   O8    A    
C12   O4    A    
C11   H6    S    
C3    H3    S    
Cu2   O2    S    
C25   H20   S    
C3    C24   S    
C5    C6    A    
C20   O5    A    
C2    C4    S    
C4    H21   S    
C5    C10   A    
Cu1   O1    S    
C13   H7    S    
C2    C3    S    
C8    H5    S    
C15   N1    A    
Cu1   O7    S    
C27   H22   S    
C24   C26   S    
C1    O2    A    
Cu1   O5    S    
C16   H11   S    
C28   H27   S    
C7    C8    A    
C10   C11   S    
C24   H17   S    
C19   O10   S    
C22   C26   S    
C11   O9    S    
C22   H10   S    
C21   O7    A    
C4    C25   S    
C11   C13   S    
C28   H25   S    
C14   N1    A    
C13   H8    S    
O10   C28   S    
C9    C10   A    
C18   H13   S    
C12   C26   S    
C2    C23   S    
C27   H23   S    
Cu2   O4    S    
C22   C23   S    
C18   C19   S    
C18   H12   S    
C7    H4    S    
C3    H18   S    
C25   C26   S    
C14   C19   S    
C15   C16   A    
C15   H9    S    
C23   H16   S    
C24   H2    S    
C16   N2    A    
O9    C27   S    
Cu1   Cu2   S    
C1    C6    S    
