data_mof_unit_59327.cif
_audit_creation_date              2012-12-10T19:43:24-0500
_audit_creation_method            fapswitch 2.2
_symmetry_space_group_name_H-M    P1
_symmetry_Int_Tables_number       1
_space_group_crystal_system       triclinic
_cell_length_a                    10.867317
_cell_length_b                    10.868713
_cell_length_c                    9.597736
_cell_angle_alpha                 90.076824
_cell_angle_beta                  91.07593
_cell_angle_gamma                 93.520662
_cell_volume                      1131.28209091

loop_
_atom_site_label
_atom_site_type_symbol
_atom_type_description
_atom_site_fract_x
_atom_site_fract_y
_atom_site_fract_z
_atom_type_partial_charge
C1    C     C_R   0.507578 0.262819 0.501273 0.796787
C2    C     C_R   0.211381 0.726541 0.023736 -0.127528
C3    C     C_R   0.934018 0.539892 0.386864 -0.197962
C4    C     C_R   0.871554 0.493758 0.503790 -0.088901
C5    C     C_R   0.939186 0.448768 0.618304 0.006809
C6    C     C_R   0.066877 0.452251 0.612693 -0.243081
C7    C     C_R   0.128858 0.500792 0.496890 -0.074633
C8    C     C_R   0.061750 0.545608 0.382738 -0.021949
C9    C     C_R   0.870532 0.475284 0.861187 -0.221088
C10   C     C_R   0.831330 0.426530 0.988464 -0.228213
C11   C     C_R   0.810296 0.299343 0.006027 0.611265
C12   C     C_R   0.262631 0.501312 0.498712 0.780523
C13   C     C_R   0.824867 0.220984 0.890477 -0.248331
C14   C     C_R   0.860840 0.270310 0.761769 -0.259964
C15   C     C_R   0.883363 0.397861 0.746523 0.143815
C16   C     C_R   0.546370 0.118258 0.765888 -0.262970
C17   C     C_R   0.521690 0.056649 0.890176 0.603279
C18   C     C_R   0.464167 0.939485 0.887192 -0.234092
C19   C     C_R   0.441017 0.880056 0.760004 -0.259382
C20   C     C_R   0.478402 0.936249 0.633052 0.096568
C21   C     C_R   0.513980 0.063026 0.635024 0.021824
C22   C     C_R   0.514579 0.128596 0.506397 -0.111917
C23   C     C_R   0.491430 0.736982 0.500760 0.823164
C24   C     C_R   0.506305 0.063522 0.380328 -0.181074
C25   C     C_R   0.496059 0.936215 0.379680 -0.196873
C26   C     C_R   0.483142 0.871005 0.504771 -0.113299
C27   C     C_R   0.660056 0.680301 0.140357 0.611960
C28   C     C_R   0.728665 0.767246 0.063562 -0.230338
C29   C     C_R   0.726608 0.762787 0.921308 -0.339996
C30   C     C_R   0.655178 0.671265 0.853890 -0.104249
C31   C     C_R   0.576010 0.585676 0.925404 0.131032
C32   C     C_R   0.577005 0.587343 0.075214 -0.019734
C33   C     C_R   0.424948 0.418329 0.073975 0.657714
C34   C     C_R   0.737468 0.496243 0.501569 0.836858
C35   C     C_R   0.426933 0.418929 0.923772 -0.158172
C36   C     C_R   0.224777 0.783822 0.154120 -0.147964
C37   C     C_R   0.179512 0.723290 0.272669 -0.123060
C38   C     C_R   0.120276 0.605213 0.260649 0.139087
C39   C     C_R   0.109472 0.547344 0.129955 -0.115402
C40   C     C_R   0.155449 0.607786 0.011842 -0.155927
Cu1   Cu    Cu3+1 0.499990 0.499990 0.640660 0.934882
Cu2   Cu    Cu3+1 0.500010 0.500010 0.359340 1.064182
H1    H     H_    0.242734 0.774609 0.931620 0.122311
H2    H     H_    0.806711 0.122324 0.898327 0.150175
H3    H     H_    0.873209 0.208998 0.674754 0.150388
H4    H     H_    0.508835 0.111099 0.281338 0.248355
H5    H     H_    0.595025 0.207136 0.775465 0.205630
H6    H     H_    0.440293 0.893366 0.983645 0.150037
H7    H     H_    0.391163 0.791363 0.763211 0.183159
H8    H     H_    0.497566 0.888913 0.280338 0.182088
H9    H     H_    0.268281 0.875850 0.163008 0.127715
H10   H     H_    0.789215 0.836164 0.116050 0.170021
H11   H     H_    0.784482 0.827925 0.862630 0.173533
H12   H     H_    0.669186 0.670212 0.745275 0.220553
H13   H     H_    0.369553 0.354036 0.862372 0.142295
H14   H     H_    0.188089 0.769187 0.372951 0.104789
H15   H     H_    0.064547 0.456050 0.119900 0.129732
H16   H     H_    0.146173 0.563380 0.910913 0.133561
H17   H     H_    0.883634 0.576310 0.299415 0.191427
H18   H     H_    0.118200 0.416009 0.699957 0.150871
H19   H     H_    0.892971 0.573350 0.852427 0.160455
H20   H     H_    0.820828 0.487822 0.075559 0.150658
N1    N     N_R   0.501190 0.501210 0.147910 -0.220013
N2    N     N_R   0.501230 0.501290 0.852040 -0.211732
O1    O     O_R   0.499990 0.319640 0.618810 -0.602197
O2    O     O_R   0.500000 0.319660 0.381240 -0.516575
O3    O     O_R   0.319640 0.500000 0.618780 -0.602655
O4    O     O_R   0.319650 0.500020 0.381210 -0.540825
O5    O     O_R   0.500000 0.680340 0.618760 -0.622850
O6    O     O_R   0.500010 0.680360 0.381190 -0.521035
O7    O     O_R   0.680350 0.499980 0.618790 -0.609894
O8    O     O_R   0.680360 0.500000 0.381220 -0.506957
O9    O     O_3   0.768384 0.257792 0.134629 -0.546522
C41   C     C_3   0.824413 0.149777 0.176572 -0.281767
H21   H     H_    0.925240 0.154739 0.156304 0.119924
H22   H     H_    0.777451 0.067385 0.125943 0.194718
H23   H     H_    0.813184 0.138777 0.290626 0.185045
F1    F     F_    0.550183 0.112594 0.013792 -0.691581
O10   O     O_3   0.349517 0.337022 0.152181 -0.533810
C42   C     C_3   0.265652 0.259978 0.072984 -0.373965
H24   H     H_    0.314969 0.193418 0.010019 0.194284
H25   H     H_    0.203968 0.314528 0.006947 0.135972
H26   H     H_    0.206087 0.205361 0.145787 0.190272
F2    F     F_    0.688233 0.691460 0.275922 -0.679239

loop_
_geom_bond_atom_site_label_1
_geom_bond_atom_site_label_2
_ccdc_geom_bond_type
C16   C21   A    
C11   C13   A    
O9    C41   S    
C23   O5    A    
C19   C20   A    
C7    C8    A    
Cu1   O3    S    
C30   H12   S    
C37   C38   A    
C41   H22   S    
C9    H19   S    
C28   C29   A    
C5    C6    A    
C39   H15   S    
Cu2   O6    S    
C18   C19   A    
Cu1   Cu2   S    
C23   C26   S    
C25   H8    S    
C37   H14   S    
C16   C17   A    
C41   H23   S    
C1    O1    A    
C35   N2    A    
C9    C10   A    
Cu1   O7    S    
C1    C22   S    
C21   C22   A    
Cu2   O4    S    
C23   O6    A    
C10   H20   S    
C8    C38   S    
C42   H26   S    
C16   H5    S    
C1    O2    A    
C14   H3    S    
C7    C12   S    
C12   O3    A    
C4    C34   S    
C40   H16   S    
C41   H21   S    
C35   H13   S    
C6    H18   S    
C24   C25   A    
C42   H25   S    
C3    C8    A    
C11   O9    S    
C39   C40   A    
C33   O10   S    
Cu1   O1    S    
C25   C26   A    
C29   C30   A    
C12   O4    A    
C19   H7    S    
C31   C32   A    
C2    H1    S    
C33   N1    A    
Cu2   O8    S    
C17   C18   A    
C36   H9    S    
C22   C24   A    
C3    C4    A    
C34   O8    A    
Cu1   O5    S    
C2    C36   A    
C27   F2    S    
C27   C32   A    
C31   N2    A    
C32   N1    A    
C42   H24   S    
C20   C26   A    
C18   H6    S    
C6    C7    A    
C24   H4    S    
C9    C15   A    
C28   H10   S    
C30   C31   A    
C38   C39   A    
C29   H11   S    
Cu2   N1    S    
C17   F1    S    
C33   C35   A    
C5    C15   S    
C10   C11   A    
O10   C42   S    
C2    C40   A    
C4    C5    A    
C20   C21   A    
C36   C37   A    
C27   C28   A    
Cu2   O2    S    
C14   C15   A    
Cu1   N2    S    
C13   C14   A    
C34   O7    A    
C13   H2    S    
C3    H17   S    
