data_mof_unit_20352.cif
_audit_creation_date              2012-12-10T17:35:45-0500
_audit_creation_method            fapswitch 2.2
_symmetry_space_group_name_H-M    P1
_symmetry_Int_Tables_number       1
_space_group_crystal_system       triclinic
_cell_length_a                    10.596416
_cell_length_b                    11.946727
_cell_length_c                    12.96853
_cell_angle_alpha                 94.694963
_cell_angle_beta                  88.386888
_cell_angle_gamma                 88.599488
_cell_volume                      1634.97193297

loop_
_atom_site_label
_atom_site_type_symbol
_atom_type_description
_atom_site_fract_x
_atom_site_fract_y
_atom_site_fract_z
_atom_type_partial_charge
C1    C     C_R   0.500915 0.523421 0.700989 1.037897
C2    C     C_R   0.502347 0.476514 0.298668 0.993752
C3    C     C_R   0.481508 0.446208 0.869150 0.475203
C4    C     C_R   0.562943 0.549800 0.130736 0.477718
C5    C     C_R   0.518927 0.442061 0.971002 -0.304794
C6    C     C_R   0.567175 0.538364 0.022762 -0.243210
C7    C     C_R   0.370292 0.950374 0.416486 -0.218463
C8    C     C_R   0.629125 0.049677 0.583981 -0.220048
C9    C     C_R   0.383857 0.834485 0.423183 0.103801
C10   C     C_R   0.613989 0.165666 0.578919 0.068856
C11   C     C_R   0.559527 0.860523 0.531199 0.088876
C12   C     C_R   0.442415 0.139417 0.466639 0.142366
C13   C     C_R   0.548311 0.977361 0.528732 0.058292
C14   C     C_R   0.452594 0.022618 0.470140 0.043737
C15   C     C_R   0.742635 0.502719 0.498448 1.054963
C16   C     C_R   0.257758 0.497615 0.501911 1.083917
C17   C     C_3   0.951606 0.471971 0.590094 0.309709
C18   C     C_3   0.050050 0.530299 0.411516 0.318821
C19   C     C_3   0.039879 0.570989 0.578949 0.291348
C20   C     C_3   0.962167 0.430756 0.422423 0.201187
C21   C     C_3   0.123596 0.493289 0.503550 -0.431936
C22   C     C_3   0.877381 0.508694 0.497811 -0.447606
C23   C     C_3   0.035720 0.393790 0.515077 0.200905
C24   C     C_3   0.966143 0.608719 0.486741 0.298976
C25   C     C_R   0.516623 0.459755 0.185694 -0.348085
C26   C     C_R   0.516316 0.537500 0.812848 -0.360588
C27   C     C_R   0.613143 0.624659 0.965362 0.531408
C28   C     C_R   0.501990 0.345149 0.023485 0.448927
C29   C     C_R   0.583071 0.628099 0.861281 0.281458
C30   C     C_R   0.486938 0.355771 0.130972 0.307088
H1    H     H_    0.371081 0.176219 0.421416 0.207264
H2    H     H_    0.633463 0.823820 0.573800 0.216469
H3    H     H_    0.674445 0.222386 0.622500 0.136500
H4    H     H_    0.320386 0.778030 0.382489 0.189661
H5    H     H_    0.296138 0.983048 0.370559 0.187891
H6    H     H_    0.702385 0.017061 0.630831 0.183812
N1    N     N_R   0.523490 0.207800 0.519350 -0.118013
N2    N     N_R   0.476510 0.792200 0.480650 -0.142601
O1    O     O_R   0.506270 0.421700 0.658830 -0.599190
O2    O     O_R   0.493730 0.578300 0.341170 -0.632950
O3    O     O_R   0.491200 0.609310 0.646410 -0.546454
O4    O     O_R   0.508800 0.390690 0.353590 -0.549132
O5    O     O_R   0.693580 0.406210 0.506230 -0.614960
O6    O     O_R   0.306420 0.593790 0.493770 -0.586099
O7    O     O_R   0.678510 0.593830 0.493810 -0.615010
O8    O     O_R   0.321490 0.406170 0.506190 -0.587160
Zn1   Zn    Zn3+2 0.510060 0.374730 0.508290 1.090644
Zn2   Zn    Zn3+2 0.489940 0.625270 0.491710 1.068417
S1    S     S_3+6 0.100117 0.661737 0.682351 0.094069
O9    O     O_2   0.200831 0.600482 0.736163 -0.390614
O10   O     O_2   0.156448 0.763307 0.639997 -0.184136
O11   O     O_3   0.982097 0.702681 0.767196 -0.483832
H7    H     H_    0.021609 0.752682 0.821085 0.378317
S2    S     S_3+6 0.908425 0.337455 0.318124 0.090798
O12   O     O_2   0.845909 0.239009 0.361003 -0.196360
O13   O     O_2   0.814542 0.396553 0.255483 -0.401677
O14   O     O_3   0.031882 0.290086 0.241166 -0.429897
H8    H     H_    0.055195 0.354327 0.201574 0.367909
O15   O     O_3   0.884809 0.448596 0.681414 -0.582882
C31   C     C_3   0.966514 0.403458 0.752027 -0.175650
H9    H     H_    0.066371 0.427116 0.741888 0.181628
H10   H     H_    0.960734 0.310656 0.745836 0.198776
H11   H     H_    0.934499 0.434584 0.831610 0.151925
O16   O     O_3   0.117746 0.553371 0.320464 -0.577256
C32   C     C_3   0.038254 0.603981 0.251489 -0.188901
H12   H     H_    0.041797 0.696663 0.264634 0.228297
H13   H     H_    0.939108 0.577082 0.256254 0.155989
H14   H     H_    0.074235 0.580300 0.171332 0.153041
S3    S     S_3+6 0.082593 0.251329 0.532046 0.093439
O17   O     O_2   0.134020 0.196061 0.430946 -0.208579
O18   O     O_2   0.182652 0.249508 0.611685 -0.298397
O19   O     O_3   0.958699 0.178697 0.571291 -0.503260
H15   H     H_    0.883661 0.226647 0.560587 0.355189
S4    S     S_3+6 0.933842 0.755187 0.475559 0.077586
O20   O     O_2   0.841495 0.771163 0.392663 -0.392502
O21   O     O_2   0.881248 0.809610 0.576647 -0.213352
O22   O     O_3   0.069096 0.817097 0.445084 -0.530128
H16   H     H_    0.046580 0.898145 0.445996 0.409137
O23   O     O_3   0.568635 0.658317 0.177710 -0.566643
C33   C     C_3   0.678820 0.672971 0.235278 -0.043740
H17   H     H_    0.721919 0.593888 0.259158 0.119476
H18   H     H_    0.651311 0.726731 0.306276 0.218697
H19   H     H_    0.749879 0.719629 0.193283 0.194796
O24   O     O_3   0.409990 0.360866 0.823302 -0.534294
C34   C     C_3   0.284201 0.373009 0.862445 -0.135042
H20   H     H_    0.224776 0.316100 0.814025 0.204303
H21   H     H_    0.246109 0.460160 0.860604 0.150238
H22   H     H_    0.275237 0.347667 0.942683 0.181484
S5    S     S_3+6 0.415461 0.242862 0.190843 0.064239
O25   O     O_2   0.515659 0.180366 0.244565 -0.282120
O26   O     O_2   0.314880 0.288847 0.267967 -0.286984
O27   O     O_3   0.347229 0.152340 0.104528 -0.468318
H23   H     H_    0.313643 0.092896 0.145809 0.387018
S6    S     S_3+6 0.634273 0.743625 0.793759 0.074260
O28   O     O_2   0.717012 0.698056 0.703396 -0.265368
O29   O     O_2   0.520307 0.803729 0.756218 -0.282093
O30   O     O_3   0.716175 0.837657 0.866720 -0.476079
H24   H     H_    0.744151 0.893041 0.818619 0.373387
O31   O     O_3   0.696279 0.700746 0.008906 -0.510041
C35   C     C_3   0.819301 0.651800 0.997188 -0.253325
H25   H     H_    0.844401 0.625272 0.914803 0.212853
H26   H     H_    0.829480 0.578767 0.044649 0.117543
H27   H     H_    0.888088 0.715250 0.024684 0.197521
O32   O     O_3   0.488957 0.241563 0.969282 -0.508190
C36   C     C_3   0.610079 0.198890 0.936656 -0.085581
H28   H     H_    0.671580 0.189588 0.003845 0.163420
H29   H     H_    0.655670 0.252535 0.880860 0.123339
H30   H     H_    0.600157 0.114209 0.896223 0.203004

loop_
_geom_bond_atom_site_label_1
_geom_bond_atom_site_label_2
_ccdc_geom_bond_type
C16   C21   S    
C27   C29   A    
C18   C21   S    
C23   S3    S    
C18   O16   S    
C4    C25   A    
O22   H16   S    
C36   H29   S    
C27   O31   S    
C17   C23   S    
S4    O21   D    
C10   N1    A    
C18   C24   S    
C19   C21   S    
C33   H19   S    
C5    C6    A    
O7    Zn2   S    
C2    C25   S    
C31   H10   S    
C8    H6    S    
C12   N1    A    
S3    O18   D    
C19   S1    S    
O27   H23   S    
O8    Zn1   S    
O3    Zn2   S    
C15   C22   S    
C6    C27   A    
C32   H13   S    
S4    O22   S    
S5    O26   D    
C16   O6    A    
N2    Zn2   S    
S1    O11   S    
O15   C31   S    
C13   C14   A    
S6    O28   D    
C30   S5    S    
O32   C36   S    
O30   H24   S    
C34   H21   S    
C36   H30   S    
S2    O13   D    
S4    O20   D    
O24   C34   S    
C4    O23   S    
C20   S2    S    
C16   O8    A    
O19   H15   S    
S6    O30   S    
S1    O10   D    
C34   H20   S    
C35   H27   S    
C7    C14   A    
C31   H9    S    
C11   N2    A    
C5    C28   A    
C28   O32   S    
O31   C35   S    
C20   C23   S    
C32   H14   S    
C35   H26   S    
S5    O27   S    
S6    O29   D    
C17   O15   S    
C1    O3    A    
C12   C14   A    
C11   H2    S    
C32   H12   S    
C21   C23   S    
C12   H1    S    
C9    H4    S    
C22   C24   S    
C4    C6    A    
N1    Zn1   S    
C15   O7    A    
S3    O19   S    
O11   H7    S    
O1    Zn1   S    
C34   H22   S    
C25   C30   A    
C7    C9    A    
S2    O12   D    
C7    H5    S    
C3    C26   A    
C20   C22   S    
C33   H17   S    
C3    C5    A    
C36   H28   S    
C17   C22   S    
O16   C32   S    
C28   C30   A    
C19   C24   S    
C15   O5    A    
C11   C13   A    
C24   S4    S    
O14   H8    S    
C1    C26   S    
C2    O4    A    
C9    N2    A    
C17   C19   S    
C33   H18   S    
C29   S6    S    
C10   H3    S    
C18   C20   S    
O4    Zn1   S    
S3    O17   D    
C31   H11   S    
C1    O1    A    
O23   C33   S    
C8    C13   A    
C2    O2    A    
C26   C29   A    
C8    C10   A    
S1    O9    D    
C3    O24   S    
C35   H25   S    
S5    O25   D    
O5    Zn1   S    
O2    Zn2   S    
O6    Zn2   S    
S2    O14   S    
