data_mof_unit_41200.cif
_audit_creation_date              2012-12-11T15:34:32-0500
_audit_creation_method            fapswitch 2.2
_symmetry_space_group_name_H-M    P1
_symmetry_Int_Tables_number       1
_space_group_crystal_system       triclinic
_cell_length_a                    15.056469
_cell_length_b                    15.061798
_cell_length_c                    34.916303
_cell_angle_alpha                 90.516677
_cell_angle_beta                  89.983977
_cell_angle_gamma                 60.124799
_cell_volume                      6865.61398792

loop_
_atom_site_label
_atom_site_type_symbol
_atom_type_description
_atom_site_fract_x
_atom_site_fract_y
_atom_site_fract_z
_atom_type_partial_charge
C1    C     C_R   0.302838 0.607990 0.556068 0.546931
C2    C     C_R   0.226230 0.716073 0.388113 -0.123620
C3    C     C_R   0.746179 0.124992 0.267665 -0.067670
C4    C     C_R   0.753392 0.118350 0.227892 -0.096327
C5    C     C_R   0.672762 0.190326 0.205326 0.024318
C6    C     C_R   0.719415 0.225149 0.348119 -0.178986
C7    C     C_R   0.704705 0.247061 0.387164 -0.140988
C8    C     C_R   0.554635 0.227241 0.385616 -0.101930
C9    C     C_R   0.742608 0.586036 0.646844 -0.121300
C10   C     C_R   0.568676 0.204991 0.346394 0.281065
C11   C     C_R   0.649313 0.208847 0.327173 0.013410
C12   C     C_R   0.619464 0.252924 0.405860 -0.028375
C13   C     C_R   0.203431 0.720745 0.349343 -0.120887
C14   C     C_R   0.085802 0.707042 0.093464 0.025828
C15   C     C_R   0.102843 0.614269 0.109132 -0.117582
C16   C     C_R   0.140205 0.587905 0.146209 -0.120834
C17   C     C_R   0.161121 0.653831 0.168071 0.030030
C18   C     C_R   0.151744 0.742472 0.151329 -0.118266
C19   C     C_R   0.114528 0.768812 0.114262 -0.123458
C20   C     C_R   0.251736 0.658127 0.227147 -0.118761
C21   C     C_2   0.106078 0.841656 0.823332 0.228841
C22   C     C_2   0.964222 0.771236 0.702957 0.217615
C23   C     C_2   0.195476 0.813800 0.599619 0.235535
C24   C     C_R   0.200582 0.638749 0.331244 0.025377
C25   C     C_2   0.679210 0.831098 0.298729 0.242786
C26   C     C_R   0.569828 0.730679 0.648580 -0.115291
C27   C     C_R   0.247395 0.628774 0.409173 0.018636
C28   C     C_R   0.736189 0.025102 0.943212 0.544558
C29   C     C_R   0.746129 0.722999 0.944963 0.538705
C30   C     C_R   0.038539 0.733865 0.948221 0.571816
C31   C     C_R   0.723188 0.038593 0.052904 0.545596
C32   C     C_R   0.733645 0.734773 0.054838 0.536274
C33   C     C_R   0.661878 0.665935 0.667499 0.031548
C34   C     C_R   0.027774 0.744609 0.057785 0.549912
C35   C     C_R   0.555695 0.710193 0.610726 -0.121083
C36   C     C_R   0.678815 0.679843 0.786824 0.348603
C37   C     C_R   0.670336 0.674729 0.709261 0.352560
C38   C     C_R   0.766047 0.602426 0.848400 -0.119060
C39   C     C_R   0.780806 0.611620 0.887292 -0.118372
C40   C     C_R   0.630161 0.780568 0.888469 -0.126869
C41   C     C_R   0.615196 0.771208 0.849577 -0.117969
C42   C     C_R   0.685442 0.683764 0.828859 0.031880
C43   C     C_R   0.610929 0.588628 0.555117 0.545727
C44   C     C_R   0.258819 0.657356 0.266863 -0.113736
C45   C     C_R   0.715578 0.702576 0.907297 0.017768
C46   C     C_R   0.724316 0.070387 0.904987 0.016241
C47   C     C_R   0.634837 0.098298 0.883931 -0.109469
C48   C     C_R   0.632198 0.116590 0.844833 -0.115482
C49   C     C_R   0.718502 0.108296 0.826145 0.019046
C50   C     C_R   0.805053 0.088617 0.847595 -0.103310
C51   C     C_R   0.808132 0.069460 0.886763 -0.116469
C52   C     C_R   0.752200 0.176681 0.766333 -0.103479
C53   C     C_R   0.745648 0.188121 0.726651 -0.105508
C54   C     C_R   0.707029 0.137154 0.704135 0.031409
C55   C     C_R   0.194762 0.635766 0.289366 0.034205
C56   C     C_R   0.590442 0.300138 0.553469 0.544698
C57   C     C_R   0.679191 0.071262 0.721886 -0.066674
C58   C     C_R   0.685073 0.060447 0.761528 -0.076913
C59   C     C_R   0.719387 0.114884 0.784100 0.025341
C60   C     C_R   0.593189 0.177824 0.647318 -0.118357
C61   C     C_R   0.564989 0.216752 0.610521 -0.122084
C62   C     C_R   0.725038 0.216851 0.603491 -0.126001
C63   C     C_R   0.753419 0.177486 0.640281 -0.115944
C64   C     C_R   0.686151 0.161047 0.663027 0.032408
C65   C     C_R   0.628958 0.240220 0.588811 0.021388
C66   C     C_R   0.126484 0.610789 0.271691 -0.096741
C67   C     C_R   0.089090 0.700004 0.910164 -0.016767
C68   C     C_R   0.300105 0.610228 0.446112 0.539482
C69   C     C_R   0.087895 0.775797 0.886456 -0.131670
C70   C     C_R   0.107817 0.759327 0.847136 0.009430
C71   C     C_R   0.128657 0.664649 0.831003 -0.054150
C72   C     C_R   0.140609 0.585233 0.854916 -0.106025
C73   C     C_R   0.122863 0.601027 0.894468 0.231924
C74   C     C_R   0.225683 0.576010 0.771833 -0.116460
C75   C     C_R   0.233906 0.569498 0.732081 -0.114685
C76   C     C_R   0.150806 0.635496 0.709045 -0.006430
C77   C     C_R   0.118948 0.612110 0.231937 -0.101317
C78   C     C_R   0.055819 0.705108 0.726325 0.027675
C79   C     C_R   0.048761 0.710746 0.766497 -0.080736
C80   C     C_R   0.608293 0.590031 0.445461 0.540659
C81   C     C_R   0.134242 0.648879 0.789166 -0.021747
C82   C     C_R   0.163368 0.723277 0.650942 -0.133412
C83   C     C_R   0.201879 0.719005 0.613986 0.014543
C84   C     C_R   0.245333 0.540391 0.609288 -0.144468
C85   C     C_R   0.208647 0.545454 0.646262 -0.130216
C86   C     C_R   0.169990 0.635970 0.667643 -0.006658
C87   C     C_R   0.246556 0.625143 0.592921 0.015469
C88   C     C_R   0.180230 0.637642 0.209412 0.029140
C89   C     C_R   0.693902 0.721727 0.091646 0.021633
C90   C     C_R   0.619056 0.808264 0.111672 -0.123672
C91   C     C_R   0.598591 0.801023 0.150085 -0.122276
C92   C     C_R   0.587736 0.302894 0.443736 0.548920
C93   C     C_R   0.651340 0.706959 0.168866 0.026981
C94   C     C_R   0.719758 0.618835 0.148088 -0.115682
C95   C     C_R   0.741339 0.626230 0.109773 -0.123128
C96   C     C_R   0.628752 0.626261 0.227246 -0.125824
C97   C     C_R   0.628136 0.618102 0.266876 -0.125549
C98   C     C_R   0.642905 0.685198 0.290662 -0.012897
C99   C     C_R   0.211789 0.556069 0.352969 -0.107934
C100  C     C_R   0.658064 0.762291 0.274439 0.017228
C101  C     C_R   0.657071 0.770506 0.234366 -0.081881
C102  C     C_R   0.643178 0.702428 0.210740 -0.001582
C103  C     C_R   0.559102 0.740026 0.354555 -0.124201
C104  C     C_R   0.633312 0.624602 0.591258 0.015544
C105  C     C_R   0.551235 0.717468 0.392650 -0.119748
C106  C     C_R   0.714457 0.560101 0.386817 -0.123196
C107  C     C_R   0.721869 0.582527 0.348733 -0.122960
C108  C     C_R   0.642995 0.671089 0.332219 0.000405
C109  C     C_R   0.627182 0.625432 0.408725 0.021598
C110  C     C_R   0.235084 0.551059 0.391758 -0.119786
C111  C     C_R   0.700558 0.100239 0.088266 0.022702
C112  C     C_R   0.778063 0.112407 0.105678 -0.123781
C113  C     C_R   0.766149 0.148931 0.143160 -0.125653
C114  C     C_R   0.676281 0.174791 0.163625 0.029704
C115  C     C_R   0.594999 0.171981 0.145126 -0.110877
C116  C     C_R   0.728448 0.565538 0.609079 -0.130127
C117  C     C_R   0.607100 0.134716 0.107661 -0.123798
C118  C     C_R   0.586195 0.270959 0.223044 -0.110122
C119  C     C_R   0.579571 0.278219 0.262875 -0.058391
C120  C     C_R   0.658286 0.203574 0.285283 0.077750
Cr1   Cr    Cr6+3 0.421670 0.426920 0.499620 1.019329
Cr2   Cr    Cr6+3 0.427030 0.651190 0.500980 1.053531
Cr3   Cr    Cr6+3 0.651280 0.421870 0.499380 1.015737
Cr4   Cr    Cr6+3 0.910810 0.908010 0.001130 1.023649
Cr5   Cr    Cr6+3 0.682800 0.909890 0.998370 1.027490
Cr6   Cr    Cr6+3 0.908370 0.682300 0.002180 1.111998
H1    H     H_    0.790246 0.499854 0.594619 0.133349
H2    H     H_    0.490468 0.233939 0.600016 0.129934
H3    H     H_    0.872200 0.082476 0.833682 0.161941
H4    H     H_    0.481916 0.757738 0.597562 0.181920
H5    H     H_    0.776387 0.233298 0.587271 0.127078
H6    H     H_    0.065957 0.850756 0.898249 0.186347
H7    H     H_    0.214276 0.477329 0.658827 0.118012
H8    H     H_    0.307069 0.515939 0.719202 0.124661
H9    H     H_    0.291913 0.527373 0.789065 0.128841
H10   H     H_    0.977484 0.765158 0.780399 0.164857
H11   H     H_    0.133773 0.793377 0.667728 0.113679
H12   H     H_    0.878294 0.047911 0.902180 0.147175
H13   H     H_    0.846862 0.549846 0.901058 0.173607
H14   H     H_    0.160656 0.511552 0.842337 0.139898
H15   H     H_    0.277880 0.467489 0.594308 0.137232
H16   H     H_    0.581306 0.882999 0.098516 0.133403
H17   H     H_    0.799142 0.558332 0.094996 0.130933
H18   H     H_    0.786938 0.528686 0.331623 0.114969
H19   H     H_    0.616588 0.558749 0.279153 0.118361
H20   H     H_    0.618209 0.572995 0.209434 0.111534
H21   H     H_    0.544727 0.869630 0.165598 0.112343
H22   H     H_    0.815175 0.535885 0.660390 0.135369
H23   H     H_    0.826346 0.163408 0.651462 0.110700
H24   H     H_    0.670502 0.827862 0.221353 0.158703
H25   H     H_    0.497484 0.808497 0.341936 0.127756
H26   H     H_    0.483073 0.769216 0.408780 0.133313
H27   H     H_    0.761399 0.545522 0.162140 0.109411
H28   H     H_    0.774166 0.488594 0.398316 0.130748
H29   H     H_    0.850599 0.087507 0.091319 0.129921
H30   H     H_    0.545860 0.126772 0.094879 0.133159
H31   H     H_    0.512473 0.340965 0.276269 0.143413
H32   H     H_    0.523594 0.327405 0.206075 0.109853
H33   H     H_    0.506596 0.793713 0.663583 0.147678
H34   H     H_    0.766260 0.240609 0.713833 0.113584
H35   H     H_    0.829164 0.151882 0.156886 0.103898
H36   H     H_    0.807826 0.067554 0.284707 0.124185
H37   H     H_    0.820261 0.054741 0.214736 0.113255
H38   H     H_    0.782247 0.227021 0.333739 0.115026
H39   H     H_    0.756190 0.266129 0.402057 0.141027
H40   H     H_    0.525105 0.191345 0.160546 0.119775
H41   H     H_    0.489223 0.230270 0.399842 0.171011
H42   H     H_    0.082515 0.564524 0.093530 0.137764
H43   H     H_    0.102691 0.840493 0.102823 0.131225
H44   H     H_    0.192719 0.786224 0.333056 0.111220
H45   H     H_    0.778892 0.219291 0.783265 0.117569
H46   H     H_    0.820422 0.533202 0.833360 0.141053
H47   H     H_    0.313914 0.674249 0.280070 0.109524
H48   H     H_    0.300605 0.676716 0.210312 0.106642
H49   H     H_    0.148565 0.518282 0.158400 0.110190
H50   H     H_    0.076688 0.593748 0.288664 0.112228
H51   H     H_    0.062006 0.597671 0.218927 0.110680
H52   H     H_    0.209414 0.492276 0.339446 0.148064
H53   H     H_    0.250476 0.483044 0.407349 0.140120
H54   H     H_    0.166650 0.795001 0.167725 0.106998
H55   H     H_    0.234318 0.777512 0.400824 0.133467
H56   H     H_    0.563784 0.133986 0.828890 0.115809
H57   H     H_    0.578237 0.851486 0.903157 0.137155
H58   H     H_    0.551595 0.834697 0.835414 0.139147
H59   H     H_    0.568792 0.100227 0.897138 0.148123
H60   H     H_    0.187503 0.365743 0.884376 0.341862
H61   H     H_    0.128922 0.827748 0.793441 0.128560
H62   H     H_    0.966705 0.763055 0.672027 0.113242
H63   H     H_    0.120988 0.880807 0.595078 0.091248
H64   H     H_    0.677311 0.827721 0.329701 0.129291
H65   H     H_    0.479519 0.095484 0.271727 0.365104
H66   H     H_    0.650985 0.029632 0.705174 0.128241
H67   H     H_    0.661742 0.010327 0.774655 0.125932
H68   H     H_    0.539243 0.166889 0.664280 0.104292
N1    N     N_R   0.756293 0.603723 0.766320 -0.229435
N2    N     N_R   0.751982 0.601048 0.728340 -0.229934
N3    N     N_R   0.593061 0.751340 0.729736 -0.229350
N4    N     N_R   0.597492 0.754165 0.767765 -0.230021
O1    O     O_R   0.502070 0.323090 0.541280 -0.519093
O2    O     O_R   0.831550 0.656950 0.958960 -0.480386
O3    O     O_R   0.998590 0.685540 0.963930 -0.420057
O4    O     O_R   0.338340 0.520690 0.539540 -0.514463
O5    O     O_R   0.008220 0.831200 0.045060 -0.520496
O6    O     O_R   0.813270 0.997930 0.038810 -0.503439
O7    O     O_R   0.657500 0.016560 0.039940 -0.514982
O8    O     O_R   0.685680 0.820940 0.038120 -0.504586
O9    O     O_R   0.822130 0.666070 0.043610 -0.515127
O10   O     O_R   0.989860 0.694000 0.042400 -0.492770
O11   O     O_3   0.833990 0.833400 0.000560 -0.258574
O12   O     O_R   0.520720 0.641670 0.461580 -0.502654
O13   O     O_R   0.324760 0.674070 0.543580 -0.456662
O14   O     O_R   0.522400 0.640310 0.540110 -0.488622
O15   O     O_R   0.675940 0.500630 0.542210 -0.520085
O16   O     O_R   0.641790 0.337020 0.538150 -0.501390
O17   O     O_R   0.500260 0.324550 0.456580 -0.515457
O18   O     O_R   0.336660 0.522040 0.461020 -0.503229
O19   O     O_R   0.322940 0.675540 0.458880 -0.520161
O20   O     O_2   0.187971 0.500577 0.960954 -0.241209
O21   O     O_2   0.046046 0.495452 0.928852 -0.295783
O22   O     O_3   0.229440 0.384801 0.900641 -0.514283
O23   O     O_R   0.674120 0.502090 0.457500 -0.521005
O24   O     O_2   0.080188 0.926123 0.836948 -0.529636
O25   O     O_2   0.884236 0.835374 0.718014 -0.515376
O26   O     O_2   0.272612 0.820107 0.595450 -0.495915
O27   O     O_2   0.700561 0.891811 0.284394 -0.473364
O28   O     O_2   0.446087 0.123470 0.349399 -0.291627
O29   O     O_2   0.389693 0.276869 0.310662 -0.322909
O30   O     O_3   0.534874 0.103503 0.283611 -0.477272
O31   O     O_R   0.640110 0.338380 0.459630 -0.499954
O32   O     O_3   0.499990 0.499990 0.499990 -0.243717
O33   O     O_R   0.017640 0.822070 0.960410 -0.533691
O34   O     O_R   0.822000 0.989470 0.960340 -0.505267
O35   O     O_R   0.666920 0.007430 0.955290 -0.511388
O36   O     O_R   0.694410 0.812480 0.959650 -0.507722
S1    S     S_3+6 0.145156 0.494873 0.922715 0.023905
S2    S     S_3+6 0.480941 0.177697 0.322576 -0.006393

loop_
_geom_bond_atom_site_label_1
_geom_bond_atom_site_label_2
_ccdc_geom_bond_type
C1    C87   S    
C83   C87   A    
C95   H17   S    
C93   C94   A    
C43   C104  S    
Cr2   O19   S    
C96   C102  A    
C5    C114  S    
C1    O13   A    
C24   C99   A    
C41   C42   A    
Cr5   O8    S    
O22   S1    S    
C36   C42   S    
C111  C112  A    
C84   C87   A    
C55   C66   A    
C91   H21   S    
C97   C98   A    
C57   C58   A    
C75   H8    S    
O28   S2    D    
C85   C86   A    
C24   C55   S    
C79   H10   S    
Cr3   O23   S    
C28   C46   S    
C101  C102  A    
C23   C83   S    
Cr4   O6    S    
Cr1   O17   S    
C50   H3    S    
C76   C78   A    
Cr1   O4    S    
C31   O7    A    
C82   H11   S    
C25   H64   S    
C94   H27   S    
C38   C39   A    
C84   H15   S    
C106  C107  A    
C11   C120  S    
C56   C65   S    
C17   C88   S    
C101  H24   S    
C98   C108  S    
C92   O17   A    
C18   C19   A    
C25   O27   D    
C105  H26   S    
C2    C13   A    
C118  C119  A    
Cr1   O1    S    
C27   C68   S    
C26   C33   A    
C3    H36   S    
C80   O23   A    
C104  C116  A    
C20   H48   S    
C47   C48   A    
C27   C110  A    
Cr6   O10   S    
C16   C17   A    
C106  H28   S    
C116  H1    S    
C80   C109  S    
C107  C108  A    
Cr2   O12   S    
C41   H58   S    
C2    C27   A    
C67   C73   A    
C37   N3    A    
C47   H59   S    
C34   O5    A    
C56   O16   A    
C30   C67   S    
C8    C12   A    
C28   O35   A    
C39   C45   A    
C56   O1    A    
C7    H39   S    
C18   H54   S    
C96   C97   A    
C9    C33   A    
C66   H50   S    
C7    C12   A    
C1    O4    A    
C62   H5    S    
C52   H45   S    
C112  C113  A    
C20   C44   A    
C21   H61   S    
Cr6   O3    S    
C40   C45   A    
Cr2   O32   S    
C39   H13   S    
C73   S1    S    
C74   C75   A    
Cr4   O5    S    
C60   H68   S    
H65   O30   S    
O21   S1    D    
C28   O34   A    
C44   H47   S    
C22   C78   S    
C57   H66   S    
C103  C105  A    
C35   C104  A    
C21   O24   D    
C6    C11   A    
C79   C81   A    
Cr5   O11   S    
C78   C79   A    
C72   C73   A    
C115  C117  A    
C58   C59   A    
C53   C54   A    
C99   C110  A    
H60   O22   S    
C46   C51   A    
C112  H29   S    
C77   H51   S    
N1    N2    A    
C13   C24   A    
C29   C45   S    
C60   C61   A    
C67   C69   A    
C2    H55   S    
C30   O33   A    
C89   C95   A    
C75   C76   A    
C37   N2    A    
C14   C34   S    
C62   C63   A    
O29   S2    D    
C52   C59   A    
C61   C65   A    
C91   C93   A    
C25   C100  S    
C32   C89   S    
Cr3   O31   S    
Cr6   O9    S    
C119  H31   S    
C29   O2    A    
C74   H9    S    
C117  H30   S    
C17   C18   A    
C4    H37   S    
C26   H33   S    
C50   C51   A    
C90   H16   S    
C51   H12   S    
C84   C85   A    
C115  H40   S    
C38   H46   S    
C43   O14   A    
C30   O3    A    
C35   H4    S    
C31   O6    A    
Cr4   O34   S    
C99   H52   S    
C16   H49   S    
C13   H44   S    
C6    H38   S    
C82   C83   A    
C94   C95   A    
C98   C100  A    
C10   C11   A    
Cr3   O15   S    
C110  H53   S    
C8    H41   S    
Cr2   O14   S    
C15   H42   S    
C118  H32   S    
C74   C81   A    
C32   O8    A    
C3    C4    A    
C43   O15   A    
C76   C86   S    
C23   H63   S    
C70   C71   A    
C52   C53   A    
C80   O12   A    
C113  C114  A    
Cr6   O2    S    
C3    C120  A    
C66   C77   A    
C105  C109  A    
C46   C47   A    
C40   C41   A    
C53   H34   S    
C32   O9    A    
Cr1   O32   S    
C9    H22   S    
C62   C65   A    
Cr2   O13   S    
C9    C116  A    
C97   H19   S    
C14   C19   A    
C12   C92   S    
C19   H43   S    
C36   N4    A    
C4    C5    A    
Cr6   O11   S    
C93   C102  S    
O20   S1    D    
C119  C120  A    
C114  C115  A    
C6    C7    A    
C77   C88   A    
C103  H25   S    
C96   H20   S    
C22   O25   D    
Cr5   O36   S    
C58   H67   S    
C10   S2    S    
C49   C59   S    
C60   C64   A    
C21   C70   S    
C111  C117  A    
C34   O10   A    
C40   H57   S    
C68   O19   A    
C89   C90   A    
C36   N1    A    
C71   C72   A    
C82   C86   A    
C48   H56   S    
C44   C55   A    
C90   C91   A    
Cr3   O32   S    
C54   C64   S    
C92   O31   A    
C69   H6    S    
C48   C49   A    
C20   C88   A    
Cr5   O7    S    
C100  C101  A    
C61   H2    S    
N3    N4    A    
C22   H62   S    
C69   C70   A    
C68   O18   A    
C33   C37   S    
C29   O36   A    
O30   S2    S    
Cr4   O33   S    
Cr5   O35   S    
Cr1   O18   S    
C113  H35   S    
C63   C64   A    
C38   C42   A    
C5    C118  A    
C26   C35   A    
C72   H14   S    
C23   O26   D    
C8    C10   A    
C49   C50   A    
Cr4   O11   S    
Cr3   O16   S    
C31   C111  S    
C14   C15   A    
C103  C108  A    
C63   H23   S    
C107  H18   S    
C106  C109  A    
C15   C16   A    
C85   H7    S    
C71   C81   S    
C54   C57   A    
