data_mof_unit_25581.cif
_audit_creation_date              2012-12-10T18:03:32-0500
_audit_creation_method            fapswitch 2.2
_symmetry_space_group_name_H-M    P1
_symmetry_Int_Tables_number       1
_space_group_crystal_system       triclinic
_cell_length_a                    10.912793
_cell_length_b                    9.574997
_cell_length_c                    19.506782
_cell_angle_alpha                 90.365802
_cell_angle_beta                  91.362035
_cell_angle_gamma                 89.585859
_cell_volume                      2037.59440624

loop_
_atom_site_label
_atom_site_type_symbol
_atom_type_description
_atom_site_fract_x
_atom_site_fract_y
_atom_site_fract_z
_atom_type_partial_charge
C1    C     C_R   0.872716 0.504211 0.495026 -0.229751
C2    C     C_R   0.127662 0.507393 0.511262 -0.194101
C3    C     C_R   0.614518 0.554996 0.962332 0.166803
C4    C     C_R   0.434768 0.408793 0.034389 0.172260
C5    C     C_R   0.619592 0.552770 0.034497 0.172542
C6    C     C_R   0.438237 0.397989 0.962396 0.169831
C7    C     C_R   0.527074 0.483741 0.070333 -0.021103
C8    C     C_R   0.525444 0.475073 0.926590 -0.023511
C9    C     C_R   0.262367 0.501522 0.504923 0.853976
C10   C     C_R   0.737903 0.500240 0.496755 0.812382
C11   C     C_R   0.512545 0.499100 0.367785 0.798038
C12   C     C_R   0.501950 0.500554 0.631892 0.826288
C13   C     C_R   0.060823 0.383526 0.519196 0.194290
C14   C     C_R   0.934738 0.633636 0.496566 0.185520
C15   C     C_R   0.940822 0.379100 0.492078 0.150589
C16   C     C_R   0.062549 0.635214 0.503516 0.164392
C17   C     C_R   0.414691 0.556026 0.745490 0.141770
C18   C     C_R   0.553377 0.618084 0.252915 0.157834
C19   C     C_R   0.537816 0.364330 0.255599 0.179665
C20   C     C_R   0.616931 0.445417 0.740511 0.135257
C21   C     C_R   0.418107 0.544342 0.817275 -0.046013
C22   C     C_R   0.526080 0.614372 0.182169 -0.011396
C23   C     C_R   0.544356 0.362223 0.183573 -0.055320
C24   C     C_R   0.617624 0.428026 0.811968 -0.011895
C25   C     C_R   0.519093 0.479153 0.850614 0.009060
C26   C     C_R   0.529358 0.486629 0.146533 0.011407
C27   C     C_R   0.425567 0.074885 0.455163 0.268293
C28   C     C_R   0.567650 0.925075 0.548281 0.264894
C29   C     C_R   0.572444 0.074727 0.546106 0.238011
C30   C     C_R   0.431021 0.925346 0.452371 0.243079
C31   C     C_R   0.511269 0.500735 0.706995 -0.158861
C32   C     C_R   0.534923 0.494622 0.291801 -0.198718
Cu1   Cu    Cu3+1 0.500000 0.640660 0.500000 0.982964
Cu2   Cu    Cu3+1 0.500000 0.359340 0.500000 0.978891
N1    N     N_R   0.500000 0.852070 0.500000 -0.223048
N2    N     N_R   0.500000 0.147930 0.500000 -0.220448
O1    O     O_R   0.319640 0.618740 0.500000 -0.540302
O2    O     O_R   0.680360 0.381260 0.500000 -0.567071
O3    O     O_R   0.680360 0.618740 0.500000 -0.547191
O4    O     O_R   0.319640 0.381260 0.500000 -0.524455
O5    O     O_R   0.500020 0.618830 0.400190 -0.567650
O6    O     O_R   0.499980 0.381170 0.599810 -0.595731
O7    O     O_R   0.499980 0.618830 0.599810 -0.528571
O8    O     O_R   0.500020 0.381170 0.400190 -0.531528
N3    N     N_2   0.341008 0.150058 0.412566 -0.358204
H1    H     H_    0.364220 0.158525 0.362168 0.263870
C33   C     C_3   0.211960 0.124882 0.422096 -0.635780
H2    H     H_    0.195816 0.075369 0.472281 0.226707
H3    H     H_    0.173634 0.056554 0.381036 0.187642
H4    H     H_    0.162133 0.225589 0.418603 0.269465
N4    N     N_2   0.634030 0.849500 0.599905 -0.360174
H5    H     H_    0.723113 0.822568 0.589537 0.257118
C34   C     C_3   0.608168 0.877310 0.671320 -0.684361
H6    H     H_    0.688364 0.925911 0.697593 0.209532
H7    H     H_    0.590798 0.777759 0.697735 0.252113
H8    H     H_    0.526964 0.946493 0.676892 0.206638
N5    N     N_2   0.644223 0.150517 0.595333 -0.364150
H9    H     H_    0.603742 0.161932 0.642243 0.255279
C35   C     C_3   0.775362 0.124888 0.599486 -0.698290
H10   H     H_    0.804452 0.097362 0.652593 0.218750
H11   H     H_    0.824209 0.221373 0.586113 0.252710
H12   H     H_    0.803989 0.039952 0.564612 0.203656
N6    N     N_2   0.359584 0.850116 0.402739 -0.363331
H13   H     H_    0.270488 0.832648 0.415389 0.266431
C36   C     C_3   0.375641 0.880058 0.330849 -0.677336
H14   H     H_    0.299919 0.946280 0.310338 0.198087
H15   H     H_    0.371775 0.780975 0.301411 0.248646
H16   H     H_    0.464003 0.932971 0.322377 0.239458
N7    N     N_2   0.112855 0.265552 0.553982 -0.407896
H17   H     H_    0.059847 0.177364 0.551733 0.248341
C37   C     C_3   0.155030 0.291644 0.623873 -0.676704
H18   H     H_    0.076494 0.321880 0.656145 0.212500
H19   H     H_    0.224804 0.375242 0.626381 0.230775
H20   H     H_    0.197801 0.195115 0.645147 0.221347
N8    N     N_2   0.869556 0.761299 0.485387 -0.406681
H21   H     H_    0.899220 0.846092 0.513595 0.234912
C38   C     C_3   0.844397 0.792815 0.414077 -0.696845
H22   H     H_    0.928411 0.830683 0.389364 0.204794
H23   H     H_    0.772135 0.874753 0.410501 0.222434
H24   H     H_    0.811246 0.698404 0.386221 0.234058
N9    N     N_2   0.922162 0.293691 0.432557 -0.426670
H25   H     H_    0.882526 0.344782 0.391178 0.240656
C39   C     C_3   0.878676 0.152904 0.440203 -0.736122
H26   H     H_    0.782827 0.153687 0.457569 0.266983
H27   H     H_    0.938678 0.091781 0.475204 0.223467
H28   H     H_    0.880674 0.099516 0.389593 0.222042
N10   N     N_2   0.124324 0.765678 0.505834 -0.415473
H29   H     H_    0.091708 0.839389 0.471657 0.238364
C40   C     C_3   0.142929 0.821917 0.574077 -0.696060
H30   H     H_    0.174543 0.738068 0.609179 0.263799
H31   H     H_    0.213135 0.905146 0.573078 0.223129
H32   H     H_    0.056445 0.867143 0.593576 0.199046
N11   N     N_2   0.316157 0.627977 0.711752 -0.433915
H33   H     H_    0.231732 0.584774 0.720703 0.245108
C41   C     C_3   0.317558 0.778788 0.720396 -0.688879
H34   H     H_    0.385498 0.813516 0.760271 0.222661
H35   H     H_    0.225659 0.817505 0.735341 0.218891
H36   H     H_    0.341510 0.827586 0.671269 0.245864
N12   N     N_2   0.610390 0.740438 0.281525 -0.434432
H37   H     H_    0.620093 0.745349 0.333737 0.284708
C42   C     C_3   0.723661 0.781821 0.250076 -0.694752
H38   H     H_    0.709456 0.807234 0.195151 0.266308
H39   H     H_    0.793278 0.697004 0.255206 0.222102
H40   H     H_    0.759655 0.877279 0.275882 0.214925
N13   N     N_2   0.537735 0.234837 0.291073 -0.415276
H41   H     H_    0.489048 0.156963 0.266143 0.247466
C43   C     C_3   0.657222 0.187581 0.314654 -0.667036
H42   H     H_    0.715915 0.162153 0.270454 0.217939
H43   H     H_    0.647384 0.092660 0.346396 0.210863
H44   H     H_    0.701369 0.269790 0.346523 0.241193
N14   N     N_2   0.725599 0.415361 0.703529 -0.430205
H45   H     H_    0.711315 0.385918 0.653328 0.276006
C44   C     C_3   0.817827 0.523016 0.708887 -0.688125
H46   H     H_    0.783113 0.620899 0.684809 0.224523
H47   H     H_    0.901092 0.488490 0.681684 0.217688
H48   H     H_    0.843858 0.543902 0.763351 0.251615
C45   C     C_1   0.319400 0.604295 0.856669 0.272145
N15   N     N_1   0.240726 0.652152 0.888127 -0.303105
C46   C     C_1   0.493498 0.742318 0.146717 0.270844
N16   N     N_1   0.466778 0.844085 0.118234 -0.276719
C47   C     C_1   0.569810 0.232229 0.147883 0.255118
N17   N     N_1   0.590772 0.128913 0.119258 -0.276687
C48   C     C_1   0.719139 0.354846 0.845243 0.292872
N18   N     N_1   0.800158 0.296383 0.871853 -0.300384
N19   N     N_2   0.699774 0.635136 0.924971 -0.427827
H49   H     H_    0.788258 0.634346 0.944636 0.265017
C49   C     C_3   0.656676 0.773270 0.906195 -0.682432
H50   H     H_    0.725813 0.824623 0.874177 0.229363
H51   H     H_    0.642187 0.837979 0.952829 0.232110
H52   H     H_    0.569473 0.767141 0.875880 0.234651
N20   N     N_2   0.340586 0.342459 0.071469 -0.423157
H53   H     H_    0.313789 0.246261 0.052736 0.267504
C50   C     C_3   0.238659 0.432855 0.088135 -0.689917
H54   H     H_    0.190090 0.468090 0.040533 0.230478
H55   H     H_    0.271106 0.525408 0.117800 0.236890
H56   H     H_    0.173298 0.375068 0.120010 0.226136
N21   N     N_2   0.715417 0.622498 0.071743 -0.428812
H57   H     H_    0.742245 0.716310 0.051546 0.264393
C51   C     C_3   0.817451 0.533623 0.092117 -0.694789
H58   H     H_    0.883831 0.594648 0.123990 0.223782
H59   H     H_    0.864658 0.492947 0.046177 0.228545
H60   H     H_    0.785519 0.444658 0.123089 0.241136
N22   N     N_2   0.351812 0.314312 0.925011 -0.425185
H61   H     H_    0.264490 0.314001 0.943975 0.266144
C52   C     C_3   0.396412 0.176455 0.907253 -0.681265
H62   H     H_    0.326198 0.121618 0.875189 0.229157
H63   H     H_    0.415267 0.114567 0.954391 0.234668
H64   H     H_    0.481502 0.183609 0.877379 0.234048

loop_
_geom_bond_atom_site_label_1
_geom_bond_atom_site_label_2
_ccdc_geom_bond_type
N10   H29   S    
N6    C36   S    
C42   H38   S    
C41   H34   S    
Cu2   O6    S    
N9    H25   S    
C41   H36   S    
C48   N18   T    
C33   H3    S    
C34   H6    S    
N13   C43   S    
C29   N2    A    
Cu1   O3    S    
C7    C26   S    
C30   N1    A    
Cu2   O4    S    
C28   C29   A    
C12   O7    A    
C51   H60   S    
C38   H24   S    
N22   H61   S    
C23   C26   A    
N7    C37   S    
C2    C13   A    
C21   C45   S    
C52   H63   S    
C33   H2    S    
C28   N1    A    
C36   H15   S    
C50   H56   S    
C12   O6    A    
C43   H42   S    
C1    C15   A    
C4    N20   S    
C2    C16   A    
C44   H48   S    
C27   N3    S    
C34   H7    S    
C35   H10   S    
N11   C41   S    
Cu2   O2    S    
C30   N6    S    
C27   C30   A    
C50   H55   S    
C8    C25   S    
C43   H43   S    
C4    C7    A    
C19   C32   A    
N9    C39   S    
C52   H62   S    
C33   H4    S    
N3    C33   S    
C22   C46   S    
C35   H11   S    
N4    H5    S    
Cu1   O7    S    
C20   C24   A    
Cu2   O8    S    
C24   C25   A    
C15   N9    S    
C3    C8    A    
C5    C7    A    
C6    C8    A    
C3    C5    A    
C38   H22   S    
C9    O4    A    
C17   C21   A    
C10   O3    A    
N4    C34   S    
C19   C23   A    
N8    H21   S    
C49   H51   S    
C16   N10   S    
C20   N14   S    
N21   C51   S    
C39   H26   S    
C46   N16   T    
C36   H16   S    
C9    O1    A    
Cu1   Cu2   S    
C38   H23   S    
C11   O8    A    
N14   C44   S    
N11   H33   S    
C40   H32   S    
N8    C38   S    
C47   N17   T    
C23   C47   S    
C19   N13   S    
C4    C6    A    
C39   H27   S    
C29   N5    S    
C11   C32   S    
C36   H14   S    
C42   H40   S    
C13   C15   A    
C12   C31   S    
N19   H49   S    
C17   C31   A    
C43   H44   S    
C14   C16   A    
C17   N11   S    
C18   N12   S    
N20   H53   S    
C52   H64   S    
C37   H19   S    
C44   H46   S    
N21   H57   S    
C34   H8    S    
N22   C52   S    
C21   C25   A    
C35   H12   S    
N14   H45   S    
N12   C42   S    
C28   N4    S    
C18   C22   A    
C1    C10   S    
N20   C50   S    
C37   H20   S    
C51   H58   S    
C41   H35   S    
C5    N21   S    
C27   N2    A    
N13   H41   S    
N12   H37   S    
C3    N19   S    
C10   O2    A    
Cu1   O5    S    
C14   N8    S    
N10   C40   S    
C6    N22   S    
C49   H52   S    
C37   H18   S    
C45   N15   T    
C51   H59   S    
N5    H9    S    
C50   H54   S    
C13   N7    S    
Cu1   N1    S    
C11   O5    A    
Cu2   N2    S    
C24   C48   S    
N7    H17   S    
Cu1   O1    S    
N5    C35   S    
N6    H13   S    
N3    H1    S    
C39   H28   S    
C18   C32   A    
C42   H39   S    
C40   H31   S    
C22   C26   A    
N19   C49   S    
C1    C14   A    
C40   H30   S    
C2    C9    S    
C49   H50   S    
C44   H47   S    
C20   C31   A    
