data_mof_unit_57705.cif
_audit_creation_date              2012-12-11T14:21:07-0500
_audit_creation_method            fapswitch 2.2
_symmetry_space_group_name_H-M    P1
_symmetry_Int_Tables_number       1
_space_group_crystal_system       triclinic
_cell_length_a                    21.938824
_cell_length_b                    7.213377
_cell_length_c                    14.852816
_cell_angle_alpha                 89.998871
_cell_angle_beta                  106.694173
_cell_angle_gamma                 89.999665
_cell_volume                      2251.43315171

loop_
_atom_site_label
_atom_site_type_symbol
_atom_type_description
_atom_site_fract_x
_atom_site_fract_y
_atom_site_fract_z
_atom_type_partial_charge
O1    O     O_R   0.584770 0.505770 0.002090 -0.537745
O2    O     O_R   0.415230 0.005770 0.997910 -0.537744
O3    O     O_R   0.467060 0.173340 0.861950 -0.546770
O4    O     O_R   0.532940 0.673340 0.138050 -0.546778
C1    C     C_R   0.455187 0.344265 0.825666 0.747908
C2    C     C_R   0.544812 0.844261 0.174334 0.747918
O5    O     O_R   0.587510 0.175890 0.993210 -0.531626
O6    O     O_R   0.412490 0.675890 0.006790 -0.531628
O7    O     O_R   0.536540 0.008150 0.130100 -0.524509
O8    O     O_R   0.463460 0.508150 0.869900 -0.524513
C3    C     C_R   0.612940 0.344891 0.997394 0.727574
C4    C     C_R   0.387060 0.844892 0.002607 0.727582
O9    O     O_3   0.483140 0.340040 0.044760 -0.378629
O10   O     O_3   0.516860 0.840040 0.955240 -0.378629
V1    V     V_3+5 0.503130 0.064190 0.991700 1.512030
V2    V     V_3+5 0.496870 0.564190 0.008300 1.512019
C5    C     C_2   0.214041 0.727674 0.003701 -0.130466
C6    C     C_2   0.785963 0.227673 0.996314 -0.130472
C7    C     C_2   0.180369 0.886706 0.996316 -0.301598
C8    C     C_2   0.819630 0.386709 0.003679 -0.301596
H1    H     H_    0.201955 0.018794 0.989219 0.133021
H2    H     H_    0.798040 0.518799 0.010757 0.133020
C9    C     C_2   0.281942 0.714602 0.003423 -0.110491
C10   C     C_2   0.718060 0.214602 0.996586 -0.110496
C11   C     C_2   0.319984 0.861327 0.003726 -0.275153
C12   C     C_2   0.680016 0.361327 0.996278 -0.275161
H3    H     H_    0.302098 0.001027 0.004483 0.139101
H4    H     H_    0.697902 0.501027 0.995520 0.139101
C13   C     C_R   0.925903 0.882465 0.724034 -0.025759
C14   C     C_R   0.074096 0.382446 0.275967 -0.025764
C15   C     C_R   0.572397 0.850768 0.277423 -0.133332
C16   C     C_R   0.427603 0.350784 0.722575 -0.133339
C17   C     C_R   0.935028 0.818287 0.568914 -0.164521
C18   C     C_R   0.064973 0.318218 0.431084 -0.164517
C19   C     C_R   0.963537 0.847854 0.664430 -0.174614
C20   C     C_R   0.036463 0.347798 0.335568 -0.174609
C21   C     C_R   0.859593 0.887679 0.688233 -0.210753
C22   C     C_R   0.140406 0.387675 0.311769 -0.210757
C23   C     C_R   0.829365 0.852514 0.592057 0.083663
C24   C     C_R   0.170634 0.352491 0.407944 0.083665
C25   C     C_R   0.868465 0.819476 0.532415 0.140241
C26   C     C_R   0.131535 0.319425 0.467585 0.140236
C27   C     C_R   0.761763 0.847478 0.553377 0.071646
C28   C     C_R   0.238236 0.347465 0.446623 0.071648
C29   C     C_R   0.734472 0.833464 0.454415 0.055497
C30   C     C_R   0.265527 0.333443 0.545586 0.055489
C31   C     C_R   0.775100 0.784522 0.399628 -0.205223
C32   C     C_R   0.224901 0.284480 0.600373 -0.205217
C33   C     C_R   0.840772 0.780744 0.437575 -0.203752
C34   C     C_R   0.159230 0.280683 0.562425 -0.203749
C35   C     C_R   0.720751 0.841943 0.610573 -0.196491
C36   C     C_R   0.279248 0.341940 0.389426 -0.196499
C37   C     C_R   0.655415 0.827520 0.572031 -0.108522
C38   C     C_R   0.344584 0.327518 0.427968 -0.108521
C39   C     C_R   0.626658 0.838653 0.474343 0.076624
C40   C     C_R   0.373341 0.338652 0.525656 0.076634
C41   C     C_R   0.666837 0.851938 0.414241 -0.016633
C42   C     C_R   0.333163 0.351929 0.585758 -0.016637
C43   C     C_R   0.559094 0.831974 0.435550 -0.002464
C44   C     C_R   0.440906 0.331988 0.564448 -0.002458
C45   C     C_R   0.532497 0.829834 0.336359 -0.096371
C46   C     C_R   0.467505 0.329866 0.663640 -0.096380
C47   C     C_R   0.638282 0.881711 0.316420 -0.059068
C48   C     C_R   0.361717 0.381708 0.683578 -0.059066
H5    H     H_    0.870063 0.745587 0.392389 0.127526
H6    H     H_    0.129940 0.245499 0.607610 0.127524
H7    H     H_    0.965010 0.790975 0.523750 0.118441
H8    H     H_    0.034991 0.290873 0.476246 0.118440
H9    H     H_    0.756724 0.739919 0.327527 0.152697
H10   H     H_    0.243280 0.239873 0.672475 0.152694
H11   H     H_    0.738096 0.834289 0.686148 0.126745
H12   H     H_    0.261903 0.334287 0.313852 0.126748
O11   O     O_R   0.036450 0.233070 0.130130 -0.536087
O12   O     O_R   0.963550 0.733070 0.869870 -0.536086
O13   O     O_R   0.912470 0.560570 0.006790 -0.544036
O14   O     O_R   0.087530 0.060570 0.993210 -0.544034
C49   C     C_R   0.886984 0.391937 0.002555 0.732211
C50   C     C_R   0.113015 0.891936 0.997444 0.732212
O15   O     O_R   0.032920 0.562940 0.138050 -0.539529
O16   O     O_R   0.967080 0.062940 0.861950 -0.539529
O17   O     O_R   0.084790 0.730500 0.002090 -0.537450
O18   O     O_R   0.915210 0.230500 0.997910 -0.537449
C51   C     C_R   0.045072 0.394202 0.174523 0.684802
C52   C     C_R   0.954928 0.894205 0.825477 0.684803
O19   O     O_3   0.016820 0.396170 0.955260 -0.378234
O20   O     O_3   0.983180 0.896170 0.044740 -0.378235
V3    V     V_3+5 0.996880 0.672090 0.008300 1.421180
V4    V     V_3+5 0.003120 0.172090 0.991700 1.421184
H13   H     H_    0.190921 0.597016 0.009672 0.141631
H14   H     H_    0.809087 0.097014 0.990363 0.141635
H15   H     H_    0.014876 0.841247 0.692136 0.107200
H16   H     H_    0.985125 0.341174 0.307860 0.107202
H17   H     H_    0.833010 0.919383 0.737167 0.099453
H18   H     H_    0.166988 0.419418 0.262838 0.099458
C53   C     C_2   0.515334 0.816726 0.496246 0.406949
H19   H     H_    0.472342 0.734747 0.473451 0.144464
O21   O     O_2   0.524496 0.902587 0.569672 -0.567031
C54   C     C_2   0.484665 0.316737 0.503750 0.406932
H20   H     H_    0.527662 0.234780 0.526551 0.144492
O22   O     O_2   0.475496 0.402568 0.430312 -0.567040
H21   H     H_    0.301110 0.575735 0.003660 0.163461
H22   H     H_    0.698894 0.075736 0.996354 0.163467
C55   C     C_2   0.675216 0.972369 0.258311 0.323827
H23   H     H_    0.711145 0.074788 0.290402 0.069014
O23   O     O_2   0.668096 0.929224 0.176436 -0.538703
C56   C     C_2   0.324779 0.472362 0.741682 0.323831
H24   H     H_    0.288845 0.574768 0.709583 0.069015
O24   O     O_2   0.331901 0.429229 0.823559 -0.538701
C57   C     C_2   0.462293 0.819438 0.292011 0.363909
H25   H     H_    0.443239 0.740064 0.228047 0.045894
O25   O     O_2   0.425350 0.906662 0.323589 -0.536860
C58   C     C_2   0.537709 0.319505 0.707989 0.363928
H26   H     H_    0.556768 0.240194 0.771974 0.045856
O26   O     O_2   0.574649 0.406693 0.676388 -0.536877
H27   H     H_    0.628526 0.805879 0.621435 0.195725
H28   H     H_    0.371470 0.305877 0.378561 0.195734

loop_
_geom_bond_atom_site_label_1
_geom_bond_atom_site_label_2
_ccdc_geom_bond_type
C22   C24   A    
C39   C43   A    
C15   C45   A    
C53   H19   S    
C18   C26   A    
O16   C52   A    
C45   C57   S    
C2    O7    A    
O15   V3    S    
C31   C33   A    
O5    C3    A    
C29   C41   A    
C5    C9    S    
C33   H5    S    
C8    C49   S    
C6    C10   S    
O14   C50   A    
C7    H1    S    
C10   C12   D    
C44   C54   S    
C57   O25   D    
C56   H24   S    
C14   C22   A    
C44   C46   A    
C29   C31   A    
C25   C33   A    
C14   C51   S    
C31   H9    S    
C34   H6    S    
C17   C19   A    
C28   C30   A    
C38   H28   S    
O12   V3    S    
C47   C55   S    
O14   V4    S    
C6    C8    D    
C1    C16   S    
C20   H16   S    
C32   C34   A    
C2    C15   S    
O2    C4    A    
O6    V2    S    
C30   C42   A    
C35   H11   S    
C58   O26   D    
C58   H26   S    
C36   C38   A    
C41   C47   A    
C30   C32   A    
C37   C39   A    
C42   C48   A    
C38   C40   A    
C43   C45   A    
C6    H14   S    
C15   C47   A    
C5    H13   S    
C16   C48   A    
C13   C52   S    
C23   C25   A    
C32   H10   S    
O20   V3    S    
C23   C27   A    
C3    C12   S    
C40   C44   A    
C35   C37   A    
O4    V2    S    
C7    C50   S    
O11   V4    S    
C36   H12   S    
C27   C29   A    
O6    C4    A    
C22   H18   S    
C21   H17   S    
C55   O23   D    
O1    V2    S    
O2    V1    S    
O13   C49   A    
O17   V3    S    
C26   C34   A    
O13   V3    S    
C8    H2    S    
C54   O22   D    
C39   C41   A    
O4    C2    A    
C18   H8    S    
O3    V1    S    
C17   H7    S    
O19   V4    S    
O12   C52   A    
C24   C26   A    
O3    C1    A    
C53   O21   D    
C48   C56   S    
C11   H3    S    
C13   C19   A    
C12   H4    S    
C14   C20   A    
C4    C11   S    
C17   C25   A    
O7    V1    S    
C16   C46   A    
C1    O8    A    
C21   C23   A    
O8    V2    S    
C57   H25   S    
O15   C51   A    
C50   O17   A    
C28   C36   A    
C9    H21   S    
C56   O24   D    
C49   O18   A    
C27   C35   A    
O18   V4    S    
O5    V1    S    
C5    C7    D    
C18   C20   A    
C40   C42   A    
C10   H22   S    
C9    C11   D    
C24   C28   A    
C46   C58   S    
O16   V4    S    
C54   H20   S    
O9    V2    S    
C13   C21   A    
C55   H23   S    
O10   V1    S    
C43   C53   S    
O1    C3    A    
O11   C51   A    
C37   H27   S    
C19   H15   S    
