data_mof_unit_61288.cif
_audit_creation_date              2012-12-10T20:43:36-0500
_audit_creation_method            fapswitch 2.2
_symmetry_space_group_name_H-M    P1
_symmetry_Int_Tables_number       1
_space_group_crystal_system       triclinic
_cell_length_a                    10.881627
_cell_length_b                    19.112221
_cell_length_c                    19.221643
_cell_angle_alpha                 94.951528
_cell_angle_beta                  91.698699
_cell_angle_gamma                 96.460839
_cell_volume                      3954.22371012

loop_
_atom_site_label
_atom_site_type_symbol
_atom_type_description
_atom_site_fract_x
_atom_site_fract_y
_atom_site_fract_z
_atom_type_partial_charge
Br1   Br    Br    0.946331 0.420839 0.402004 -0.373188
Br2   Br    Br    0.749512 0.258709 0.462983 -0.310106
Br3   Br    Br    0.487406 0.640696 0.251908 -0.425750
Br4   Br    Br    0.222438 0.540959 0.755727 -0.472359
Br5   Br    Br    0.549539 0.340422 0.238561 -0.385715
Br6   Br    Br    0.735068 0.083647 0.441363 -0.356943
Br7   Br    Br    0.805685 0.933336 0.524311 -0.504640
C1    C     C_R   0.513016 0.690173 0.508311 0.512169
C2    C     C_R   0.520485 0.767362 0.513185 -0.031360
C3    C     C_R   0.635924 0.807843 0.514037 -0.128355
C4    C     C_R   0.487678 0.309932 0.491331 0.554294
C5    C     C_R   0.644326 0.881425 0.518580 0.156914
C6    C     C_R   0.481366 0.509975 0.765714 -0.002906
C7    C     C_R   0.586795 0.496589 0.803916 -0.163855
C8    C     C_R   0.589621 0.501088 0.877015 0.279238
C9    C     C_R   0.481999 0.515495 0.912597 0.189303
C10   C     C_R   0.377705 0.529671 0.874575 -0.121360
C11   C     C_R   0.375651 0.526622 0.801787 0.132044
C12   C     C_R   0.595276 0.201125 0.474393 0.158130
C13   C     C_R   0.525791 0.550813 0.128552 0.295074
C14   C     C_R   0.514359 0.552582 0.201102 0.117510
C15   C     C_R   0.534755 0.485554 0.089053 0.148771
C16   C     C_R   0.513009 0.492942 0.311171 0.587592
C17   C     C_R   0.519185 0.490353 0.235018 0.007000
C18   C     C_R   0.534235 0.426404 0.195733 0.107148
C19   C     C_R   0.542173 0.424661 0.123390 -0.119970
C20   C     C_R   0.485581 0.506469 0.689006 0.531333
C21   C     C_R   0.834517 0.515407 0.515319 0.528381
C22   C     C_R   0.163873 0.485374 0.485264 0.551478
C23   C     C_R   0.590527 0.126958 0.468922 0.178157
C24   C     C_2   0.029603 0.482036 0.478469 0.142644
C25   C     C_2   0.967615 0.522679 0.522701 0.271118
C26   C     C_R   0.486066 0.232963 0.485492 -0.027786
C27   C     C_3   0.647113 0.642020 0.088554 0.015290
C28   C     C_3   0.646769 0.705228 0.045684 -0.346784
C29   C     C_3   0.785217 0.548019 0.912587 -0.011426
C30   C     C_3   0.896315 0.537964 0.959030 -0.336832
C31   C     C_3   0.984266 0.630107 0.589654 0.002898
C32   C     C_3   0.074539 0.679226 0.638519 -0.333279
C33   C     C_3   0.274516 0.907998 0.596690 -0.009798
C34   C     C_R   0.477256 0.085119 0.478106 0.204111
C35   C     C_3   0.153171 0.940135 0.602230 -0.325746
C36   C     C_3   0.189522 0.069054 0.426824 -0.004323
C37   C     C_3   0.070528 0.020423 0.432690 -0.298936
C38   C     C_R   0.368006 0.117324 0.484318 0.240513
C39   C     C_R   0.373051 0.190965 0.488886 -0.167528
C40   C     C_R   0.419808 0.874851 0.522213 0.255387
C41   C     C_R   0.412907 0.800918 0.518360 -0.138559
C42   C     C_R   0.536406 0.915546 0.518903 0.248502
H1    H     H_    0.296034 0.541749 0.902012 0.163928
H2    H     H_    0.743335 0.728632 0.038969 0.100823
H3    H     H_    0.601944 0.688279 0.993341 0.158896
H4    H     H_    0.747781 0.597404 0.932979 0.118400
H5    H     H_    0.817593 0.554003 0.858795 0.138252
H6    H     H_    0.938214 0.490280 0.938706 0.188397
H7    H     H_    0.966755 0.584844 0.959747 0.112382
H8    H     H_    0.867300 0.531438 0.013222 0.162693
H9    H     H_    0.892129 0.625514 0.613547 0.122537
H10   H     H_    0.977732 0.654471 0.539173 0.130766
H11   H     H_    0.167962 0.684038 0.616367 0.177883
H12   H     H_    0.552900 0.375233 0.093378 0.183146
H13   H     H_    0.042587 0.732492 0.645203 0.085998
H14   H     H_    0.080173 0.658159 0.690422 0.201243
H15   H     H_    0.345105 0.940627 0.632602 0.152456
H16   H     H_    0.258713 0.853560 0.613800 0.112398
H17   H     H_    0.081430 0.908939 0.566360 0.188768
H18   H     H_    0.121418 0.939669 0.656575 0.114432
H19   H     H_    0.165819 0.995581 0.588392 0.220702
H20   H     H_    0.243502 0.045189 0.384361 0.157959
H21   H     H_    0.164519 0.121115 0.412688 0.157982
H22   H     H_    0.015082 0.042671 0.474980 0.226972
H23   H     H_    0.668553 0.483616 0.777064 0.158014
H24   H     H_    0.015312 0.015182 0.382615 0.154429
H25   H     H_    0.092271 0.967252 0.444709 0.194395
H26   H     H_    0.323275 0.769816 0.518549 0.141618
H27   H     H_    0.288691 0.215406 0.496497 0.158496
H28   H     H_    0.719858 0.782233 0.512313 0.158172
H29   H     H_    0.702017 0.603260 0.060818 0.131458
H30   H     H_    0.692916 0.660288 0.140545 0.165913
H31   H     H_    0.595256 0.745901 0.072684 0.191376
N1    N     N_2   0.468356 0.010513 0.478407 -0.125158
N2    N     N_2   0.547571 0.990222 0.517896 -0.145538
N3    N     N_2   0.475788 0.519563 0.986395 -0.171620
N4    N     N_2   0.540109 0.479490 0.015158 -0.160153
O1    O     O_3   0.500000 0.500000 0.500000 -0.478523
O2    O     O_R   0.783160 0.551820 0.473170 -0.555724
O3    O     O_R   0.222430 0.530340 0.530340 -0.489001
O4    O     O_R   0.771990 0.472690 0.551320 -0.506099
O5    O     O_R   0.222420 0.445150 0.445160 -0.511502
O6    O     O_3   0.523836 0.612624 0.096284 -0.495910
O7    O     O_3   0.695560 0.488633 0.913284 -0.516624
O8    O     O_3   0.027567 0.563028 0.580349 -0.526702
O9    O     O_3   0.312384 0.907086 0.526991 -0.518213
O10   O     O_3   0.256855 0.076487 0.491430 -0.535815
O11   O     O_R   0.435070 0.449940 0.339290 -0.493718
O12   O     O_R   0.419380 0.543640 0.654290 -0.491530
O13   O     O_R   0.586230 0.658380 0.469080 -0.523543
O14   O     O_R   0.559310 0.348040 0.537340 -0.498476
O15   O     O_R   0.435110 0.654980 0.544320 -0.554807
O16   O     O_R   0.419350 0.338590 0.449260 -0.516610
O17   O     O_R   0.586210 0.538520 0.349230 -0.496890
O18   O     O_R   0.559330 0.467910 0.657200 -0.551833
Zn1   Zn    Zn3+2 0.396020 0.434560 0.434560 1.038206
Zn2   Zn    Zn3+2 0.611960 0.561120 0.448760 0.994066
Zn3   Zn    Zn3+2 0.595990 0.448060 0.560420 1.002313
Zn4   Zn    Zn3+2 0.396040 0.556260 0.556260 0.981024

loop_
_geom_bond_atom_site_label_1
_geom_bond_atom_site_label_2
_ccdc_geom_bond_type
C33   O9    S    
C1    O13   A    
O2    Zn2   S    
C39   H27   S    
C5    C42   A    
C40   C42   A    
C16   O17   A    
C38   C39   A    
O14   Zn3   S    
C6    C11   A    
C37   H22   S    
C4    O14   A    
C29   C30   S    
C1    O15   A    
C31   C32   S    
C8    C9    A    
C31   O8    S    
C28   H31   S    
Br1   C24   S    
C36   O10   S    
O18   Zn3   S    
C27   C28   S    
O15   Zn4   S    
C29   H4    S    
C31   H9    S    
C30   H7    S    
C40   C41   A    
C9    C10   A    
C21   O4    A    
C16   C17   S    
C23   C34   A    
C2    C3    A    
O1    Zn1   S    
Br4   C11   S    
C33   C35   S    
C36   H20   S    
C6    C7    A    
O5    Zn1   S    
C35   H19   S    
C26   C39   A    
C41   H26   S    
C20   O12   A    
O1    Zn3   S    
C38   O10   S    
C22   O5    A    
C3    H28   S    
O11   Zn1   S    
N1    N2    D    
Br7   C5    S    
N3    N4    D    
C4    C26   S    
C17   C18   A    
C12   C26   A    
C1    C2    S    
C18   C19   A    
C13   O6    S    
C9    N3    S    
C4    O16   A    
C15   N4    S    
C42   N2    S    
C36   C37   S    
C27   O6    S    
C27   H30   S    
C24   C25   D    
C21   C25   S    
C34   N1    S    
C10   C11   A    
C40   O9    S    
C37   H25   S    
O1    Zn2   S    
C3    C5    A    
Br5   C18   S    
C29   O7    S    
Br6   C23   S    
C13   C15   A    
C36   H21   S    
C33   H16   S    
C28   H2    S    
C35   H18   S    
Br3   C14   S    
O1    Zn4   S    
C32   H13   S    
O12   Zn4   S    
Br2   C12   S    
C7    H23   S    
C19   H12   S    
C10   H1    S    
O17   Zn2   S    
C32   H14   S    
C20   O18   A    
C33   H15   S    
C22   C24   S    
C27   H29   S    
C21   O2    A    
O4    Zn3   S    
C25   O8    S    
O3    Zn4   S    
C32   H11   S    
C16   O11   A    
O16   Zn1   S    
C37   H24   S    
C22   O3    A    
O13   Zn2   S    
C29   H5    S    
C8    O7    S    
C31   H10   S    
C30   H6    S    
C13   C14   A    
C2    C41   A    
C15   C19   A    
C14   C17   A    
C28   H3    S    
C35   H17   S    
C34   C38   A    
C7    C8    A    
C6    C20   S    
C12   C23   A    
C30   H8    S    
