data_mof_unit_20595.cif
_audit_creation_date              2012-12-10T19:48:36-0500
_audit_creation_method            fapswitch 2.2
_symmetry_space_group_name_H-M    P1
_symmetry_Int_Tables_number       1
_space_group_crystal_system       triclinic
_cell_length_a                    10.947482
_cell_length_b                    10.674575
_cell_length_c                    9.463217
_cell_angle_alpha                 90.820143
_cell_angle_beta                  92.164666
_cell_angle_gamma                 89.82812
_cell_volume                      1104.96316067

loop_
_atom_site_label
_atom_site_type_symbol
_atom_type_description
_atom_site_fract_x
_atom_site_fract_y
_atom_site_fract_z
_atom_type_partial_charge
C1    C     C_R   0.495264 0.259337 0.499022 0.775796
C2    C     C_R   0.499139 0.740396 0.500452 0.772657
C3    C     C_R   0.871464 0.503289 0.506026 -0.087256
C4    C     C_R   0.128020 0.499410 0.493648 -0.080887
C5    C     C_R   0.944080 0.562181 0.614121 0.022707
C6    C     C_R   0.054925 0.442647 0.384273 0.017853
C7    C     C_3   0.608466 0.042533 0.501847 -0.158845
C8    C     C_3   0.378672 0.955421 0.495334 -0.169108
C9    C     C_3   0.550913 0.956871 0.384524 -0.174652
C10   C     C_3   0.435488 0.041483 0.612367 -0.172328
C11   C     C_3   0.496226 0.877207 0.499883 0.022468
C12   C     C_3   0.491199 0.121685 0.497806 0.025018
C13   C     C_3   0.553377 0.960762 0.616851 -0.113581
C14   C     C_3   0.433236 0.037862 0.380766 -0.149737
C15   C     C_3   0.579020 0.579237 0.055951 -0.142748
C16   C     C_3   0.420942 0.420006 0.944279 -0.214311
C17   C     C_3   0.472981 0.607751 0.951848 0.631884
C18   C     C_3   0.527658 0.392400 0.049160 0.637781
C19   C     C_3   0.606630 0.469787 0.953785 -0.134813
C20   C     C_3   0.393211 0.530455 0.047181 -0.222432
C21   C     C_R   0.262282 0.498063 0.497318 0.771723
C22   C     C_R   0.737505 0.503132 0.502635 0.788149
C23   C     C_R   0.125827 0.423865 0.001866 -0.233943
C24   C     C_R   0.865086 0.608626 0.992249 -0.242070
C25   C     C_R   0.105770 0.471451 0.136557 -0.151898
C26   C     C_R   0.888352 0.551335 0.863091 -0.143363
C27   C     C_R   0.101929 0.391487 0.251556 0.071423
C28   C     C_R   0.894702 0.622337 0.741128 0.061194
C29   C     C_R   0.114785 0.261673 0.229703 -0.226603
C30   C     C_R   0.876918 0.752679 0.749278 -0.233423
C31   C     C_R   0.131722 0.211503 0.093430 0.546720
C32   C     C_R   0.853443 0.812523 0.879074 0.566449
C33   C     C_R   0.138141 0.295598 0.979297 -0.245956
C34   C     C_R   0.847187 0.737568 0.001162 -0.228480
C35   C     C_R   0.928243 0.444651 0.392819 -0.242726
C36   C     C_R   0.071081 0.558539 0.606818 -0.244755
Cu1   Cu    Cu3+1 0.500030 0.499990 0.643150 0.968796
Cu2   Cu    Cu3+1 0.499970 0.500010 0.356850 0.967397
H1    H     H_    0.153667 0.264505 0.872262 0.128857
H2    H     H_    0.827664 0.776381 0.103994 0.121737
H3    H     H_    0.639167 0.649749 0.109593 0.144573
H4    H     H_    0.358020 0.352312 0.890439 0.144260
H5    H     H_    0.690928 0.430727 0.910165 0.149294
H6    H     H_    0.310278 0.566946 0.095292 0.160598
H7    H     H_    0.132542 0.487084 0.914274 0.162399
H8    H     H_    0.859571 0.552441 0.086080 0.168933
H9    H     H_    0.092280 0.571357 0.151184 0.141741
H10   H     H_    0.903687 0.451093 0.858313 0.148239
H11   H     H_    0.106345 0.198886 0.317738 0.135695
H12   H     H_    0.885499 0.808518 0.655472 0.134305
H13   H     H_    0.873166 0.400582 0.308314 0.169023
H14   H     H_    0.126126 0.603785 0.690447 0.145012
H15   H     H_    0.598504 0.919016 0.291479 0.128284
H16   H     H_    0.381246 0.076321 0.701318 0.121091
H17   H     H_    0.702801 0.080617 0.504408 0.135233
H18   H     H_    0.284617 0.916621 0.492833 0.124344
H19   H     H_    0.604185 0.924435 0.711377 0.186407
H20   H     H_    0.379137 0.071539 0.287460 0.145059
N1    N     N_3   0.500090 0.499970 0.858290 -0.206971
N2    N     N_3   0.499910 0.500030 0.141710 -0.208995
O1    O     O_R   0.500060 0.316850 0.620870 -0.600676
O2    O     O_R   0.499940 0.683150 0.379130 -0.605174
O3    O     O_R   0.500000 0.316860 0.379090 -0.535961
O4    O     O_R   0.500000 0.683140 0.620910 -0.531271
O5    O     O_R   0.319670 0.500010 0.620890 -0.587774
O6    O     O_R   0.680330 0.499990 0.379110 -0.575658
O7    O     O_R   0.319620 0.500010 0.379110 -0.578345
O8    O     O_R   0.680380 0.499990 0.620890 -0.572258
O9    O     O_3   0.457103 0.728247 0.893942 -0.573393
C37   C     C_3   0.343549 0.780156 0.929183 0.030990
H21   H     H_    0.267348 0.711441 0.917479 0.115417
H22   H     H_    0.321150 0.854833 0.852064 0.168040
C38   C     C_3   0.350904 0.839260 0.077474 -0.847405
H23   H     H_    0.401998 0.928523 0.075433 0.242032
H24   H     H_    0.257920 0.857594 0.115473 0.248858
H25   H     H_    0.398152 0.776619 0.154095 0.262146
O10   O     O_3   0.577469 0.284019 0.112366 -0.576575
C39   C     C_3   0.514790 0.176080 0.064956 0.010392
H26   H     H_    0.413702 0.186684 0.068606 0.150261
H27   H     H_    0.542558 0.099978 0.137343 0.182706
C40   C     C_3   0.553520 0.136049 0.919060 -0.876665
H28   H     H_    0.653425 0.145038 0.909787 0.281428
H29   H     H_    0.525899 0.037392 0.899586 0.237042
H30   H     H_    0.509033 0.196623 0.839306 0.256703
O11   O     O_3   0.140606 0.081383 0.080487 -0.611845
C41   C     C_3   0.133810 0.037226 0.938932 -0.390138
H31   H     H_    0.220395 0.057005 0.886021 0.158183
H32   H     H_    0.053849 0.076585 0.878559 0.204029
H33   H     H_    0.120275 0.934399 0.938541 0.197854
O12   O     O_3   0.838008 0.942470 0.877969 -0.612296
C42   C     C_3   0.838925 0.998223 0.014399 -0.362752
H34   H     H_    0.919251 0.968167 0.081012 0.199564
H35   H     H_    0.752133 0.978458 0.067056 0.174852
H36   H     H_    0.846886 0.101187 0.003910 0.204472

loop_
_geom_bond_atom_site_label_1
_geom_bond_atom_site_label_2
_ccdc_geom_bond_type
C4    C36   A    
C17   O9    S    
C31   O11   S    
C27   C29   A    
C38   H23   S    
C7    H17   S    
C5    C36   A    
C8    H18   S    
C40   H28   S    
C29   H11   S    
O10   C39   S    
C15   C19   S    
C33   H1    S    
C23   H7    S    
C24   C26   A    
C8    C11   S    
C41   H32   S    
C13   H19   S    
Cu1   O8    S    
C17   C20   S    
C6    C35   A    
C7    C9    S    
C18   C19   S    
C15   N2    S    
C22   O6    A    
C40   H29   S    
C32   O12   S    
Cu2   O6    S    
C2    O4    A    
C23   C33   A    
Cu1   O5    S    
C31   C33   A    
C37   H21   S    
C20   N2    S    
C25   H9    S    
C36   H14   S    
C26   H10   S    
C30   H12   S    
C21   O7    A    
C38   H24   S    
C1    C12   S    
C2    C11   S    
C1    O3    A    
C20   H6    S    
C19   H5    S    
C7    C12   S    
C14   H20   S    
C15   H3    S    
C4    C6    A    
C42   H34   S    
C41   H31   S    
C19   N1    S    
O11   C41   S    
C41   H33   S    
C24   C34   A    
Cu1   O4    S    
C16   N1    S    
C32   C34   A    
C9    C14   S    
Cu1   Cu2   S    
C42   H35   S    
C5    C28   S    
C6    C27   S    
C3    C35   A    
C16   C20   S    
C37   C38   S    
C16   C18   S    
C9    C11   S    
C22   O8    A    
Cu1   N1    S    
C10   C12   S    
C17   N1    S    
Cu2   N2    S    
C18   N2    S    
C12   C14   S    
C35   H13   S    
C38   H25   S    
C34   H2    S    
C9    H15   S    
C16   H4    S    
C40   H30   S    
Cu2   O3    S    
C15   C17   S    
C8    C14   S    
C21   O5    A    
C39   H26   S    
C3    C5    A    
C10   C13   S    
C1    O1    A    
Cu1   O1    S    
C25   C27   A    
C26   C28   A    
C24   H8    S    
C28   C30   A    
C29   C31   A    
C42   H36   S    
C30   C32   A    
C4    C21   S    
C11   C13   S    
C39   C40   S    
O12   C42   S    
C18   O10   S    
C39   H27   S    
C23   C25   A    
O9    C37   S    
C10   H16   S    
C7    C13   S    
Cu2   O7    S    
C8    C10   S    
C3    C22   S    
C37   H22   S    
C2    O2    A    
Cu2   O2    S    
