data_mof_unit_62438.cif
_audit_creation_date              2012-12-10T16:48:11-0500
_audit_creation_method            fapswitch 2.2
_symmetry_space_group_name_H-M    P1
_symmetry_Int_Tables_number       1
_space_group_crystal_system       monoclinic
_cell_length_a                    18.656423
_cell_length_b                    18.666642
_cell_length_c                    32.800595
_cell_angle_alpha                 90.0
_cell_angle_beta                  90.0
_cell_angle_gamma                 89.956975
_cell_volume                      11422.8948176

loop_
_atom_site_label
_atom_site_type_symbol
_atom_type_description
_atom_site_fract_x
_atom_site_fract_y
_atom_site_fract_z
_atom_type_partial_charge
C1    C     C_1   0.000000 0.500000 0.731164 -0.007740
C2    C     C_1   0.000000 0.500000 0.350800 -0.015283
C3    C     C_3   0.653904 0.638643 0.452241 -0.278980
C4    C     C_3   0.617924 0.579722 0.427396 -0.491063
C5    C     C_3   0.393019 0.703078 0.484847 0.005429
C6    C     C_3   0.361191 0.654115 0.452055 -0.278867
C7    C     C_3   0.419999 0.618088 0.427090 -0.490976
C8    C     C_3   0.734711 0.171235 0.070831 0.059410
C9    C     C_3   0.680828 0.152374 0.104472 -0.258243
C10   C     C_3   0.705317 0.087240 0.128895 -0.466521
C11   C     C_3   0.090917 0.212255 0.994197 0.036803
C12   C     C_3   0.075176 0.197668 0.039461 -0.215999
C13   C     C_1   0.000000 0.500000 0.850787 -0.011622
C14   C     C_3   0.094940 0.121132 0.051547 -0.431379
C15   C     C_3   0.265288 0.828765 0.070831 0.059410
C16   C     C_3   0.319172 0.847626 0.104472 -0.258243
C17   C     C_3   0.294682 0.912760 0.128895 -0.466521
C18   C     C_3   0.909083 0.787745 0.994196 0.036804
C19   C     C_3   0.924824 0.802332 0.039461 -0.216000
C20   C     C_3   0.905060 0.878868 0.051547 -0.431379
C21   C     C_3   0.693558 0.797802 0.078589 0.014910
C22   C     C_3   0.721777 0.854952 0.107883 -0.250678
C23   C     C_3   0.678275 0.857271 0.147258 -0.477517
C24   C     C_1   0.500000 1.000000 0.850789 -0.011643
C25   C     C_3   0.110639 0.798474 0.983816 -0.003055
C26   C     C_3   0.145769 0.845570 0.951236 -0.274909
C27   C     C_3   0.089590 0.886891 0.926902 -0.482085
C28   C     C_3   0.306442 0.202198 0.078589 0.014909
C29   C     C_3   0.278224 0.145048 0.107883 -0.250677
C30   C     C_3   0.321725 0.142730 0.147258 -0.477517
C31   C     C_3   0.889361 0.201526 0.983816 -0.003054
C32   C     C_3   0.854231 0.154429 0.951237 -0.274909
C33   C     C_3   0.910410 0.113109 0.926903 -0.482084
C34   C     C_1   0.500000 0.000000 0.268747 -0.010696
C35   C     C_1   0.000000 0.500000 0.268784 -0.007360
C36   C     C_1   0.000000 0.500000 0.768765 -0.005513
C37   C     C_1   0.500000 0.000000 0.768764 -0.005077
C38   C     C_1   0.000000 0.500000 0.649156 -0.022625
C39   C     C_1   0.500000 1.000000 0.649151 -0.022720
C40   C     C_1   0.500000 0.000000 0.149143 -0.039703
C41   C     C_1   0.500000 1.000000 0.731161 -0.007644
C42   C     C_1   0.000000 0.500000 0.149168 -0.011321
C43   C     C_R   0.500000 1.000000 0.603984 0.486661
C44   C     C_R   0.000000 0.500000 0.603990 0.486942
C45   C     C_R   0.000000 0.500000 0.103989 0.493049
C46   C     C_R   0.500000 0.000000 0.103987 0.473954
C47   C     C_R   0.500000 0.000000 0.395966 0.482697
C48   C     C_R   0.000000 0.500000 0.395979 0.482707
C49   C     C_R   0.000000 0.500000 0.895970 0.484301
C50   C     C_R   0.500000 0.000000 0.895975 0.490718
C51   C     C_R   0.359762 0.138063 0.501091 0.488976
C52   C     C_1   0.500000 0.000000 0.231144 -0.013836
C53   C     C_R   0.138094 0.640214 0.501092 0.489063
C54   C     C_R   0.640238 0.861936 0.501091 0.488976
C55   C     C_R   0.861906 0.359786 0.501092 0.489063
C56   C     C_R   0.361941 0.859998 0.499296 0.514818
C57   C     C_R   0.140031 0.361970 0.499290 0.514818
C58   C     C_R   0.638059 0.140002 0.499296 0.514818
C59   C     C_R   0.859969 0.638030 0.499290 0.514818
C60   C     C_R   0.862641 0.640871 0.998479 0.481252
C61   C     C_R   0.637964 0.140315 0.001193 0.490407
C62   C     C_R   0.137359 0.359129 0.998479 0.481251
C63   C     C_1   0.000000 0.500000 0.231184 -0.006770
C64   C     C_R   0.362036 0.859685 0.001193 0.490407
C65   C     C_R   0.861928 0.359973 0.999272 0.512043
C66   C     C_R   0.638107 0.860018 0.001039 0.511430
C67   C     C_R   0.138072 0.640027 0.999272 0.512043
C68   C     C_R   0.361893 0.139982 0.001039 0.511430
C69   C     C_1   0.500000 0.000000 0.313169 -0.045431
C70   C     C_1   0.000000 0.500000 0.313199 -0.043703
C71   C     C_1   0.000000 0.500000 0.813183 -0.040702
C72   C     C_1   0.500000 0.000000 0.813183 -0.040038
C73   C     C_2   0.201078 0.742861 0.473851 -0.096224
C74   C     C_1   0.000000 0.500000 0.686752 -0.050090
C75   C     C_2   0.742712 0.798761 0.473732 -0.096213
C76   C     C_2   0.798921 0.257139 0.473851 -0.096224
C77   C     C_2   0.257288 0.201239 0.473732 -0.096213
C78   C     C_2   0.196109 0.250865 0.476251 -0.095063
C79   C     C_2   0.749338 0.195975 0.476405 -0.094943
C80   C     C_2   0.803891 0.749135 0.476251 -0.095063
C81   C     C_2   0.250662 0.804025 0.476405 -0.094943
C82   C     C_2   0.699769 0.244105 0.974494 -0.098756
C83   C     C_2   0.256225 0.312632 0.986396 -0.089155
C84   C     C_2   0.300231 0.755895 0.974494 -0.098755
C85   C     C_1   0.500000 1.000000 0.686748 -0.050206
C86   C     C_2   0.743775 0.687368 0.986396 -0.089155
C87   C     C_2   0.689953 0.744588 0.981864 -0.097448
C88   C     C_2   0.250295 0.695010 0.977064 -0.096947
C89   C     C_2   0.310047 0.255412 0.981864 -0.097448
C90   C     C_2   0.749705 0.304990 0.977064 -0.096946
C91   C     C_2   0.187274 0.701225 0.506365 0.312061
C92   C     C_2   0.701311 0.812775 0.506324 0.312506
C93   C     C_2   0.812726 0.298775 0.506365 0.312061
C94   C     C_2   0.298689 0.187224 0.506324 0.312506
C95   C     C_2   0.202438 0.315282 0.494264 0.308954
C96   C     C_1   0.500000 0.000000 0.186734 -0.061373
C97   C     C_2   0.684757 0.202354 0.494283 0.308885
C98   C     C_2   0.797562 0.684718 0.494264 0.308954
C99   C     C_2   0.315243 0.797646 0.494283 0.308885
C100  C     C_2   0.686732 0.201592 0.006751 0.308635
C101  C     C_2   0.186387 0.297749 0.992281 0.316566
C102  C     C_2   0.313268 0.798408 0.006751 0.308635
C103  C     C_2   0.813613 0.702251 0.992281 0.316566
C104  C     C_2   0.687052 0.799784 0.008127 0.306093
C105  C     C_2   0.185389 0.701999 0.994500 0.311399
C106  C     C_2   0.312948 0.200216 0.008127 0.306093
C107  C     C_1   0.000000 0.500000 0.186770 -0.041565
C108  C     C_2   0.814611 0.298001 0.994500 0.311399
C109  C     C_3   0.234408 0.672184 0.570796 0.058401
C110  C     C_3   0.180154 0.654290 0.604397 -0.259003
C111  C     C_3   0.204669 0.590263 0.629730 -0.463351
C112  C     C_3   0.672779 0.766198 0.570945 0.058197
C113  C     C_3   0.655044 0.820774 0.604404 -0.259107
C114  C     C_3   0.591299 0.796468 0.630024 -0.463224
C115  C     C_3   0.765591 0.327816 0.570796 0.058401
C116  C     C_3   0.819846 0.345710 0.604397 -0.259003
C117  C     C_3   0.795331 0.409737 0.629730 -0.463351
C118  C     C_1   0.500000 0.000000 0.350777 -0.016277
C119  C     C_3   0.327221 0.233802 0.570945 0.058198
C120  C     C_3   0.344956 0.179226 0.604404 -0.259107
C121  C     C_3   0.408701 0.203532 0.630024 -0.463224
C122  C     C_3   0.297050 0.392985 0.485085 0.005473
C123  C     C_3   0.346096 0.361357 0.452241 -0.278979
C124  C     C_3   0.382076 0.420278 0.427396 -0.491063
C125  C     C_3   0.606982 0.296922 0.484847 0.005429
C126  C     C_3   0.638809 0.345885 0.452055 -0.278866
C127  C     C_3   0.580001 0.381912 0.427089 -0.490976
C128  C     C_3   0.702950 0.607015 0.485085 0.005473
H1    H     H_    0.176793 0.731520 0.444440 0.081061
H2    H     H_    0.274796 0.367704 0.984511 0.085886
H3    H     H_    0.847791 0.889790 0.044761 0.218411
H4    H     H_    0.702563 0.744084 0.092276 0.134126
H5    H     H_    0.634368 0.804539 0.075095 0.109706
H6    H     H_    0.778784 0.843445 0.115271 0.155209
H7    H     H_    0.719049 0.908306 0.092976 0.187336
H8    H     H_    0.621494 0.870951 0.140611 0.158571
H9    H     H_    0.700636 0.898876 0.167832 0.147195
H10   H     H_    0.680639 0.804626 0.162987 0.145006
H11   H     H_    0.076088 0.833177 0.003009 0.142777
H12   H     H_    0.074743 0.758184 0.969234 0.104894
H13   H     H_    0.324967 0.766638 0.945132 0.083326
H14   H     H_    0.182784 0.884273 0.966067 0.170189
H15   H     H_    0.177209 0.811524 0.929974 0.152395
H16   H     H_    0.052306 0.849170 0.911541 0.145386
H17   H     H_    0.116518 0.920012 0.903332 0.154888
H18   H     H_    0.058509 0.922850 0.947317 0.139271
H19   H     H_    0.297437 0.255916 0.092276 0.134126
H20   H     H_    0.365632 0.195461 0.075095 0.109707
H21   H     H_    0.221216 0.156555 0.115271 0.155209
H22   H     H_    0.280951 0.091694 0.092976 0.187336
H23   H     H_    0.378506 0.129049 0.140611 0.158571
H24   H     H_    0.725204 0.632296 0.984511 0.085886
H25   H     H_    0.299364 0.101124 0.167832 0.147195
H26   H     H_    0.319361 0.195374 0.162987 0.145006
H27   H     H_    0.923912 0.166823 0.003010 0.142777
H28   H     H_    0.925257 0.241815 0.969234 0.104894
H29   H     H_    0.817217 0.115726 0.966068 0.170189
H30   H     H_    0.822791 0.188475 0.929974 0.152395
H31   H     H_    0.947694 0.150829 0.911541 0.145386
H32   H     H_    0.883482 0.079987 0.903333 0.154888
H33   H     H_    0.941491 0.077150 0.947318 0.139270
H34   H     H_    0.651341 0.740071 0.957219 0.096705
H35   H     H_    0.265993 0.644886 0.962807 0.096495
H36   H     H_    0.348659 0.259929 0.957219 0.096705
H37   H     H_    0.734007 0.355114 0.962806 0.096494
H38   H     H_    0.283086 0.694121 0.585777 0.168615
H39   H     H_    0.253311 0.623577 0.554241 0.147937
H40   H     H_    0.173715 0.701547 0.624693 0.159044
H41   H     H_    0.731133 0.822857 0.444299 0.080667
H42   H     H_    0.126890 0.642272 0.590985 0.194471
H43   H     H_    0.209598 0.541925 0.610164 0.175776
H44   H     H_    0.164669 0.579220 0.653998 0.157015
H45   H     H_    0.257221 0.601692 0.644247 0.135136
H46   H     H_    0.694888 0.717691 0.586036 0.168531
H47   H     H_    0.624055 0.747157 0.554561 0.148358
H48   H     H_    0.702503 0.827498 0.624529 0.159469
H49   H     H_    0.642735 0.873840 0.590835 0.194132
H50   H     H_    0.542764 0.791243 0.610628 0.175656
H51   H     H_    0.580359 0.836707 0.654179 0.157203
H52   H     H_    0.823207 0.268480 0.444440 0.081061
H53   H     H_    0.603032 0.744130 0.644702 0.135458
H54   H     H_    0.716913 0.305879 0.585777 0.168615
H55   H     H_    0.746689 0.376423 0.554241 0.147937
H56   H     H_    0.826285 0.298453 0.624693 0.159044
H57   H     H_    0.873110 0.357728 0.590985 0.194472
H58   H     H_    0.790402 0.458075 0.610164 0.175776
H59   H     H_    0.835331 0.420780 0.653998 0.157015
H60   H     H_    0.742779 0.398307 0.644247 0.135136
H61   H     H_    0.305112 0.282309 0.586036 0.168531
H62   H     H_    0.375945 0.252843 0.554561 0.148358
H63   H     H_    0.268867 0.177143 0.444299 0.080667
H64   H     H_    0.297497 0.172502 0.624529 0.159469
H65   H     H_    0.357265 0.126160 0.590835 0.194132
H66   H     H_    0.457236 0.208757 0.610628 0.175656
H67   H     H_    0.419641 0.163293 0.654179 0.157203
H68   H     H_    0.396968 0.255870 0.644702 0.135459
H69   H     H_    0.329602 0.428117 0.505192 0.147849
H70   H     H_    0.255714 0.428138 0.470767 0.117520
H71   H     H_    0.387997 0.327637 0.466862 0.161094
H72   H     H_    0.314179 0.327121 0.431334 0.153881
H73   H     H_    0.341048 0.454171 0.412201 0.147355
H74   H     H_    0.146213 0.235179 0.461731 0.099987
H75   H     H_    0.416710 0.395889 0.403628 0.147934
H76   H     H_    0.415749 0.454282 0.447484 0.140369
H77   H     H_    0.571634 0.329492 0.504852 0.147898
H78   H     H_    0.571976 0.255586 0.470467 0.117333
H79   H     H_    0.672449 0.387729 0.466733 0.161050
H80   H     H_    0.673196 0.313930 0.431220 0.153997
H81   H     H_    0.546176 0.340946 0.411842 0.147203
H82   H     H_    0.604541 0.416474 0.403360 0.148090
H83   H     H_    0.545867 0.415637 0.447105 0.140456
H84   H     H_    0.670398 0.571883 0.505192 0.147849
H85   H     H_    0.765173 0.146042 0.461980 0.099745
H86   H     H_    0.744286 0.571862 0.470767 0.117520
H87   H     H_    0.612003 0.672363 0.466861 0.161095
H88   H     H_    0.685821 0.672879 0.431334 0.153882
H89   H     H_    0.658952 0.545829 0.412201 0.147355
H90   H     H_    0.583290 0.604111 0.403628 0.147935
H91   H     H_    0.584251 0.545718 0.447484 0.140369
H92   H     H_    0.428366 0.670508 0.504852 0.147898
H93   H     H_    0.428024 0.744414 0.470467 0.117333
H94   H     H_    0.327551 0.612271 0.466733 0.161050
H95   H     H_    0.326804 0.686070 0.431220 0.153997
H96   H     H_    0.853787 0.764821 0.461731 0.099987
H97   H     H_    0.453824 0.659054 0.411842 0.147203
H98   H     H_    0.395459 0.583526 0.403360 0.148090
H99   H     H_    0.454134 0.584363 0.447105 0.140456
H100  H     H_    0.783451 0.192973 0.085840 0.168385
H101  H     H_    0.753676 0.123105 0.053856 0.150279
H102  H     H_    0.674948 0.198882 0.125372 0.153675
H103  H     H_    0.627290 0.141188 0.091178 0.191518
H104  H     H_    0.709858 0.039742 0.108680 0.164372
H105  H     H_    0.665507 0.075312 0.153130 0.155342
H106  H     H_    0.758066 0.097839 0.143383 0.133496
H107  H     H_    0.234827 0.853958 0.461980 0.099745
H108  H     H_    0.076870 0.163749 0.976264 0.131356
H109  H     H_    0.055610 0.254209 0.981107 0.102493
H110  H     H_    0.105705 0.235473 0.059007 0.203203
H111  H     H_    0.017316 0.206348 0.045577 0.123157
H112  H     H_    0.061073 0.082179 0.034691 0.120849
H113  H     H_    0.085845 0.113645 0.084727 0.121610
H114  H     H_    0.152209 0.110210 0.044761 0.218411
H115  H     H_    0.216548 0.807027 0.085840 0.168385
H116  H     H_    0.246324 0.876896 0.053856 0.150279
H117  H     H_    0.325051 0.801118 0.125372 0.153675
H118  H     H_    0.675033 0.233362 0.945132 0.083326
H119  H     H_    0.372710 0.858812 0.091178 0.191518
H120  H     H_    0.290142 0.960258 0.108680 0.164372
H121  H     H_    0.334492 0.924688 0.153130 0.155342
H122  H     H_    0.241934 0.902161 0.143383 0.133496
H123  H     H_    0.923129 0.836251 0.976264 0.131356
H124  H     H_    0.944390 0.745791 0.981107 0.102492
H125  H     H_    0.894295 0.764527 0.059007 0.203203
H126  H     H_    0.982684 0.793652 0.045577 0.123157
H127  H     H_    0.938927 0.917821 0.034691 0.120849
H128  H     H_    0.914156 0.886355 0.084726 0.121610
O1    O     O_3   0.500000 0.000000 0.499990 -0.410754
O2    O     O_R   0.439860 0.000000 0.084000 -0.547139
O3    O     O_R   0.000000 0.560140 0.084000 -0.528820
O4    O     O_R   0.560140 0.000000 0.084000 -0.547140
O5    O     O_R   0.439920 1.000000 0.415980 -0.532807
O6    O     O_R   0.000000 0.560080 0.415980 -0.532720
O7    O     O_R   0.560080 1.000000 0.415980 -0.532807
O8    O     O_R   0.000000 0.439920 0.415980 -0.532720
O9    O     O_R   0.939920 0.500000 0.915980 -0.531583
O10   O     O_R   0.500000 0.060080 0.915980 -0.527437
O11   O     O_R   0.060080 0.500000 0.915980 -0.531583
O12   O     O_3   1.000000 0.500000 0.499990 -0.410825
O13   O     O_R   0.500000 0.939920 0.915980 -0.527437
O14   O     O_R   0.415460 0.144560 0.522020 -0.569555
O15   O     O_R   0.144560 0.584540 0.522020 -0.569610
O16   O     O_R   0.584540 0.855440 0.522020 -0.569555
O17   O     O_R   0.855440 0.415460 0.522020 -0.569610
O18   O     O_R   0.415460 0.855440 0.522020 -0.523830
O19   O     O_R   0.144560 0.415460 0.522020 -0.524177
O20   O     O_R   0.584540 0.144560 0.522020 -0.523830
O21   O     O_R   0.855440 0.584540 0.522020 -0.524177
O22   O     O_R   0.915460 0.644560 0.022020 -0.562988
O23   O     O_3   0.000000 0.500000 0.999990 -0.413303
O24   O     O_R   0.644560 0.084540 0.022020 -0.563442
O25   O     O_R   0.084540 0.355440 0.022020 -0.562988
O26   O     O_R   0.355440 0.915460 0.022020 -0.563442
O27   O     O_R   0.915460 0.355440 0.022020 -0.527208
O28   O     O_R   0.644560 0.915460 0.022020 -0.532421
O29   O     O_R   0.084540 0.644560 0.022020 -0.527208
O30   O     O_R   0.355440 0.084540 0.022020 -0.532421
O31   O     O_R   0.644640 0.915430 0.477970 -0.550048
O32   O     O_R   0.915430 0.355360 0.477970 -0.549830
O33   O     O_R   0.355360 0.084570 0.477970 -0.550048
O34   O     O_3   0.500000 0.000000 0.999990 -0.407011
O35   O     O_R   0.084570 0.644640 0.477970 -0.549830
O36   O     O_R   0.644640 0.084570 0.477970 -0.567720
O37   O     O_R   0.915430 0.644640 0.477970 -0.567612
O38   O     O_R   0.355360 0.915430 0.477970 -0.567720
O39   O     O_R   0.084570 0.355360 0.477970 -0.567612
O40   O     O_R   0.144640 0.415430 0.977970 -0.554756
O41   O     O_R   0.415430 0.855360 0.977970 -0.553771
O42   O     O_R   0.855360 0.584570 0.977970 -0.554756
O43   O     O_R   0.584570 0.144640 0.977970 -0.553771
O44   O     O_R   0.144640 0.584570 0.977970 -0.569706
O45   O     O_R   0.500000 0.939860 0.584000 -0.538254
O46   O     O_R   0.415430 0.144640 0.977970 -0.566629
O47   O     O_R   0.855360 0.415430 0.977970 -0.569706
O48   O     O_R   0.584570 0.855360 0.977970 -0.566629
O49   O     O_3   0.206616 0.726302 0.545020 -0.550742
O50   O     O_3   0.726719 0.793679 0.544956 -0.550972
O51   O     O_3   0.793384 0.273698 0.545020 -0.550742
O52   O     O_3   0.273281 0.206321 0.544956 -0.550972
O53   O     O_3   0.268102 0.337730 0.509653 -0.565236
O54   O     O_3   0.662125 0.268031 0.509563 -0.565123
O55   O     O_3   0.731898 0.662270 0.509653 -0.565236
O56   O     O_R   0.939860 0.500000 0.584000 -0.538199
O57   O     O_3   0.337875 0.731969 0.509563 -0.565123
O58   O     O_3   0.706539 0.225848 0.045513 -0.554444
O59   O     O_3   0.164675 0.225936 0.988245 -0.540058
O60   O     O_3   0.293460 0.774152 0.045513 -0.554444
O61   O     O_3   0.835325 0.774064 0.988245 -0.540058
O62   O     O_3   0.732720 0.801581 0.041632 -0.547198
O63   O     O_3   0.163106 0.767837 0.009672 -0.563190
O64   O     O_3   0.267279 0.198419 0.041632 -0.547198
O65   O     O_3   0.836894 0.232163 0.009672 -0.563190
O66   O     O_R   0.500000 0.060140 0.584000 -0.538254
O67   O     O_R   0.060140 0.500000 0.584000 -0.538199
O68   O     O_R   0.000000 0.439860 0.084000 -0.528819
Zn1   Zn    Zn3+2 0.414160 0.000000 0.468520 0.931179
Zn2   Zn    Zn3+2 0.085780 0.500000 0.531460 0.921201
Zn3   Zn    Zn3+2 0.500000 0.914220 0.531460 0.921230
Zn4   Zn    Zn3+2 0.914220 0.500000 0.531460 0.921201
Zn5   Zn    Zn3+2 1.000000 0.585780 0.031460 0.931231
Zn6   Zn    Zn3+2 0.585780 0.000000 0.031460 0.906664
Zn7   Zn    Zn3+2 0.000000 0.414220 0.031460 0.931231
Zn8   Zn    Zn3+2 0.414220 0.000000 0.031460 0.906664
Zn9   Zn    Zn3+2 0.000000 0.585840 0.468520 0.931465
Zn10  Zn    Zn3+2 0.585840 0.000000 0.468520 0.931179
Zn11  Zn    Zn3+2 0.000000 0.414160 0.468520 0.931465
Zn12  Zn    Zn3+2 0.914160 0.500000 0.968520 0.928275
Zn13  Zn    Zn3+2 0.500000 0.085840 0.968520 0.936261
Zn14  Zn    Zn3+2 0.085840 0.500000 0.968520 0.928275
Zn15  Zn    Zn3+2 0.500000 0.914160 0.968520 0.936261
Zn16  Zn    Zn3+2 0.500000 0.085780 0.531460 0.921230

loop_
_geom_bond_atom_site_label_1
_geom_bond_atom_site_label_2
_ccdc_geom_bond_type
C113  H49   S    
C126  C127  S    
C67   O44   A    
C44   O56   A    
C19   C20   S    
C76   C79   S    
C55   C93   S    
O28   Zn6   S    
C47   O5    A    
C40   C46   S    
C28   O64   S    
C6    H95   S    
O44   Zn14  S    
C5    C6    S    
O29   Zn5   S    
C3    H87   S    
O41   Zn15  S    
C17   H122  S    
C11   H108  S    
C111  H44   S    
C110  C111  S    
C101  O59   S    
C127  H81   S    
C102  O60   S    
C53   O15   A    
C89   C106  D    
C75   H41   S    
O8    Zn11  S    
C62   O40   A    
C60   C103  S    
C105  O63   S    
C65   C108  S    
O4    Zn6   S    
C36   C71   S    
C106  O64   S    
C62   C101  S    
C12   H110  S    
C93   O51   S    
C94   O52   S    
C21   C22   S    
O1    Zn10  S    
O23   Zn5   S    
C73   C81   S    
C58   O20   A    
C46   O4    A    
C25   H12   S    
C67   C105  S    
O6    Zn9   S    
C81   C99   D    
C17   H120  S    
C54   O31   A    
C77   C78   S    
O35   Zn9   S    
O1    Zn1   S    
O25   Zn7   S    
C42   C45   S    
C33   H33   S    
C21   H4    S    
C54   C92   S    
C57   O39   A    
C86   H24   S    
O46   Zn13  S    
C31   H27   S    
C126  H79   S    
C27   H17   S    
C4    H91   S    
C10   H104  S    
C34   C69   S    
O34   Zn6   S    
O7    Zn10  S    
C90   H37   S    
C56   O18   A    
C61   O24   A    
C39   C85   T    
C121  H66   S    
O2    Zn8   S    
C20   H127  S    
C25   O63   S    
C56   O38   A    
C10   H105  S    
C79   C97   D    
C84   C88   S    
C6    C7    S    
C114  H53   S    
C116  H57   S    
C124  H73   S    
O10   Zn13  S    
C22   H7    S    
C47   O7    A    
C7    H99   S    
C125  H77   S    
C109  H38   S    
C29   H21   S    
C64   O26   A    
C30   H26   S    
C22   C23   S    
C35   C63   T    
O22   Zn5   S    
C128  H86   S    
C6    H94   S    
C46   O2    A    
C112  H46   S    
O42   Zn12  S    
C84   C102  D    
C62   O25   A    
C31   H28   S    
C8    H100  S    
C123  C124  S    
C64   C102  S    
O1    Zn3   S    
C23   H8    S    
C1    C74   S    
C123  H71   S    
C51   O33   A    
C117  H58   S    
C115  C116  S    
C109  O49   S    
C77   C94   D    
C78   H74   S    
C53   O35   A    
C14   H114  S    
C19   H125  S    
C114  H50   S    
C53   C91   S    
O26   Zn8   S    
C81   H107  S    
C18   O61   S    
C9    C10   S    
C89   H36   S    
C33   H32   S    
C5    O57   S    
O38   Zn1   S    
C97   O54   S    
C24   C50   S    
C83   C89   S    
C15   H115  S    
C82   H118  S    
C124  H75   S    
C3    C128  S    
C7    H97   S    
C25   C26   S    
O66   Zn16  S    
C122  O53   S    
C9    H102  S    
O9    Zn12  S    
C29   C30   S    
O30   Zn8   S    
C8    H101  S    
C31   C32   S    
C18   H123  S    
C122  H70   S    
C91   O49   S    
C4    H90   S    
C61   C100  S    
O34   Zn15  S    
C26   H15   S    
C115  H54   S    
C120  C121  S    
C24   C72   T    
C32   H29   S    
C38   C74   T    
C68   O46   A    
C83   C101  D    
C108  O65   S    
C115  O51   S    
C117  H60   S    
C100  O58   S    
C120  H65   S    
C90   C108  D    
O36   Zn10  S    
C14   H112  S    
C88   C105  D    
O24   Zn6   S    
C92   O50   S    
O21   Zn4   S    
C116  H56   S    
C17   H121  S    
C111  H43   S    
C37   C41   T    
C87   H34   S    
O17   Zn4   S    
C51   O14   A    
C98   O55   S    
C59   C98   S    
O19   Zn2   S    
C56   C99   S    
C3    C4    S    
C1    C36   T    
C61   O43   A    
O23   Zn14  S    
C23   H10   S    
C119  H62   S    
C45   O68   A    
C16   H117  S    
C65   O47   A    
O68   Zn7   S    
C66   O48   A    
C26   C27   S    
C128  O55   S    
C28   C29   S    
C25   H11   S    
C69   C118  T    
C18   C19   S    
C21   H5    S    
C95   O53   S    
C47   C118  S    
C126  H80   S    
C16   C17   S    
O34   Zn13  S    
C42   C107  T    
O33   Zn1   S    
C58   O36   A    
C60   O22   A    
O16   Zn3   S    
O47   Zn12  S    
C40   C96   T    
C43   O66   A    
O27   Zn7   S    
C20   H128  S    
C57   O19   A    
C73   H1    S    
C10   H106  S    
C28   H20   S    
C77   H63   S    
O40   Zn14  S    
C99   O57   S    
C86   C87   S    
C13   C71   T    
C2    C48   S    
C3    H88   S    
C38   C44   S    
C66   C104  S    
C76   C93   D    
C80   H96   S    
C127  H82   S    
C50   O13   A    
C78   C95   D    
O12   Zn9   S    
C27   H16   S    
C113  H48   S    
C68   O30   A    
C110  H42   S    
C124  H76   S    
C59   O21   A    
C125  C126  S    
C20   H3    S    
C113  C114  S    
C16   H119  S    
O18   Zn3   S    
O15   Zn2   S    
O12   Zn2   S    
C80   C98   D    
C76   H52   S    
C115  H55   S    
C119  C120  S    
C49   O9    A    
C34   C52   T    
C82   C90   S    
O48   Zn15  S    
C49   O11   A    
C104  O62   S    
C32   C33   S    
C109  C110  S    
C128  H84   S    
C84   H13   S    
C27   H18   S    
C48   O6    A    
C87   C104  D    
C114  H51   S    
C37   C72   S    
C125  O54   S    
C2    C70   T    
C121  H67   S    
C33   H31   S    
C28   H19   S    
C5    H93   S    
C50   O10   A    
C103  O61   S    
O45   Zn3   S    
O14   Zn16  S    
O1    Zn16  S    
C43   O45   A    
C21   O62   S    
C22   H6    S    
C120  H64   S    
C5    H92   S    
C15   C16   S    
O12   Zn11  S    
C125  H78   S    
C116  C117  S    
C31   O65   S    
O5    Zn1   S    
C109  H39   S    
C29   H22   S    
C110  H40   S    
C12   H111  S    
C35   C70   S    
C18   H124  S    
C8    C9    S    
O23   Zn12  S    
C75   C80   S    
O12   Zn4   S    
C58   C97   S    
C68   C106  S    
C86   C103  D    
C112  C113  S    
C45   O3    A    
C32   H30   S    
C30   H25   S    
O11   Zn14  S    
C55   O17   A    
C119  O52   S    
C123  H72   S    
C73   C91   D    
C83   H2    S    
C117  H59   S    
C44   O67   A    
C39   C43   S    
O56   Zn4   S    
O37   Zn9   S    
C48   O8    A    
O39   Zn11  S    
C14   H113  S    
C15   O60   S    
C19   H126  S    
C54   O16   A    
C59   O37   A    
C60   O42   A    
C65   O27   A    
C66   O28   A    
C75   C92   D    
C13   C49   S    
C127  H83   S    
C12   C14   S    
O43   Zn13  S    
C63   C107  S    
C64   O41   A    
O31   Zn10  S    
C15   H116  S    
C121  H68   S    
C8    O58   S    
C111  H45   S    
C82   C100  D    
C23   H9    S    
C119  H61   S    
O23   Zn7   S    
C11   C12   S    
C7    H98   S    
C11   H109  S    
C88   H35   S    
C41   C85   S    
O13   Zn15  S    
C9    H103  S    
O67   Zn2   S    
O20   Zn16  S    
C67   O29   A    
O32   Zn11  S    
C30   H23   S    
C11   O59   S    
C55   O32   A    
C52   C96   S    
C122  H69   S    
O3    Zn5   S    
C51   C94   S    
C79   H85   S    
C112  H47   S    
C112  O50   S    
C4    H89   S    
C57   C95   S    
C122  C123  S    
C26   H14   S    
O34   Zn8   S    
