data_mof_unit_34937.cif
_audit_creation_date              2012-12-10T18:05:42-0500
_audit_creation_method            fapswitch 2.2
_symmetry_space_group_name_H-M    P1
_symmetry_Int_Tables_number       1
_space_group_crystal_system       triclinic
_cell_length_a                    10.983794
_cell_length_b                    10.929981
_cell_length_c                    9.726013
_cell_angle_alpha                 89.480119
_cell_angle_beta                  91.705323
_cell_angle_gamma                 93.900291
_cell_volume                      1164.38437223

loop_
_atom_site_label
_atom_site_type_symbol
_atom_type_description
_atom_site_fract_x
_atom_site_fract_y
_atom_site_fract_z
_atom_type_partial_charge
C1    C     C_R   0.502027 0.262781 0.500540 0.927488
C2    C     C_R   0.497972 0.737220 0.499460 0.927595
C3    C     C_R   0.871951 0.490640 0.505768 -0.161205
C4    C     C_R   0.128053 0.509383 0.494232 -0.161292
C5    C     C_R   0.943788 0.526413 0.622477 -0.038766
C6    C     C_R   0.056217 0.473601 0.377530 -0.038979
C7    C     C_R   0.497340 0.065043 0.375706 0.498789
C8    C     C_R   0.502650 0.934957 0.624295 0.498888
C9    C     C_R   0.490263 0.937094 0.373401 0.300539
C10   C     C_R   0.509726 0.062907 0.626601 0.300530
C11   C     C_R   0.496064 0.871483 0.498660 -0.315766
C12   C     C_R   0.503931 0.128517 0.501341 -0.315798
C13   C     C_R   0.443689 0.404904 0.074777 0.526765
C14   C     C_R   0.556302 0.595101 0.925223 0.526763
C15   C     C_R   0.445207 0.403841 0.926666 0.370544
C16   C     C_R   0.554785 0.596162 0.073334 0.370483
C17   C     C_R   0.262810 0.504992 0.497810 0.868453
C18   C     C_R   0.737191 0.495014 0.502190 0.868430
C19   C     C_R   0.192977 0.675549 0.097192 0.404406
C20   C     C_R   0.807090 0.324417 0.902817 0.404437
C21   C     C_R   0.129529 0.640173 0.214874 0.335931
C22   C     C_R   0.870532 0.359816 0.785136 0.336107
C23   C     C_R   0.099889 0.513345 0.241166 -0.269467
C24   C     C_R   0.900102 0.486654 0.758830 -0.270159
C25   C     C_R   0.119341 0.427078 0.140063 0.568272
C26   C     C_R   0.880548 0.572921 0.859895 0.567710
C27   C     C_R   0.164574 0.465389 0.013928 0.179852
C28   C     C_R   0.835366 0.534595 0.986047 0.179970
C29   C     C_R   0.213496 0.587147 0.998312 0.244738
C30   C     C_R   0.786520 0.412813 0.001687 0.245605
C31   C     C_R   0.929789 0.449774 0.390533 0.316411
C32   C     C_R   0.070225 0.550253 0.609472 0.316760
Cu1   Cu    Cu3+1 0.500000 0.500020 0.640660 1.096337
Cu2   Cu    Cu3+1 0.500000 0.499980 0.359340 1.096313
N1    N     N_R   0.500030 0.500030 0.852070 -0.261259
N2    N     N_R   0.499970 0.499970 0.147930 -0.261264
O1    O     O_R   0.499990 0.319660 0.618740 -0.562356
O2    O     O_R   0.500010 0.680340 0.381260 -0.562340
O3    O     O_R   0.499990 0.319630 0.381170 -0.453258
O4    O     O_R   0.500010 0.680370 0.618830 -0.453227
O5    O     O_R   0.319650 0.500020 0.618780 -0.554543
O6    O     O_R   0.680350 0.499980 0.381220 -0.554543
O7    O     O_R   0.319640 0.500000 0.381210 -0.590142
O8    O     O_R   0.680360 0.500000 0.618790 -0.590101
F1    F     F_    0.287816 0.617813 0.893264 -0.622870
F2    F     F_    0.712198 0.382122 0.106728 -0.622783
O9    O     O_3   0.388303 0.304075 0.861020 -0.647123
H1    H     H_    0.352029 0.333313 0.774203 0.379501
O10   O     O_3   0.611674 0.695936 0.138981 -0.647061
H2    H     H_    0.647960 0.666700 0.225793 0.379501
O11   O     O_3   0.232788 0.797422 0.081889 -0.588751
H3    H     H_    0.273776 0.809376 0.992942 0.395827
O12   O     O_3   0.767337 0.202528 0.918128 -0.588678
H4    H     H_    0.726347 0.190560 0.007073 0.395796
O13   O     O_3   0.103517 0.731467 0.304645 -0.610684
H5    H     H_    0.033847 0.701922 0.361026 0.334926
O14   O     O_3   0.896602 0.268532 0.695380 -0.610719
H6    H     H_    0.966244 0.298117 0.638979 0.334816
F3    F     F_    0.101178 0.304912 0.165130 -0.592196
F4    F     F_    0.898595 0.695093 0.834779 -0.592020
O15   O     O_3   0.163315 0.380265 0.910637 -0.650321
H7    H     H_    0.180247 0.424029 0.823365 0.375526
O16   O     O_3   0.836606 0.619724 0.089329 -0.650370
H8    H     H_    0.819715 0.575960 0.176610 0.375649
O17   O     O_3   0.861172 0.378643 0.297829 -0.632384
H9    H     H_    0.914336 0.324740 0.250430 0.400728
O18   O     O_3   0.138873 0.621438 0.702115 -0.632207
H10   H     H_    0.085639 0.674714 0.750292 0.400602
F5    F     F_    0.499740 0.126678 0.253959 -0.595599
F6    F     F_    0.500257 0.873322 0.746041 -0.595597
O19   O     O_3   0.475876 0.874676 0.250224 -0.602171
H11   H     H_    0.469526 0.932681 0.171994 0.404901
O20   O     O_3   0.524119 0.125326 0.749778 -0.602230
H12   H     H_    0.530332 0.067321 0.828023 0.404902
O21   O     O_3   0.379904 0.313839 0.147345 -0.593785
H13   H     H_    0.342033 0.250884 0.084157 0.412404
O22   O     O_3   0.620071 0.686176 0.852656 -0.593646
H14   H     H_    0.657922 0.749142 0.915844 0.412459

loop_
_geom_bond_atom_site_label_1
_geom_bond_atom_site_label_2
_ccdc_geom_bond_type
O13   H5    S    
C27   C29   A    
O20   H12   S    
Cu2   O6    S    
C15   O9    S    
C22   O14   S    
C20   C30   A    
O12   H4    S    
C19   C21   A    
C24   C26   A    
C18   O6    A    
C10   O20   S    
C3    C18   S    
C31   O17   S    
C14   O22   S    
C27   O15   S    
Cu2   O3    S    
C13   O21   S    
C14   C16   A    
C1    O1    A    
C5    C32   A    
C6    C31   A    
C1    C12   S    
C2    C11   S    
C15   N1    A    
C21   C23   A    
C7    C12   A    
Cu1   O4    S    
O11   H3    S    
C16   O10   S    
C13   N2    A    
C4    C6    A    
C14   N1    A    
C21   O13   S    
O22   H14   S    
Cu1   O1    S    
O18   H10   S    
C29   F1    S    
O21   H13   S    
C17   O7    A    
C18   O8    A    
C2    O2    A    
O9    H1    S    
Cu1   Cu2   S    
C3    C31   A    
C9    C11   A    
C4    C32   A    
C10   C12   A    
C32   O18   S    
C4    C17   S    
C20   C22   A    
O17   H9    S    
C13   C15   A    
C22   C24   A    
C19   C29   A    
C7    C9    A    
Cu2   O2    S    
Cu1   O8    S    
C8    F6    S    
C30   F2    S    
Cu2   O7    S    
C9    O19   S    
C20   O12   S    
C3    C5    A    
C7    F5    S    
C25   C27   A    
C26   C28   A    
Cu1   O5    S    
C28   C30   A    
O19   H11   S    
C16   N2    A    
O14   H6    S    
C5    C24   S    
C8    C11   A    
C6    C23   S    
Cu1   N1    S    
C19   O11   S    
Cu2   N2    S    
C23   C25   A    
O15   H7    S    
C17   O5    A    
C1    O3    A    
O16   H8    S    
C28   O16   S    
C2    O4    A    
C8    C10   A    
O10   H2    S    
C25   F3    S    
C26   F4    S    
