data_mof_unit_48654.cif
_audit_creation_date              2012-12-10T17:47:16-0500
_audit_creation_method            fapswitch 2.2
_symmetry_space_group_name_H-M    P1
_symmetry_Int_Tables_number       1
_space_group_crystal_system       triclinic
_cell_length_a                    11.703375
_cell_length_b                    14.840127
_cell_length_c                    14.908665
_cell_angle_alpha                 64.285265
_cell_angle_beta                  104.96052
_cell_angle_gamma                 102.811072
_cell_volume                      2235.8415738

loop_
_atom_site_label
_atom_site_type_symbol
_atom_type_description
_atom_site_fract_x
_atom_site_fract_y
_atom_site_fract_z
_atom_type_partial_charge
C1    C     C_R   0.479515 0.119902 0.312430 0.837620
C2    C     C_R   0.519650 0.880214 0.687562 0.813481
C3    C     C_R   0.417087 0.326574 0.001452 -0.035280
C4    C     C_R   0.581465 0.677623 0.999958 0.017517
C5    C     C_R   0.518310 0.466973 0.051614 -0.041709
C6    C     C_R   0.471837 0.536573 0.954345 -0.146408
C7    C     C_R   0.383981 0.499158 0.888129 0.281162
C8    C     C_R   0.605069 0.503602 0.118910 0.293646
C9    C     C_R   0.369529 0.396412 0.905642 0.404667
C10   C     C_R   0.631145 0.608461 0.095265 0.328468
C11   C     C_R   0.656044 0.268001 0.690154 -0.217726
C12   C     C_R   0.335086 0.734791 0.307743 -0.232908
C13   C     C_R   0.652118 0.198422 0.650307 0.507803
C14   C     C_R   0.349238 0.806314 0.347684 0.527831
C15   C     C_R   0.510040 0.283568 0.506635 0.598319
C16   C     C_R   0.475086 0.706839 0.495943 0.561013
C17   C     C_R   0.528815 0.366317 0.536700 -0.112803
C18   C     C_R   0.444152 0.624728 0.464617 -0.010244
C19   C     C_R   0.592028 0.349744 0.635653 -0.040557
C20   C     C_R   0.385250 0.645684 0.364229 -0.064210
C21   C     C_R   0.483084 0.461412 0.476573 -0.044769
C22   C     C_R   0.482350 0.526953 0.524647 0.010784
C23   C     C_R   0.284269 0.000009 0.499717 0.819623
C24   C     C_R   0.715730 0.000010 0.500260 0.804135
C25   C     C_R   0.517958 0.491746 0.631277 0.490174
C26   C     C_R   0.444818 0.496160 0.369966 0.418165
C27   C     C_R   0.583311 0.409959 0.683052 -0.231676
C28   C     C_R   0.385795 0.582140 0.317745 -0.225405
C29   C     C_1   0.162368 0.999781 0.499701 -0.150606
C30   C     C_1   0.837635 0.000249 0.500275 -0.140301
C31   C     C_1   0.059888 0.999894 0.499858 0.023581
C32   C     C_1   0.940119 0.000146 0.500119 0.025289
C33   C     C_R   0.464513 0.188844 0.204539 -0.133480
C34   C     C_R   0.533449 0.812396 0.795732 -0.106515
C35   C     C_R   0.396626 0.221106 0.025948 0.484710
C36   C     C_R   0.607939 0.783329 0.973010 0.481071
C37   C     C_R   0.423265 0.153280 0.127703 -0.301461
C38   C     C_R   0.581650 0.849661 0.870837 -0.308242
C39   C     C_R   0.489529 0.292515 0.178794 -0.098701
C40   C     C_R   0.500311 0.708885 0.823831 -0.191033
C41   C     C_R   0.478117 0.362181 0.077680 -0.030146
C42   C     C_R   0.514064 0.641053 0.926037 -0.053388
Cu1   Cu    Cu3+1 0.469550 0.918260 0.475690 0.972931
Cu2   Cu    Cu3+1 0.530450 0.081740 0.524310 1.004358
H1    H     H_    0.620389 0.388862 0.763021 0.142836
H2    H     H_    0.349200 0.604407 0.237583 0.142147
N1    N     N_R   0.576230 0.204580 0.560790 -0.259043
N2    N     N_R   0.423770 0.795420 0.439210 -0.291728
O1    O     O_R   0.459870 0.022090 0.338120 -0.564761
O2    O     O_R   0.540130 0.977910 0.661880 -0.579775
O3    O     O_R   0.511290 0.160150 0.379180 -0.530697
O4    O     O_R   0.488710 0.839850 0.620820 -0.587592
O5    O     O_R   0.311490 0.930960 0.479480 -0.602676
O6    O     O_R   0.688510 0.069040 0.520520 -0.599408
O7    O     O_R   0.362910 0.069020 0.520540 -0.532491
O8    O     O_R   0.637090 0.930980 0.479460 -0.598008
O9    O     O_3   0.297626 0.361778 0.834576 -0.638003
H3    H     H_    0.280829 0.419242 0.768546 0.382712
O10   O     O_3   0.714424 0.644897 0.160087 -0.651270
H4    H     H_    0.781039 0.603410 0.190297 0.337607
O11   O     O_3   0.481585 0.533297 0.684565 -0.688598
H5    H     H_    0.520860 0.504331 0.756638 0.318582
O12   O     O_3   0.473146 0.450398 0.316636 -0.724448
H6    H     H_    0.438855 0.483573 0.243707 0.317191
H7    H     H_    0.468234 0.680992 0.764708 0.247200
H8    H     H_    0.510985 0.318695 0.238937 0.244902
H9    H     H_    0.604269 0.930172 0.849752 0.192375
H10   H     H_    0.406274 0.072851 0.147049 0.196813
O13   O     O_3   0.350039 0.185563 0.950503 -0.655791
H11   H     H_    0.341812 0.110832 0.980843 0.323954
O14   O     O_3   0.659966 0.820519 0.046645 -0.652083
H12   H     H_    0.671862 0.895256 0.014757 0.324557
O15   O     O_3   0.304006 0.558486 0.810803 -0.719027
H13   H     H_    0.289215 0.609383 0.831488 0.338644
O16   O     O_3   0.670780 0.437186 0.203323 -0.731383
H14   H     H_    0.683754 0.458860 0.259763 0.356459
O17   O     O_3   0.569655 0.699982 0.574958 -0.704833
H15   H     H_    0.602449 0.766781 0.573570 0.369430
O18   O     O_3   0.413885 0.271882 0.434780 -0.658651
H16   H     H_    0.349293 0.305844 0.433829 0.313765
O19   O     O_3   0.293996 0.890863 0.286994 -0.727667
H17   H     H_    0.268910 0.913312 0.331054 0.362095
O20   O     O_3   0.717103 0.119285 0.709967 -0.732791
H18   H     H_    0.726991 0.087256 0.667747 0.366716
H19   H     H_    0.707990 0.256775 0.765048 0.182945
H20   H     H_    0.285342 0.749911 0.231475 0.181011

loop_
_geom_bond_atom_site_label_1
_geom_bond_atom_site_label_2
_ccdc_geom_bond_type
C21   C26   A    
C4    C36   A    
O15   H13   S    
C15   N1    A    
O16   H14   S    
C16   N2    A    
O19   H17   S    
C1    C33   S    
C7    O15   S    
O17   H15   S    
C11   C19   A    
C33   C39   A    
C34   C40   A    
C23   C29   S    
C35   C37   A    
C5    C6    A    
Cu1   O4    S    
C24   O6    A    
C37   H10   S    
C7    C9    A    
C16   O17   S    
C2    O2    A    
Cu1   O5    S    
C15   O18   S    
O20   H18   S    
C22   C25   A    
C19   C27   A    
Cu1   N2    S    
C9    O9    S    
Cu2   N1    S    
C27   H1    S    
C40   C42   A    
O10   H4    S    
C34   C38   A    
C21   C22   A    
O11   H5    S    
C23   O5    A    
C39   C41   A    
C13   N1    A    
Cu1   O1    S    
C14   N2    A    
C20   C28   A    
C8    O16   S    
C33   C37   A    
O18   H16   S    
C26   O12   S    
C3    C9    A    
C31   C32   S    
C3    C35   A    
C28   H2    S    
C12   C20   A    
C25   O11   S    
C1    O3    A    
C2    O4    A    
Cu2   O3    S    
C16   C18   A    
C12   C14   A    
C40   H7    S    
Cu1   Cu2   S    
C39   H8    S    
C24   O8    A    
C4    C10   A    
Cu2   O2    S    
C15   C17   A    
C5    C41   A    
C3    C41   A    
C18   C22   A    
C5    C8    A    
C36   O14   S    
C23   O7    A    
C6    C7    A    
C25   C27   A    
C13   O20   S    
C26   C28   A    
C12   H20   S    
C36   C38   A    
C10   O10   S    
O14   H12   S    
C29   C31   T    
C30   C32   T    
C11   C13   A    
Cu2   O7    S    
C2    C34   S    
O9    H3    S    
C4    C42   A    
C11   H19   S    
C17   C19   A    
C18   C20   A    
O13   H11   S    
C24   C30   S    
O12   H6    S    
Cu2   O6    S    
Cu1   O8    S    
C38   H9    S    
C35   O13   S    
C8    C10   A    
C6    C42   A    
C14   O19   S    
C1    O1    A    
C17   C21   A    
