data_mof_unit_20396.cif
_audit_creation_date              2012-12-11T14:28:19-0500
_audit_creation_method            fapswitch 2.2
_symmetry_space_group_name_H-M    P1
_symmetry_Int_Tables_number       1
_space_group_crystal_system       monoclinic
_cell_length_a                    10.989747
_cell_length_b                    19.584188
_cell_length_c                    18.669302
_cell_angle_alpha                 90.0
_cell_angle_beta                  90.0
_cell_angle_gamma                 90.134938
_cell_volume                      4018.094445

loop_
_atom_site_label
_atom_site_type_symbol
_atom_type_description
_atom_site_fract_x
_atom_site_fract_y
_atom_site_fract_z
_atom_type_partial_charge
C1    C     C_R   0.315912 0.939176 0.637194 0.511319
C2    C     C_3   0.213802 0.753391 0.051596 -0.030924
C3    C     C_3   0.116893 0.185287 0.959128 -0.120392
C4    C     C_3   0.545239 0.306677 0.473848 -0.114332
C5    C     C_3   0.545239 0.306677 0.026152 -0.114332
C6    C     C_3   0.616893 0.685287 0.540872 -0.120392
C7    C     C_3   0.616893 0.685287 0.959128 -0.120392
C8    C     C_3   0.181192 0.815980 0.494415 -0.171897
C9    C     C_3   0.181192 0.815979 0.005585 -0.171896
C10   C     C_3   0.225559 0.219762 0.501807 -0.177888
C11   C     C_3   0.225559 0.219762 0.998193 -0.177888
C12   C     C_3   0.681192 0.315979 0.494415 -0.171896
C13   C     C_3   0.193881 0.289118 0.536343 -0.018083
C14   C     C_3   0.681192 0.315979 0.005585 -0.171896
C15   C     C_3   0.725559 0.719762 0.501807 -0.177888
C16   C     C_3   0.725559 0.719762 0.998193 -0.177888
C17   C     C_3   0.161162 0.767513 0.559187 0.005933
C18   C     C_3   0.161162 0.767513 0.940813 0.005933
C19   C     C_3   0.139324 0.237831 0.439458 0.019702
C20   C     C_3   0.139324 0.237831 0.060542 0.019702
C21   C     C_3   0.661162 0.267513 0.559187 0.005934
C22   C     C_3   0.661162 0.267513 0.940813 0.005933
C23   C     C_3   0.639324 0.737831 0.439458 0.019702
C24   C     C_3   0.193880 0.289118 0.963657 -0.018083
C25   C     C_3   0.639324 0.737831 0.060542 0.019702
C26   C     C_3   0.027508 0.758546 0.538850 -0.114561
C27   C     C_3   0.027508 0.758546 0.961150 -0.114561
C28   C     C_3   0.031739 0.203670 0.477515 -0.105430
C29   C     C_3   0.031739 0.203670 0.022485 -0.105430
C30   C     C_3   0.527508 0.258546 0.538850 -0.114561
C31   C     C_3   0.527508 0.258546 0.961150 -0.114561
C32   C     C_3   0.531739 0.703669 0.477515 -0.105430
C33   C     C_3   0.531739 0.703670 0.022485 -0.105430
C34   C     C_3   0.061530 0.696336 0.493580 -0.154826
C35   C     C_3   0.713802 0.253391 0.448404 -0.030924
C36   C     C_3   0.061530 0.696336 0.006420 -0.154826
C37   C     C_3   0.001681 0.272647 0.512764 -0.125873
C38   C     C_3   0.001681 0.272646 0.987236 -0.125873
C39   C     C_3   0.561530 0.196336 0.493580 -0.154826
C40   C     C_3   0.561530 0.196336 0.006420 -0.154826
C41   C     C_3   0.501681 0.772646 0.512764 -0.125873
C42   C     C_3   0.501681 0.772646 0.987236 -0.125873
C43   C     C_3   0.195850 0.705843 0.513146 -0.001298
C44   C     C_3   0.195850 0.705843 0.986854 -0.001298
C45   C     C_3   0.108562 0.306629 0.474316 -0.014472
C46   C     C_3   0.713802 0.253391 0.051596 -0.030924
C47   C     C_3   0.108561 0.306629 0.025684 -0.014473
C48   C     C_3   0.695850 0.205843 0.513146 -0.001298
C49   C     C_3   0.695850 0.205843 0.986854 -0.001298
C50   C     C_3   0.608561 0.806629 0.474316 -0.014472
C51   C     C_3   0.608561 0.806629 0.025684 -0.014472
C52   C     C_1   0.279816 0.653946 0.540598 0.209318
C53   C     C_1   0.279815 0.653946 0.959402 0.209318
C54   C     C_1   0.091760 0.366408 0.428381 0.242753
C55   C     C_1   0.091758 0.366408 0.071619 0.242753
C56   C     C_1   0.779815 0.153946 0.540598 0.209318
C57   C     C_3   0.693880 0.789118 0.536343 -0.018083
C58   C     C_1   0.779815 0.153946 0.959402 0.209318
C59   C     C_1   0.591758 0.866407 0.428381 0.242753
C60   C     C_1   0.591758 0.866407 0.071619 0.242753
C61   C     C_1   0.304374 0.754150 0.390544 0.190946
C62   C     C_1   0.304374 0.754150 0.109456 0.190946
C63   C     C_1   0.275488 0.333105 0.578027 0.165201
C64   C     C_1   0.275488 0.333105 0.921973 0.165201
C65   C     C_1   0.804374 0.254150 0.390544 0.190946
C66   C     C_1   0.804374 0.254150 0.109456 0.190946
C67   C     C_1   0.775488 0.833105 0.578027 0.165201
C68   C     C_3   0.693880 0.789118 0.963657 -0.018083
C69   C     C_1   0.775488 0.833105 0.921973 0.165201
C70   C     C_3   0.080053 0.744672 0.429197 0.032387
C71   C     C_3   0.080053 0.744672 0.070803 0.032387
C72   C     C_3   0.087201 0.254037 0.574645 0.043912
C73   C     C_R   0.315912 0.939176 0.862806 0.511319
C74   C     C_3   0.087201 0.254037 0.925355 0.043912
C75   C     C_3   0.580053 0.244672 0.429197 0.032387
C76   C     C_3   0.580053 0.244672 0.070803 0.032387
C77   C     C_3   0.587201 0.754037 0.574645 0.043912
C78   C     C_3   0.587201 0.754037 0.925355 0.043912
C79   C     C_R   0.322778 0.043484 0.438370 -0.041034
C80   C     C_R   0.322778 0.043484 0.061629 -0.041034
C81   C     C_R   0.320908 0.965527 0.564065 -0.043518
C82   C     C_R   0.320907 0.965527 0.935935 -0.043518
C83   C     C_R   0.822778 0.543484 0.438370 -0.041034
C84   C     C_R   0.316352 0.063694 0.362459 0.525428
C85   C     C_R   0.822778 0.543484 0.061629 -0.041034
C86   C     C_R   0.820907 0.465527 0.564065 -0.043518
C87   C     C_R   0.820908 0.465527 0.935935 -0.043518
C88   C     C_R   0.548506 0.045756 0.443794 -0.081826
C89   C     C_R   0.548506 0.045756 0.056206 -0.081826
C90   C     C_R   0.547401 0.961098 0.559220 -0.087242
C91   C     C_R   0.547401 0.961098 0.940780 -0.087242
C92   C     C_R   0.048506 0.545756 0.443794 -0.081826
C93   C     C_R   0.048506 0.545756 0.056206 -0.081826
C94   C     C_R   0.047401 0.461098 0.559220 -0.087242
C95   C     C_R   0.316352 0.063694 0.137541 0.525428
C96   C     C_R   0.047401 0.461098 0.940780 -0.087242
C97   C     C_R   0.656027 0.029594 0.476773 -0.107076
C98   C     C_R   0.656027 0.029594 0.023227 -0.107075
C99   C     C_R   0.655936 0.988330 0.535878 -0.105535
C100  C     C_R   0.655936 0.988330 0.964122 -0.105535
C101  C     C_R   0.156027 0.529594 0.476773 -0.107075
C102  C     C_R   0.156027 0.529594 0.023227 -0.107076
C103  C     C_R   0.155936 0.488330 0.535878 -0.105535
C104  C     C_R   0.155936 0.488330 0.964122 -0.105535
C105  C     C_R   0.433718 0.983299 0.532095 0.008050
C106  C     C_R   0.815912 0.439176 0.637194 0.511319
C107  C     C_R   0.433718 0.983299 0.967905 0.008050
C108  C     C_R   0.434472 0.024427 0.470554 0.012321
C109  C     C_R   0.434472 0.024427 0.029446 0.012320
C110  C     C_R   0.933718 0.483299 0.532095 0.008050
C111  C     C_R   0.933718 0.483299 0.967905 0.008050
C112  C     C_R   0.934472 0.524427 0.470554 0.012320
C113  C     C_R   0.934472 0.524427 0.029446 0.012320
C114  C     C_R   0.209504 0.983087 0.530016 0.007282
C115  C     C_R   0.209504 0.983087 0.969984 0.007282
C116  C     C_R   0.211838 0.029306 0.473635 0.008207
C117  C     C_R   0.815912 0.439176 0.862806 0.511319
C118  C     C_R   0.211838 0.029306 0.026364 0.008207
C119  C     C_R   0.709504 0.483087 0.530016 0.007282
C120  C     C_R   0.709504 0.483087 0.969984 0.007282
C121  C     C_R   0.711838 0.529306 0.473635 0.008207
C122  C     C_R   0.711838 0.529306 0.026364 0.008207
C123  C     C_R   0.095089 0.952722 0.547607 -0.069759
C124  C     C_R   0.095089 0.952722 0.952392 -0.069759
C125  C     C_R   0.100023 0.054499 0.448275 -0.083197
C126  C     C_R   0.100023 0.054499 0.051725 -0.083197
C127  C     C_R   0.595089 0.452722 0.547607 -0.069759
C128  C     C_R   0.816352 0.563694 0.362459 0.525428
C129  C     C_R   0.595089 0.452722 0.952392 -0.069759
C130  C     C_R   0.600023 0.554499 0.448275 -0.083197
C131  C     C_R   0.600023 0.554499 0.051725 -0.083197
C132  C     C_R   0.990037 0.969407 0.510325 -0.104597
C133  C     C_R   0.990037 0.969407 0.989675 -0.104597
C134  C     C_R   0.992900 0.020946 0.460804 -0.099114
C135  C     C_R   0.992900 0.020946 0.039196 -0.099114
C136  C     C_R   0.490037 0.469407 0.510325 -0.104597
C137  C     C_R   0.490037 0.469407 0.989675 -0.104597
C138  C     C_R   0.492899 0.520946 0.460804 -0.099114
C139  C     C_R   0.816352 0.563694 0.137541 0.525428
C140  C     C_R   0.492899 0.520946 0.039196 -0.099114
C141  C     C_R   0.187299 0.772063 0.636992 0.526999
C142  C     C_R   0.187299 0.772063 0.863007 0.526999
C143  C     C_R   0.177294 0.230499 0.364079 0.540582
C144  C     C_R   0.177294 0.230499 0.135921 0.540582
C145  C     C_R   0.687299 0.272063 0.636992 0.526999
C146  C     C_R   0.687299 0.272063 0.863007 0.526999
C147  C     C_R   0.677294 0.730499 0.364079 0.540582
C148  C     C_R   0.677294 0.730499 0.135921 0.540582
C149  C     C_R   0.545087 0.769537 0.646486 0.538831
C150  C     C_3   0.213803 0.753391 0.448404 -0.030924
C151  C     C_R   0.545087 0.769537 0.853514 0.538831
C152  C     C_R   0.536225 0.227368 0.357590 0.541203
C153  C     C_R   0.536225 0.227368 0.142410 0.541204
C154  C     C_R   0.045087 0.269537 0.646486 0.538830
C155  C     C_R   0.045087 0.269537 0.853514 0.538831
C156  C     C_R   0.036225 0.727368 0.357590 0.541203
C157  C     C_R   0.036225 0.727368 0.142410 0.541204
C158  C     C_3   0.045239 0.806677 0.473848 -0.114332
C159  C     C_3   0.045239 0.806677 0.026152 -0.114332
C160  C     C_3   0.116893 0.185287 0.540872 -0.120392
Cr1   Cr    Cr6+3 0.488160 0.884660 0.750000 1.025148
Cr2   Cr    Cr6+3 0.333410 0.272740 0.250000 1.049891
Cr3   Cr    Cr6+3 0.833410 0.227260 0.750000 1.066323
Cr4   Cr    Cr6+3 0.833410 0.772740 0.250000 1.049891
Cr5   Cr    Cr6+3 0.488160 0.115340 0.250000 1.021928
Cr6   Cr    Cr6+3 0.988160 0.384660 0.750000 1.025148
Cr7   Cr    Cr6+3 0.988160 0.615340 0.250000 1.021928
Cr8   Cr    Cr6+3 0.173480 0.883120 0.750000 1.048610
Cr9   Cr    Cr6+3 0.173480 0.116880 0.250000 1.021001
Cr10  Cr    Cr6+3 0.673480 0.383120 0.750000 1.048610
Cr11  Cr    Cr6+3 0.673480 0.616880 0.250000 1.021001
Cr12  Cr    Cr6+3 0.333410 0.727260 0.750000 1.066323
H1    H     H_    0.240680 0.860876 0.489533 0.115067
H2    H     H_    0.908111 0.940575 0.983037 0.126788
H3    H     H_    0.915737 0.033182 0.428303 0.107662
H4    H     H_    0.915737 0.033182 0.071697 0.107662
H5    H     H_    0.408111 0.440575 0.516964 0.126788
H6    H     H_    0.408111 0.440575 0.983037 0.126788
H7    H     H_    0.415737 0.533182 0.428303 0.107662
H8    H     H_    0.415737 0.533182 0.071697 0.107662
H9    H     H_    0.979471 0.845034 0.454234 0.138563
H10   H     H_    0.979471 0.845034 0.045766 0.138563
H11   H     H_    0.119677 0.136675 0.571357 0.161406
H12   H     H_    0.240680 0.860876 0.010467 0.115067
H13   H     H_    0.119677 0.136675 0.928643 0.161406
H14   H     H_    0.479471 0.345034 0.454234 0.138563
H15   H     H_    0.479471 0.345034 0.045766 0.138563
H16   H     H_    0.619678 0.636675 0.571357 0.161406
H17   H     H_    0.619677 0.636675 0.928643 0.161406
H18   H     H_    0.955509 0.754998 0.579827 0.163499
H19   H     H_    0.955509 0.754998 0.920173 0.163499
H20   H     H_    0.963576 0.170739 0.451004 0.133022
H21   H     H_    0.963576 0.170739 0.048996 0.133022
H22   H     H_    0.455510 0.254998 0.579827 0.163499
H23   H     H_    0.314942 0.196010 0.493238 0.089323
H24   H     H_    0.455509 0.254998 0.920173 0.163499
H25   H     H_    0.463576 0.670739 0.451004 0.133022
H26   H     H_    0.463576 0.670739 0.048996 0.133022
H27   H     H_    0.001640 0.652313 0.501600 0.109148
H28   H     H_    0.001640 0.652313 0.998400 0.109148
H29   H     H_    0.913119 0.296999 0.522757 0.085482
H30   H     H_    0.913118 0.296999 0.977243 0.085482
H31   H     H_    0.501640 0.152313 0.501600 0.109148
H32   H     H_    0.501640 0.152313 0.998400 0.109148
H33   H     H_    0.413118 0.796999 0.522757 0.085482
H34   H     H_    0.314942 0.196010 0.006763 0.089323
H35   H     H_    0.413118 0.796999 0.977243 0.085482
H36   H     H_    0.738022 0.050555 0.455728 0.116868
H37   H     H_    0.738022 0.050555 0.044271 0.116868
H38   H     H_    0.739234 0.976213 0.563017 0.154778
H39   H     H_    0.739234 0.976213 0.936983 0.154778
H40   H     H_    0.238022 0.550555 0.455729 0.116868
H41   H     H_    0.238022 0.550555 0.044271 0.116868
H42   H     H_    0.239234 0.476213 0.563017 0.154777
H43   H     H_    0.239234 0.476213 0.936983 0.154778
H44   H     H_    0.559304 0.080912 0.402006 0.182286
H45   H     H_    0.740680 0.360876 0.489533 0.115067
H46   H     H_    0.559304 0.080912 0.097994 0.182286
H47   H     H_    0.556986 0.920388 0.595773 0.183208
H48   H     H_    0.556986 0.920388 0.904227 0.183208
H49   H     H_    0.059304 0.580912 0.402006 0.182286
H50   H     H_    0.059304 0.580912 0.097994 0.182286
H51   H     H_    0.056986 0.420388 0.595773 0.183208
H52   H     H_    0.056986 0.420388 0.904227 0.183208
H53   H     H_    0.095505 0.095858 0.411626 0.156333
H54   H     H_    0.095505 0.095858 0.088374 0.156333
H55   H     H_    0.086708 0.910598 0.584179 0.178226
H56   H     H_    0.740680 0.360876 0.010467 0.115066
H57   H     H_    0.086708 0.910598 0.915821 0.178226
H58   H     H_    0.595505 0.595858 0.411626 0.156333
H59   H     H_    0.595505 0.595858 0.088374 0.156333
H60   H     H_    0.586708 0.410598 0.584179 0.178226
H61   H     H_    0.586708 0.410598 0.915821 0.178226
H62   H     H_    0.814942 0.696010 0.493237 0.089323
H63   H     H_    0.814942 0.696010 0.006763 0.089323
H64   H     H_    0.908111 0.940575 0.516963 0.126788
N1    N     N_1   0.345630 0.613880 0.564418 -0.302183
N2    N     N_1   0.374032 0.755257 0.155911 -0.217890
N3    N     N_1   0.338029 0.366173 0.613929 -0.314277
N4    N     N_1   0.338029 0.366173 0.886071 -0.314277
N5    N     N_1   0.874032 0.255257 0.344089 -0.217889
N6    N     N_1   0.874032 0.255257 0.155911 -0.217890
N7    N     N_1   0.838029 0.866173 0.613928 -0.314277
N8    N     N_1   0.838029 0.866173 0.886071 -0.314277
N9    N     N_1   0.345630 0.613880 0.935582 -0.302183
N10   N     N_1   0.077847 0.410691 0.388345 -0.237271
N11   N     N_1   0.077843 0.410691 0.111655 -0.237270
N12   N     N_1   0.845630 0.113880 0.564418 -0.302183
N13   N     N_1   0.845630 0.113880 0.935582 -0.302183
N14   N     N_1   0.577842 0.910691 0.388345 -0.237270
N15   N     N_1   0.577843 0.910691 0.111655 -0.237270
N16   N     N_1   0.374032 0.755257 0.344089 -0.217890
O1    O     O_R   0.575450 0.828820 0.667950 -0.535848
O2    O     O_R   0.416860 0.942890 0.825320 -0.494281
O3    O     O_R   0.416860 0.057110 0.325320 -0.481974
O4    O     O_R   0.416860 0.057110 0.174680 -0.481974
O5    O     O_R   0.916860 0.442890 0.674680 -0.494281
O6    O     O_R   0.916860 0.442890 0.825320 -0.494281
O7    O     O_R   0.916860 0.557110 0.325320 -0.481974
O8    O     O_R   0.916860 0.557110 0.174680 -0.481974
O9    O     O_R   0.213790 0.953680 0.668330 -0.502066
O10   O     O_R   0.213790 0.953680 0.831670 -0.502066
O11   O     O_R   0.213790 0.046320 0.331670 -0.501888
O12   O     O_R   0.575450 0.828820 0.832050 -0.535848
O13   O     O_R   0.213790 0.046320 0.168330 -0.501888
O14   O     O_R   0.713790 0.453680 0.668330 -0.502066
O15   O     O_R   0.713790 0.453680 0.831670 -0.502066
O16   O     O_R   0.713790 0.546320 0.331670 -0.501888
O17   O     O_R   0.713790 0.546320 0.168330 -0.501888
O18   O     O_R   0.121360 0.817890 0.672660 -0.504693
O19   O     O_R   0.121360 0.817890 0.827340 -0.504693
O20   O     O_R   0.121360 0.182110 0.327340 -0.512043
O21   O     O_R   0.121360 0.182110 0.172660 -0.512043
O22   O     O_R   0.621360 0.317890 0.672660 -0.504693
O23   O     O_R   0.575450 0.171180 0.332050 -0.545234
O24   O     O_R   0.621360 0.317890 0.827340 -0.504693
O25   O     O_R   0.621360 0.682110 0.327340 -0.512043
O26   O     O_R   0.621360 0.682110 0.172660 -0.512043
O27   O     O_R   0.206850 0.711370 0.665820 -0.475020
O28   O     O_R   0.206850 0.711370 0.834180 -0.475020
O29   O     O_R   0.206850 0.288630 0.334180 -0.476192
O30   O     O_R   0.206850 0.288630 0.165820 -0.476193
O31   O     O_R   0.706850 0.211370 0.665820 -0.475020
O32   O     O_R   0.706850 0.211370 0.834180 -0.475020
O33   O     O_R   0.706850 0.788630 0.334180 -0.476193
O34   O     O_R   0.575450 0.171180 0.167950 -0.545234
O35   O     O_R   0.706850 0.788630 0.165820 -0.476193
O36   O     O_R   0.457710 0.733190 0.672630 -0.504832
O37   O     O_R   0.457710 0.733190 0.827370 -0.504832
O38   O     O_R   0.457710 0.266810 0.327370 -0.512889
O39   O     O_R   0.457710 0.266810 0.172630 -0.512889
O40   O     O_R   0.957710 0.233190 0.672630 -0.504832
O41   O     O_R   0.957710 0.233190 0.827370 -0.504832
O42   O     O_R   0.957710 0.766810 0.327370 -0.512889
O43   O     O_R   0.957710 0.766810 0.172630 -0.512889
O44   O     O_3   0.331690 0.831680 0.750000 -0.358804
O45   O     O_R   0.075450 0.328820 0.667950 -0.535848
O46   O     O_3   0.331690 0.168320 0.250000 -0.355255
O47   O     O_3   0.831690 0.331680 0.750000 -0.358804
O48   O     O_3   0.831690 0.668320 0.250000 -0.355255
O49   O     O_R   0.075450 0.328820 0.832050 -0.535848
O50   O     O_R   0.075450 0.671180 0.332050 -0.545234
O51   O     O_R   0.075450 0.671180 0.167950 -0.545234
O52   O     O_R   0.416860 0.942890 0.674680 -0.494281

loop_
_geom_bond_atom_site_label_1
_geom_bond_atom_site_label_2
_ccdc_geom_bond_type
C6    C32   S    
C20   C144  S    
C70   C150  S    
C83   C128  S    
Cr6   O47   S    
C139  O17   A    
Cr4   O33   S    
C50   C59   S    
C86   C110  A    
C146  O24   A    
C63   N3    T    
C88   C108  A    
C123  H55   S    
C6    H16   S    
C76   C153  S    
C4    H14   S    
C3    C74   S    
C131  C140  A    
C44   C53   S    
C154  O45   A    
C86   C119  A    
C11   H34   S    
C91   C100  A    
C4    C12   S    
C88   C97   A    
Cr2   O46   S    
C36   C71   S    
C21   C48   S    
C101  C103  A    
C7    C33   S    
C156  O50   A    
C126  H54   S    
Cr7   O7    S    
C157  O51   A    
C147  O25   A    
C101  H40   S    
C71   C157  S    
C137  C140  A    
C11   C20   S    
C72   C154  S    
Cr6   O5    S    
C91   C107  A    
C127  C136  A    
C141  O27   A    
Cr2   O39   S    
C40   C76   S    
C8    C150  S    
C17   C43   S    
C32   H25   S    
C18   C44   S    
Cr3   O47   S    
C102  H41   S    
C13   C63   S    
C115  C118  A    
C139  O8    A    
C59   N14   T    
C42   H35   S    
C111  C113  A    
C141  O18   A    
Cr5   O23   S    
C132  H64   S    
C151  O12   A    
C22   C49   S    
C124  C133  A    
C96   C104  A    
C36   C44   S    
C37   C45   S    
C2    C71   S    
C130  C138  A    
C10   C160  S    
Cr6   O45   S    
C16   C25   S    
Cr4   O35   S    
Cr10  O15   S    
C50   C57   S    
C152  O38   A    
C90   C105  A    
C6    C77   S    
Cr11  O48   S    
C69   N8    T    
C46   C66   S    
C13   C72   S    
C8    C17   S    
Cr5   O4    S    
C5    C76   S    
C9    H12   S    
C13   C45   S    
C61   N16   T    
C29   H21   S    
C140  H8    S    
C79   C108  A    
C26   C158  S    
C64   N4    T    
C20   C47   S    
C3    C11   S    
C73   O2    A    
C129  C137  A    
Cr7   O51   S    
C38   H30   S    
C133  C135  A    
C130  H58   S    
C83   C112  A    
Cr8   O10   S    
Cr4   O43   S    
C123  C132  A    
C121  C130  A    
C85   C122  A    
C33   C42   S    
C82   C115  A    
C79   C84   S    
Cr12  O36   S    
C43   C52   S    
C149  O1    A    
C40   C49   S    
C28   C160  S    
C3    C29   S    
C40   H32   S    
C2    C44   S    
C29   C38   S    
C32   C41   S    
C39   C75   S    
Cr3   O40   S    
C86   C106  S    
C138  H7    S    
C3    H13   S    
Cr1   O2    S    
C78   C151  S    
C119  C121  A    
C96   C111  A    
C81   C105  A    
C143  O29   A    
C120  C129  A    
Cr8   O19   S    
C142  O28   A    
C16   H63   S    
C65   N5    T    
C136  H5    S    
C80   C95   S    
C14   H56   S    
C60   N15   T    
C155  O49   A    
C38   C47   S    
C12   C35   S    
C19   C28   S    
C103  H42   S    
C43   C150  S    
C114  C123  A    
C132  C134  A    
C116  C125  A    
C98   H37   S    
C56   N12   T    
Cr1   O44   S    
C145  O31   A    
C90   C99   A    
C146  O32   A    
C38   C74   S    
Cr2   O29   S    
C131  H59   S    
C34   C43   S    
Cr11  O25   S    
C12   H45   S    
C114  C116  A    
C19   C45   S    
C100  H39   S    
Cr9   O13   S    
C89   C98   A    
C135  H4    S    
C14   C22   S    
C85   C113  A    
C145  O22   A    
C117  O6    A    
C33   H26   S    
C15   H62   S    
C127  H60   S    
C148  O26   A    
C30   C39   S    
C97   H36   S    
C158  H9    S    
C110  C112  A    
Cr12  O27   S    
C147  O33   A    
C9    C18   S    
Cr3   O32   S    
Cr9   O20   S    
C58   N13   T    
C51   C60   S    
C2    C9    S    
C95   O4    A    
C25   C33   S    
C119  C127  A    
C125  C134  A    
Cr7   O48   S    
C39   H31   S    
C122  C131  A    
C8    C158  S    
Cr4   O42   S    
C14   C46   S    
C46   C49   S    
Cr6   O6    S    
C92   H49   S    
C87   C117  S    
C95   O13   A    
C87   C111  A    
C35   C65   S    
C1    C81   S    
C31   C40   S    
C17   C141  S    
C91   H48   S    
C142  O19   A    
C4    C75   S    
C89   H46   S    
C137  H6    S    
C68   C69   S    
C80   C109  A    
C106  O5    A    
C1    O52   A    
C93   H50   S    
Cr9   O46   S    
C34   C70   S    
C160  H11   S    
C124  H57   S    
C24   C64   S    
C107  C109  A    
C125  H53   S    
C35   C48   S    
Cr1   O1    S    
Cr3   O41   S    
C68   C78   S    
C80   C118  A    
C106  O14   A    
C134  H3    S    
C128  O7    A    
C57   C77   S    
Cr9   O21   S    
C77   C149  S    
C67   N7    T    
C92   C112  A    
C23   C50   S    
C23   C147  S    
C94   C110  A    
C144  O21   A    
Cr5   O3    S    
C21   C145  S    
Cr8   O18   S    
C10   C19   S    
C84   O3    A    
C128  O16   A    
Cr11  O16   S    
C93   C113  A    
C5    C14   S    
C117  O15   A    
Cr11  O26   S    
C92   C101  A    
C7    C16   S    
C94   C103  A    
C98   C100  A    
C144  O30   A    
C149  O36   A    
Cr7   O8    S    
C5    H15   S    
C41   C50   S    
Cr12  O44   S    
C115  C124  A    
C36   H28   S    
C104  H43   S    
Cr2   O38   S    
C152  O23   A    
C93   C102  A    
C27   C36   S    
C21   C30   S    
C62   N2    T    
C156  O42   A    
C23   C32   S    
C157  O43   A    
C30   H22   S    
C153  O39   A    
C154  O40   A    
C74   C155  S    
C25   C148  S    
C54   N10   T    
C159  H10   S    
Cr10  O47   S    
C37   C72   S    
C153  O34   A    
C37   H29   S    
C7    H17   S    
C70   C158  S    
C27   C159  S    
C39   C48   S    
Cr10  O14   S    
Cr9   O11   S    
Cr10  O24   S    
C46   C76   S    
C26   H18   S    
C35   C75   S    
C155  O41   A    
C70   C156  S    
C17   C26   S    
C28   C37   S    
C41   C77   S    
C31   H24   S    
Cr12  O37   S    
C9    C159  S    
C89   C109  A    
C11   C24   S    
Cr1   O52   S    
C6    C15   S    
C34   H27   S    
C26   C34   S    
C96   H52   S    
C148  O35   A    
C84   O11   A    
C16   C68   S    
Cr8   O9    S    
C85   C139  S    
C42   C51   S    
C15   C23   S    
C55   N11   T    
C79   C116  A    
C15   C57   S    
C27   H19   S    
C57   C67   S    
C28   H20   S    
C97   C99   A    
C120  C122  A    
C20   C29   S    
Cr2   O30   S    
C105  C108  A    
Cr8   O44   S    
C22   C31   S    
C143  O20   A    
C22   C146  S    
C18   C142  S    
C136  C138  A    
Cr5   O46   S    
C8    H1    S    
Cr6   O49   S    
C66   N6    T    
C12   C21   S    
C49   C58   S    
C129  H61   S    
C151  O37   A    
Cr5   O34   S    
C81   C114  A    
C25   C51   S    
C75   C152  S    
C133  H2    S    
C73   C82   S    
C82   C107  A    
C83   C121  A    
C102  C104  A    
C90   H47   S    
Cr12  O28   S    
C52   N1    T    
C7    C78   S    
C1    O9    A    
Cr3   O31   S    
C45   C54   S    
C42   C78   S    
C94   H51   S    
Cr11  O17   S    
Cr10  O22   S    
C73   O10   A    
C47   C55   S    
C61   C150  S    
C48   C56   S    
C19   C143  S    
C88   H44   S    
C24   C47   S    
C18   C27   S    
C10   C13   S    
C126  C135  A    
C71   C159  S    
C72   C160  S    
C87   C120  A    
C10   H23   S    
Cr1   O12   S    
C24   C74   S    
Cr7   O50   S    
C51   C68   S    
C41   H33   S    
C53   N9    T    
Cr4   O48   S    
C118  C126  A    
C4    C30   S    
C2    C62   S    
C5    C31   S    
C99   H38   S    
