data_mof_unit_43770.cif
_audit_creation_date              2013-03-05T16:35:53-0500
_audit_creation_method            fapswitch 2.2
_symmetry_space_group_name_H-M    P1
_symmetry_Int_Tables_number       1
_space_group_crystal_system       triclinic
_cell_length_a                    23.484178
_cell_length_b                    9.080732
_cell_length_c                    7.783799
_cell_angle_alpha                 89.906574
_cell_angle_beta                  89.999966
_cell_angle_gamma                 89.99992
_cell_volume                      1659.92038082

loop_
_atom_site_label
_atom_site_type_symbol
_atom_site_description
_atom_site_fract_x
_atom_site_fract_y
_atom_site_fract_z
_atom_type_partial_charge
O1    O     O_R   0.500000 0.288390 0.642760 -0.575767
O2    O     O_R   0.500000 0.711610 0.357240 -0.575767
O3    O     O_R   0.500000 0.711610 0.642760 -0.580623
O4    O     O_R   0.500000 0.288390 0.357240 -0.580623
C1    C     C_R   0.500001 0.220027 0.500081 0.829760
C2    C     C_R   0.500001 0.779973 0.499919 0.829759
O5    O     O_R   0.417880 0.500000 0.642820 -0.576681
O6    O     O_R   0.582120 0.500000 0.357180 -0.576599
O7    O     O_R   0.582120 0.500000 0.642820 -0.576598
O8    O     O_R   0.417880 0.500000 0.357180 -0.576680
C3    C     C_R   0.209394 0.500004 0.500001 -0.004837
C4    C     C_R   0.790601 0.500008 0.500001 -0.005138
C5    C     C_R   0.390929 0.500000 0.500000 0.876857
C6    C     C_R   0.609069 0.500000 0.500000 0.876894
Cu1   Cu    Cu3+1 0.500000 0.500000 0.669080 1.008596
Cu2   Cu    Cu3+1 0.500000 0.500000 0.330920 1.008596
C7    C     C_R   0.298686 0.630683 0.540417 -0.031252
C8    C     C_R   0.701307 0.369082 0.460668 -0.031032
C9    C     C_R   0.298685 0.369322 0.459584 -0.031253
C10   C     C_R   0.701305 0.630926 0.539333 -0.031032
C11   C     C_R   0.328573 0.500002 0.500000 -0.192125
C12   C     C_R   0.671422 0.500003 0.500000 -0.192077
C13   C     C_R   0.879939 0.551687 0.358771 0.760883
C14   C     C_R   0.120059 0.448306 0.641222 0.760800
C15   C     C_R   0.879939 0.448334 0.641235 0.760883
C16   C     C_R   0.120059 0.551708 0.358782 0.760801
N1    N     N_R   0.851638 0.500010 0.500003 -0.447177
N2    N     N_R   0.148359 0.500006 0.500002 -0.447112
C17   C     C_R   0.939820 0.446615 0.644482 -0.186583
C18   C     C_R   0.060179 0.553414 0.355527 -0.186559
C19   C     C_R   0.939820 0.553406 0.355524 -0.186584
C20   C     C_R   0.060179 0.446603 0.644478 -0.186560
C21   C     C_R   0.969881 0.500010 0.500003 -0.157533
C22   C     C_R   0.030118 0.500009 0.500003 -0.157483
C23   C     C_R   0.970321 0.393162 0.787451 0.620515
C24   C     C_R   0.029678 0.606865 0.212559 0.620505
C25   C     C_R   0.970321 0.606859 0.212556 0.620515
C26   C     C_R   0.029678 0.393154 0.787447 0.620505
C27   C     C_1   0.500002 0.065394 0.500112 -0.171805
C28   C     C_1   0.500001 0.934606 0.499888 -0.171806
C29   C     C_R   0.238948 0.629202 0.539977 0.642624
C30   C     C_R   0.761045 0.370564 0.461099 0.642769
C31   C     C_R   0.238947 0.370806 0.460025 0.642626
C32   C     C_R   0.761043 0.629449 0.538903 0.642768
N3    N     N_1   0.500000 0.500000 0.076820 -0.040487
N4    N     N_1   0.500000 0.500000 0.923180 -0.040487
O9    O     O_2   0.849970 0.600677 0.222263 -0.389370
O10   O     O_2   0.150031 0.399260 0.777699 -0.389432
O11   O     O_2   0.849970 0.399344 0.777743 -0.389371
O12   O     O_2   0.150031 0.600752 0.222305 -0.389432
F1    F     F_    0.943098 0.339958 0.928468 -0.545845
F2    F     F_    0.056901 0.660073 0.071545 -0.545777
F3    F     F_    0.943099 0.660065 0.071540 -0.545845
F4    F     F_    0.056901 0.339946 0.928462 -0.545777
F5    F     F_    0.208988 0.752808 0.578544 -0.586076
F6    F     F_    0.791001 0.246723 0.423541 -0.585947
F7    F     F_    0.208987 0.247201 0.421459 -0.586075
F8    F     F_    0.790997 0.753292 0.576462 -0.585948
C33   C     C_3   0.330338 0.771226 0.581233 -0.695513
H1    H     H_    0.301210 0.865031 0.606092 0.287525
H2    H     H_    0.357044 0.755085 0.697423 0.227279
H3    H     H_    0.358143 0.801847 0.471423 0.200115
C34   C     C_3   0.669649 0.228313 0.420952 -0.696126
H4    H     H_    0.698773 0.134384 0.396690 0.287465
H5    H     H_    0.641876 0.198276 0.531051 0.200477
H6    H     H_    0.642908 0.243838 0.304721 0.227029
C35   C     C_3   0.330336 0.228777 0.418768 -0.695509
H7    H     H_    0.301208 0.134973 0.393912 0.287526
H8    H     H_    0.357041 0.244917 0.302575 0.227280
H9    H     H_    0.358142 0.198156 0.528575 0.200113
C36   C     C_3   0.669646 0.771692 0.579047 -0.696129
H10   H     H_    0.698768 0.865624 0.603306 0.287462
H11   H     H_    0.641871 0.801725 0.468950 0.200477
H12   H     H_    0.642905 0.756166 0.695280 0.227031

loop_
_geom_bond_atom_site_label_1
_geom_bond_atom_site_label_2
_geom_bond_distance
_ccdc_geom_bond_type
C34   H5    1.110618 S    
O3    C2    1.272526 A    
N3    N4    1.195904 T    
O1    C1    1.273191 A    
C24   C25   1.393967 A    
C9    C11   1.414575 A    
C16   O12   1.349341 S    
C8    C34   1.511148 S    
Cu1   Cu2   2.632170 S    
C17   C21   1.412946 A    
C29   F5    1.358705 S    
C4    C30   1.398675 A    
C30   F6    1.358703 S    
C32   F8    1.358704 S    
C19   C21   1.412943 A    
C10   C36   1.511149 S    
C9    C35   1.511151 S    
O1    Cu1   1.932797 S    
C20   C26   1.409005 A    
O2    Cu2   1.932796 S    
C24   F2    1.358386 S    
C25   F3    1.358386 S    
O5    Cu1   1.939325 S    
C34   H6    1.110113 S    
C33   H1    1.109727 S    
O6    Cu2   1.939323 S    
O2    C2    1.273191 A    
C10   C32   1.402978 A    
C9    C31   1.402969 A    
C7    C29   1.402969 A    
C15   C17   1.406555 A    
C33   H2    1.110098 S    
C13   O9    1.349338 S    
C18   C22   1.412951 A    
C4    N1    1.433420 S    
C35   H7    1.109727 S    
C14   O10   1.349342 S    
C23   C26   1.393967 A    
C27   C28   1.187661 T    
C36   H11   1.110618 S    
C7    C11   1.414575 A    
C19   C25   1.409012 A    
C35   H8    1.110099 S    
C20   C22   1.412952 A    
O4    Cu2   1.932133 S    
O7    C6    1.279208 A    
C14   C20   1.406553 A    
C26   F4    1.358385 S    
C21   C22   1.414626 A    
C5    C11   1.464379 S    
C3    C31   1.398623 A    
C7    C33   1.511151 S    
C10   C12   1.414510 A    
C16   C18   1.406555 A    
C13   N1    1.367029 A    
C1    C27   1.404180 S    
C23   F1    1.358385 S    
C2    C28   1.404180 S    
O3    Cu1   1.932132 S    
C33   H3    1.110623 S    
O6    C6    1.279208 A    
C8    C12   1.414511 A    
C14   N2    1.367008 A    
O4    C1    1.272526 A    
O8    C5    1.279231 A    
Cu2   N3    1.977863 S    
C36   H12   1.110111 S    
C15   N1    1.367027 A    
C17   C23   1.409014 A    
C16   N2    1.367007 A    
C18   C24   1.409006 A    
C35   H9    1.110624 S    
C6    C12   1.464302 S    
C8    C30   1.402978 A    
O7    Cu1   1.939323 S    
C36   H10   1.109727 S    
C4    C32   1.398674 A    
O8    Cu2   1.939325 S    
C3    N2    1.433350 S    
C3    C29   1.398623 A    
C15   O11   1.349338 S    
C31   F7    1.358705 S    
C34   H4    1.109728 S    
O5    C5    1.279231 A    
Cu1   N4    1.977863 S    
C13   C19   1.406555 A    
