data_mof_unit_35926.cif
_audit_creation_date              2012-12-10T18:33:44-0500
_audit_creation_method            fapswitch 2.2
_symmetry_space_group_name_H-M    P1
_symmetry_Int_Tables_number       1
_space_group_crystal_system       triclinic
_cell_length_a                    10.587332
_cell_length_b                    15.016829
_cell_length_c                    15.584464
_cell_angle_alpha                 82.220207
_cell_angle_beta                  89.938596
_cell_angle_gamma                 104.819749
_cell_volume                      2371.62766674

loop_
_atom_site_label
_atom_site_type_symbol
_atom_type_description
_atom_site_fract_x
_atom_site_fract_y
_atom_site_fract_z
_atom_type_partial_charge
C1    C     C_R   0.480109 0.441624 0.661609 0.850629
C2    C     C_R   0.472033 0.479000 0.047004 0.071676
C3    C     C_R   0.489150 0.389175 0.075463 -0.232669
C4    C     C_R   0.404783 0.584934 0.933972 -0.239458
C5    C     C_R   0.483784 0.325015 0.018653 -0.241481
C6    C     C_R   0.407325 0.648446 0.991177 -0.237148
C7    C     C_R   0.683810 0.840239 0.643531 -0.337178
C8    C     C_R   0.325090 0.159878 0.353452 -0.356707
C9    C     C_R   0.656716 0.751913 0.618294 0.352676
C10   C     C_R   0.355538 0.249148 0.375701 0.356794
C11   C     C_R   0.514453 0.793728 0.511609 -0.117545
C12   C     C_R   0.517808 0.558246 0.338350 0.872914
C13   C     C_R   0.472038 0.202904 0.496329 -0.089346
C14   C     C_R   0.536049 0.883955 0.535386 -0.023010
C15   C     C_R   0.449294 0.111631 0.474349 -0.028570
C16   C     C_R   0.741677 0.499895 0.502480 0.894217
C17   C     C_R   0.257564 0.499399 0.499842 0.885049
C18   C     C_R   0.623622 0.906815 0.602783 0.090150
C19   C     C_R   0.370262 0.090254 0.402538 0.098231
C20   C     C_R   0.475390 0.951755 0.493809 0.056589
C21   C     C_R   0.504201 0.042254 0.519552 0.055266
C22   C     C_R   0.589635 0.061322 0.588013 -0.304863
C23   C     C_R   0.446086 0.463886 0.811160 -0.273366
C24   C     C_R   0.388058 0.931982 0.426498 -0.308192
C25   C     C_R   0.649327 0.995428 0.628922 0.223059
C26   C     C_R   0.338070 0.000022 0.380168 0.225782
C27   C     C_3   0.927266 0.414085 0.497414 0.264497
C28   C     C_3   0.070100 0.584707 0.509984 0.247291
C29   C     C_3   0.019986 0.440536 0.570103 0.182498
C30   C     C_3   0.978162 0.558094 0.436923 0.223604
C31   C     C_3   0.122342 0.499178 0.501280 -0.191050
C32   C     C_3   0.875892 0.499624 0.505164 -0.179082
C33   C     C_3   0.029073 0.472240 0.427101 -0.269781
C34   C     C_R   0.523676 0.532954 0.187952 -0.252081
C35   C     C_3   0.967968 0.526162 0.580009 -0.331635
C36   C     C_R   0.465318 0.405243 0.753408 -0.049405
C37   C     C_R   0.513038 0.592502 0.246882 -0.050313
C38   C     C_R   0.476877 0.287631 0.872782 -0.208002
C39   C     C_R   0.447667 0.695371 0.133058 -0.208491
C40   C     C_R   0.476173 0.315610 0.784013 -0.201371
C41   C     C_R   0.478174 0.675286 0.219233 -0.203885
C42   C     C_3   0.951521 0.342367 0.709266 -0.793179
C43   C     C_3   0.059918 0.668855 0.306803 -0.780802
C44   C     C_3   0.182678 0.316448 0.322592 -0.798794
C45   C     C_R   0.448147 0.438133 0.900529 0.093179
C46   C     C_3   0.718494 0.670311 0.752141 -0.805176
C47   C     C_3   0.897788 0.254819 0.463788 -0.795469
C48   C     C_3   0.079837 0.745857 0.528703 -0.838769
C49   C     C_3   0.870072 0.059738 0.669362 -0.808757
C50   C     C_3   0.322161 0.986339 0.228183 -0.821396
C51   C     C_R   0.481571 0.546830 0.103522 0.091105
C52   C     C_R   0.467985 0.349506 0.930983 0.179754
C53   C     C_R   0.446410 0.630855 0.075485 0.176964
C54   C     C_R   0.441003 0.500913 0.959565 0.070883
H1    H     H_    0.615514 0.127978 0.610638 0.134099
H2    H     H_    0.489557 0.268903 0.739581 0.148736
H3    H     H_    0.504910 0.365027 0.141695 0.136943
H4    H     H_    0.369379 0.602446 0.870771 0.145151
H5    H     H_    0.142511 0.399541 0.662985 0.220685
H6    H     H_    0.978636 0.287331 0.754829 0.244144
H7    H     H_    0.854963 0.311873 0.683485 0.234493
H8    H     H_    0.944294 0.399890 0.745389 0.235309
H9    H     H_    0.891830 0.661649 0.380438 0.227357
H10   H     H_    0.025628 0.707859 0.249815 0.237198
H11   H     H_    0.108497 0.618863 0.283290 0.246693
H12   H     H_    0.357647 0.864377 0.406120 0.150380
H13   H     H_    0.131576 0.718987 0.340460 0.249434
H14   H     H_    0.526877 0.224951 0.551088 0.129014
H15   H     H_    0.450828 0.769549 0.461325 0.149725
H16   H     H_    0.355412 0.326804 0.257547 0.205096
H17   H     H_    0.125076 0.252055 0.299156 0.222472
H18   H     H_    0.165558 0.377369 0.279975 0.234051
H19   H     H_    0.150125 0.317887 0.389658 0.269542
H20   H     H_    0.804966 0.685632 0.628927 0.219415
H21   H     H_    0.797398 0.725382 0.774824 0.222535
H22   H     H_    0.737391 0.601779 0.775032 0.247837
H23   H     H_    0.054080 0.452419 0.364677 0.157300
H24   H     H_    0.622695 0.671297 0.780628 0.250285
H25   H     H_    0.751552 0.856398 0.694555 0.191691
H26   H     H_    0.268224 0.146382 0.296704 0.186659
H27   H     H_    0.779922 0.296996 0.548485 0.219846
H28   H     H_    0.824891 0.186107 0.471368 0.245004
H29   H     H_    0.984550 0.248156 0.501654 0.250234
H30   H     H_    0.924530 0.275287 0.393816 0.249539
H31   H     H_    0.219997 0.677160 0.563293 0.252716
H32   H     H_    0.149800 0.815494 0.524541 0.248327
H33   H     H_    0.029371 0.729204 0.593533 0.232661
H34   H     H_    0.939612 0.547773 0.641021 0.163723
H35   H     H_    0.007837 0.749194 0.477723 0.254049
H36   H     H_    0.490168 0.219322 0.895763 0.133887
H37   H     H_    0.419612 0.759255 0.112368 0.135831
H38   H     H_    0.702508 0.057804 0.738347 0.223198
H39   H     H_    0.880781 0.129150 0.630607 0.253749
H40   H     H_    0.905505 0.013992 0.629970 0.251400
H41   H     H_    0.931463 0.068480 0.726876 0.244258
H42   H     H_    0.187136 0.912551 0.324694 0.228590
H43   H     H_    0.249930 0.972326 0.176886 0.241578
H44   H     H_    0.383282 0.935936 0.230421 0.238647
H45   H     H_    0.497688 0.257173 0.043034 0.144116
H46   H     H_    0.385263 0.058213 0.211145 0.249022
H47   H     H_    0.378012 0.711606 0.969281 0.145669
H48   H     H_    0.561686 0.474427 0.210999 0.150260
H49   H     H_    0.437737 0.531904 0.784367 0.160269
H50   H     H_    0.469337 0.722197 0.264615 0.153320
N1    N     N_R   0.574200 0.731700 0.552740 -0.124501
N2    N     N_2   0.253985 0.976481 0.310806 -0.312375
N3    N     N_R   0.425800 0.268300 0.447260 -0.111614
N4    N     N_2   0.050248 0.376239 0.640136 -0.292320
N5    N     N_2   0.949462 0.620102 0.364373 -0.303913
N6    N     N_2   0.320202 0.320971 0.320228 -0.252639
N7    N     N_2   0.716996 0.683398 0.658424 -0.256696
N8    N     N_2   0.840505 0.322636 0.494190 -0.271228
N9    N     N_2   0.150392 0.677405 0.517219 -0.295711
N10   N     N_2   0.734953 0.018986 0.697524 -0.318217
O1    O     O_R   0.462600 0.383110 0.605620 -0.632567
O2    O     O_R   0.537400 0.616890 0.394380 -0.627091
O3    O     O_R   0.510210 0.531900 0.639510 -0.590001
O4    O     O_R   0.489790 0.468100 0.360490 -0.591555
O5    O     O_R   0.662240 0.425610 0.483080 -0.611463
O6    O     O_R   0.337760 0.574390 0.516920 -0.637540
O7    O     O_R   0.709860 0.574400 0.516970 -0.625028
O8    O     O_R   0.290140 0.425600 0.483030 -0.597511
Zn1   Zn    Zn3+2 0.468210 0.400660 0.477370 0.960868
Zn2   Zn    Zn3+2 0.531790 0.599340 0.522630 0.939128

loop_
_geom_bond_atom_site_label_1
_geom_bond_atom_site_label_2
_ccdc_geom_bond_type
C9    N7    S    
C30   C32   S    
C23   C45   A    
C27   C29   S    
C34   C37   A    
C14   C18   A    
N3    Zn1   S    
C13   N3    A    
C26   N2    S    
C46   H22   S    
C39   C41   A    
C27   C33   S    
C15   C19   A    
C34   C51   A    
C34   H48   S    
O3    Zn2   S    
C24   C26   A    
C28   N9    S    
C11   C14   A    
C6    H47   S    
C38   C52   A    
C9    N1    A    
C47   N8    S    
C44   H17   S    
C47   H28   S    
C12   C37   S    
C19   C26   A    
C20   C24   A    
O7    Zn2   S    
H16   N6    S    
C17   O6    A    
C23   H49   S    
C5    H45   S    
C28   C35   S    
C40   H2    S    
C22   C25   A    
C11   N1    A    
C31   C33   S    
C29   N4    S    
C10   N6    S    
C47   H29   S    
C49   H40   S    
C42   H8    S    
C24   H12   S    
C49   N10   S    
C46   N7    S    
C10   N3    A    
C18   C25   A    
C39   H37   S    
C46   H21   S    
C43   H10   S    
C50   H44   S    
C8    C19   A    
O1    Zn1   S    
C30   N5    S    
C32   C35   S    
C14   C20   A    
C36   C40   A    
C4    C6    A    
C2    C54   A    
C16   O5    A    
C42   H6    S    
H20   N7    S    
C46   H24   S    
C45   C52   A    
N1    Zn2   S    
C51   C53   A    
H9    N5    S    
C16   O7    A    
C35   H34   S    
H27   N8    S    
C43   H11   S    
C7    C18   A    
C8    H26   S    
C48   H33   S    
C5    C52   A    
C1    O3    A    
C47   H30   S    
C49   H41   S    
C42   H7    S    
C12   O4    A    
C3    H3    S    
C8    C10   A    
C27   N8    S    
C48   H35   S    
C13   C15   A    
C17   C31   S    
C48   H32   S    
C6    C53   A    
C7    H25   S    
C7    C9    A    
H42   N2    S    
C50   H43   S    
O2    Zn2   S    
C30   C33   S    
C4    C54   A    
C27   C32   S    
C38   H36   S    
C28   C31   S    
C3    C5    A    
C45   C54   A    
C11   H15   S    
C22   H1    S    
O5    Zn1   S    
C16   C32   S    
C1    O1    A    
C29   C35   S    
C50   H46   S    
H5    N4    S    
C41   H50   S    
C28   C30   S    
C2    C3    A    
C29   C31   S    
C25   N10   S    
C38   C40   A    
C33   H23   S    
C39   C53   A    
H38   N10   S    
H31   N9    S    
C44   H18   S    
O4    Zn1   S    
C37   C41   A    
C44   H19   S    
C2    C51   A    
C17   O8    A    
C15   C21   A    
C20   C21   A    
C43   H13   S    
C23   C36   A    
C4    H4    S    
C50   N2    S    
C43   N5    S    
C49   H39   S    
O8    Zn1   S    
C21   C22   A    
C42   N4    S    
O6    Zn2   S    
C1    C36   S    
C48   N9    S    
C12   O2    A    
C13   H14   S    
C44   N6    S    
