data_mof_unit_54702.cif
_audit_creation_date              2012-12-10T18:07:32-0500
_audit_creation_method            fapswitch 2.2
_symmetry_space_group_name_H-M    P1
_symmetry_Int_Tables_number       1
_space_group_crystal_system       triclinic
_cell_length_a                    11.55014
_cell_length_b                    12.648573
_cell_length_c                    13.089873
_cell_angle_alpha                 82.179072
_cell_angle_beta                  90.737061
_cell_angle_gamma                 102.594989
_cell_volume                      1848.67774224

loop_
_atom_site_label
_atom_site_type_symbol
_atom_type_description
_atom_site_fract_x
_atom_site_fract_y
_atom_site_fract_z
_atom_type_partial_charge
C1    C     C_R   0.484430 0.438752 0.691339 0.862355
C2    C     C_R   0.499022 0.597272 0.200591 -0.084930
C3    C     C_R   0.516694 0.305042 0.838888 -0.186430
C4    C     C_R   0.529893 0.277996 0.944263 -0.162432
C5    C     C_R   0.511989 0.349462 0.011577 -0.129024
C6    C     C_R   0.478940 0.448636 0.973986 0.115867
C7    C     C_R   0.444215 0.464664 0.870659 0.092827
C8    C     C_R   0.472726 0.529591 0.036807 0.015409
C9    C     C_R   0.404226 0.608565 0.004339 0.135845
C10   C     C_R   0.355506 0.613620 0.906367 -0.208746
C11   C     C_R   0.377687 0.544325 0.839186 -0.181740
C12   C     C_R   0.717787 0.501024 0.500171 0.935801
C13   C     C_R   0.533278 0.536350 0.130217 0.179627
C14   C     C_R   0.427601 0.671957 0.170449 -0.246066
C15   C     C_R   0.476347 0.399720 0.801483 -0.100266
C16   C     C_R   0.330366 0.088722 0.347949 0.396359
C17   C     C_R   0.640236 0.802926 0.630062 0.420982
C18   C     C_R   0.667183 0.907314 0.657535 -0.259963
C19   C     C_R   0.613344 0.986722 0.608051 -0.250546
C20   C     C_R   0.531714 0.962711 0.529044 0.057647
C21   C     C_R   0.505096 0.854449 0.503752 0.182922
C22   C     C_R   0.475168 0.041953 0.475319 -0.053744
C23   C     C_R   0.511506 0.561042 0.308915 0.903764
C24   C     C_R   0.389827 0.011484 0.399336 0.064958
C25   C     C_R   0.365608 0.904628 0.375665 -0.233600
C26   C     C_R   0.423452 0.828020 0.426299 -0.197966
C27   C     C_R   0.499621 0.151017 0.494717 -0.061566
C28   C     C_R   0.356337 0.194325 0.374169 -0.083998
C29   C     C_R   0.282226 0.499028 0.499719 0.863796
C30   C     C_1   0.838895 0.502667 0.500397 -0.135685
C31   C     C_1   0.940924 0.501502 0.500082 0.029118
C32   C     C_1   0.059173 0.498869 0.499517 0.015329
C33   C     C_1   0.161165 0.497559 0.499302 -0.171674
C34   C     C_R   0.384642 0.680994 0.070785 -0.182773
H1    H     H_    0.400950 0.719675 0.224882 0.151190
H2    H     H_    0.302342 0.879792 0.316966 0.186187
H3    H     H_    0.564388 0.182682 0.548852 0.139851
H4    H     H_    0.637634 0.065550 0.634149 0.153043
H5    H     H_    0.730493 0.927218 0.717523 0.185794
H6    H     H_    0.402459 0.748409 0.403281 0.202954
H7    H     H_    0.302448 0.672826 0.880810 0.154717
H8    H     H_    0.330543 0.739954 0.047738 0.146891
H9    H     H_    0.539916 0.253182 0.786631 0.155034
H10   H     H_    0.519346 0.324179 0.093149 0.169477
H11   H     H_    0.556926 0.203018 0.973660 0.151414
H12   H     H_    0.338747 0.551136 0.763583 0.161617
H13   H     H_    0.308678 0.254458 0.339748 0.146993
N1    N     N_R   0.440320 0.222190 0.444690 -0.123828
N2    N     N_R   0.559060 0.776980 0.554780 -0.156229
O1    O     O_R   0.471500 0.366730 0.627160 -0.622936
O2    O     O_R   0.509620 0.544830 0.662520 -0.572117
O3    O     O_R   0.646490 0.410960 0.482310 -0.605850
O4    O     O_R   0.684610 0.589050 0.517670 -0.564788
O5    O     O_R   0.490380 0.455170 0.337480 -0.593652
O6    O     O_R   0.528500 0.633270 0.372840 -0.634738
O7    O     O_R   0.315390 0.410950 0.482330 -0.607961
O8    O     O_R   0.353510 0.589040 0.517690 -0.637991
Zn1   Zn    Zn3+2 0.474550 0.381080 0.476390 0.960939
Zn2   Zn    Zn3+2 0.525450 0.618920 0.523610 0.978981
O9    O     O_3   0.237845 0.057589 0.282428 -0.641805
C35   C     C_3   0.272517 0.097565 0.178467 0.066618
H14   H     H_    0.235120 0.030925 0.132311 0.182532
H15   H     H_    0.370573 0.116767 0.164262 0.105851
C36   C     C_3   0.221575 0.198182 0.140425 -0.350539
H16   H     H_    0.134650 0.191143 0.179263 0.256163
H17   H     H_    0.283223 0.272978 0.159895 0.195034
C37   C     C_3   0.203474 0.210668 0.023997 -0.911684
H18   H     H_    0.131731 0.143048 0.003900 0.268865
H19   H     H_    0.286117 0.209290 0.982615 0.269678
H20   H     H_    0.177880 0.289623 0.998111 0.270282
Br1   Br    Br    0.724259 0.701790 0.702538 -0.465152
Br2   Br    Br    0.679143 0.485901 0.157546 -0.512296

loop_
_geom_bond_atom_site_label_1
_geom_bond_atom_site_label_2
_ccdc_geom_bond_type
C27   N1    A    
C14   C34   A    
C35   C36   S    
C18   H5    S    
C36   C37   S    
C28   H13   S    
N1    Zn1   S    
C6    C7    A    
C1    C15   S    
C19   H4    S    
O6    Zn2   S    
C1    O1    A    
C12   O4    A    
C34   H8    S    
C30   C31   T    
C21   C26   A    
C37   H20   S    
C3    H9    S    
C32   C33   T    
C20   C21   A    
C19   C20   A    
C7    C15   A    
C17   C18   A    
O4    Zn2   S    
C23   O6    A    
C16   C24   A    
C36   H17   S    
C36   H16   S    
C10   H7    S    
C7    C11   A    
C1    O2    A    
C26   H6    S    
C5    C6    A    
O3    Zn1   S    
C27   H3    S    
C16   O9    S    
C21   N2    A    
C29   O7    A    
C5    H10   S    
O7    Zn1   S    
C9    C34   A    
C17   Br1   S    
C22   C27   A    
O5    Zn1   S    
C35   H14   S    
C2    C14   A    
C22   C24   A    
O8    Zn2   S    
O2    Zn2   S    
C10   C11   A    
C29   O8    A    
C25   H2    S    
C13   Br2   S    
C4    H11   S    
O1    Zn1   S    
C8    C13   A    
C29   C33   S    
C14   H1    S    
C3    C15   A    
C24   C25   A    
C23   O5    A    
C18   C19   A    
C9    C10   A    
C17   N2    A    
C2    C23   S    
C35   H15   S    
C2    C13   A    
C16   C28   A    
C4    C5    A    
C11   H12   S    
C6    C8    A    
O9    C35   S    
C12   O3    A    
C25   C26   A    
C12   C30   S    
C31   C32   S    
C28   N1    A    
C3    C4    A    
C37   H18   S    
C20   C22   A    
C8    C9    A    
C37   H19   S    
N2    Zn2   S    
