data_mof_unit_22684.cif
_audit_creation_date              2012-12-10T18:47:03-0500
_audit_creation_method            fapswitch 2.2
_symmetry_space_group_name_H-M    P1
_symmetry_Int_Tables_number       1
_space_group_crystal_system       triclinic
_cell_length_a                    10.665007
_cell_length_b                    9.822004
_cell_length_c                    15.01064
_cell_angle_alpha                 89.853581
_cell_angle_beta                  89.873002
_cell_angle_gamma                 89.446861
_cell_volume                      1572.30849434

loop_
_atom_site_label
_atom_site_type_symbol
_atom_type_description
_atom_site_fract_x
_atom_site_fract_y
_atom_site_fract_z
_atom_type_partial_charge
C1    C     C_R   0.260141 0.500823 0.500264 1.037024
C2    C     C_R   0.127780 0.502939 0.498815 -0.419158
C3    C     C_R   0.577658 0.070990 0.555467 -0.092347
C4    C     C_R   0.422342 0.929010 0.444532 -0.092427
C5    C     C_R   0.422346 0.073046 0.444521 -0.064599
C6    C     C_R   0.577654 0.926954 0.555479 -0.064554
C7    C     C_R   0.499503 0.500165 0.326530 0.887526
C8    C     C_R   0.500507 0.499835 0.673470 0.887554
C9    C     C_R   0.513321 0.622444 0.814822 -0.218900
C10   C     C_R   0.486836 0.377539 0.185178 -0.218832
C11   C     C_R   0.501581 0.499470 0.769314 -0.090441
C12   C     C_R   0.739859 0.499176 0.499735 1.036946
C13   C     C_R   0.498480 0.500525 0.230685 -0.090219
C14   C     C_R   0.490235 0.376248 0.815210 -0.229206
C15   C     C_R   0.509804 0.623749 0.184788 -0.229907
C16   C     C_R   0.489154 0.374757 0.907613 0.012474
C17   C     C_R   0.510960 0.625224 0.092387 0.012504
C18   C     C_R   0.500699 0.499474 0.953653 -0.004561
C19   C     C_R   0.499446 0.500502 0.046347 -0.004401
C20   C     C_R   0.513110 0.623364 0.906877 0.060216
C21   C     C_R   0.487069 0.376612 0.093122 0.060206
C22   C     C_R   0.474959 0.251616 0.954614 0.521857
C23   C     C_R   0.475842 0.253443 0.047558 -0.334705
C24   C     C_R   0.525184 0.748351 0.045372 0.521336
C25   C     C_3   0.345959 0.078837 0.915475 -0.330802
C26   C     C_3   0.654738 0.919875 0.085597 -0.330808
C27   C     C_3   0.149415 0.404047 0.301754 -0.266397
C28   C     C_3   0.850577 0.596050 0.698234 -0.266184
C29   C     C_3   0.879355 0.187663 0.419661 -0.196509
C30   C     C_3   0.120650 0.812330 0.580366 -0.196401
C31   C     C_R   0.524395 0.746526 0.952444 -0.334735
C32   C     C_R   0.066212 0.414256 0.440838 0.365280
C33   C     C_R   0.933789 0.585754 0.559155 0.365235
C34   C     C_R   0.936873 0.406877 0.444768 0.363737
C35   C     C_R   0.063129 0.593122 0.555230 0.363725
C36   C     C_R   0.872220 0.497061 0.501183 -0.419157
H1    H     H_    0.522792 0.717647 0.778732 0.164086
H2    H     H_    0.639659 0.871414 0.599803 0.158184
H3    H     H_    0.338525 0.988582 0.871586 0.193926
H4    H     H_    0.275638 0.155455 0.891992 0.156678
H5    H     H_    0.323699 0.045211 0.984471 0.191483
H6    H     H_    0.723755 0.843004 0.110636 0.156953
H7    H     H_    0.661779 0.010941 0.128837 0.194109
H8    H     H_    0.679082 0.951880 0.016600 0.190259
H9    H     H_    0.203951 0.338833 0.255192 0.180483
H10   H     H_    0.203735 0.498870 0.312138 0.130153
H11   H     H_    0.057847 0.428195 0.269687 0.183860
H12   H     H_    0.477396 0.282334 0.221270 0.164043
H13   H     H_    0.796124 0.501279 0.687887 0.130178
H14   H     H_    0.796148 0.661374 0.744817 0.180469
H15   H     H_    0.942167 0.571789 0.730263 0.183848
H16   H     H_    0.813376 0.124523 0.380909 0.172330
H17   H     H_    0.850955 0.180629 0.490981 0.135742
H18   H     H_    0.974801 0.143534 0.410518 0.179962
H19   H     H_    0.148925 0.819388 0.509025 0.135636
H20   H     H_    0.186722 0.875435 0.619067 0.172392
H21   H     H_    0.025238 0.856478 0.589605 0.180040
H22   H     H_    0.480776 0.281768 0.778805 0.204629
H23   H     H_    0.519193 0.718240 0.221187 0.204485
H24   H     H_    0.468059 0.158552 0.084017 0.197316
H25   H     H_    0.532349 0.841425 0.916008 0.197607
H26   H     H_    0.639689 0.124899 0.599752 0.126392
H27   H     H_    0.360311 0.875101 0.400248 0.126379
H28   H     H_    0.360341 0.128586 0.400197 0.158172
N1    N     N_R   0.500000 0.857200 0.500000 -0.083351
N2    N     N_R   0.500000 0.142800 0.500000 -0.083344
O1    O     O_R   0.316770 0.614620 0.499990 -0.612972
O2    O     O_3   0.531016 0.871020 0.090310 -0.623016
O3    O     O_3   0.132582 0.332036 0.382200 -0.591682
O4    O     O_3   0.867419 0.668011 0.617770 -0.591735
O5    O     O_3   0.872621 0.322566 0.387161 -0.579753
O6    O     O_3   0.127388 0.677418 0.612844 -0.579777
O7    O     O_R   0.683230 0.385380 0.500010 -0.612990
O8    O     O_R   0.683230 0.614620 0.500010 -0.593027
O9    O     O_R   0.316770 0.385380 0.499990 -0.593011
O10   O     O_R   0.499980 0.614680 0.367850 -0.644563
O11   O     O_R   0.500020 0.385320 0.632150 -0.644533
O12   O     O_R   0.500020 0.614680 0.632150 -0.614473
O13   O     O_R   0.499980 0.385320 0.367850 -0.614501
O14   O     O_3   0.469170 0.128998 0.909592 -0.622613
Zn1   Zn    Zn3+2 0.500000 0.653120 0.500000 0.967569
Zn2   Zn    Zn3+2 0.500000 0.346880 0.500000 0.967607

loop_
_geom_bond_atom_site_label_1
_geom_bond_atom_site_label_2
_ccdc_geom_bond_type
C2    C35   A    
C12   O8    A    
C25   O14   S    
C31   H25   S    
C3    C6    A    
C26   H8    S    
C4    H27   S    
C19   C21   A    
C1    C2    S    
C25   H4    S    
C4    N1    A    
C28   H15   S    
C29   H18   S    
C30   H21   S    
C33   C36   A    
C2    C32   A    
C18   C19   A    
C33   C35   A    
C28   H14   S    
C6    N1    A    
C6    H2    S    
C12   C36   S    
C18   C20   A    
C27   O3    S    
C27   H9    S    
C12   O7    A    
C8    O12   A    
C26   H7    S    
C10   C21   A    
C23   H24   S    
C14   H22   S    
C17   C24   A    
C1    O9    A    
C25   H5    S    
C11   C14   A    
C17   C19   A    
C30   H20   S    
C5    H28   S    
C32   C34   A    
N2    Zn2   S    
C28   H13   S    
C9    C20   A    
N1    Zn1   S    
C7    C13   S    
C9    H1    S    
C9    C11   A    
C7    O10   A    
C33   O4    S    
C27   H10   S    
C35   O6    S    
O1    Zn1   S    
C13   C15   A    
C10   H12   S    
C8    O11   A    
C14   C16   A    
C3    N2    A    
O8    Zn1   S    
O7    Zn2   S    
C26   H6    S    
C7    O13   A    
C3    H26   S    
C27   H11   S    
C15   C17   A    
C16   C22   A    
C15   H23   S    
C28   O4    S    
C5    N2    A    
C10   C13   A    
O10   Zn1   S    
O13   Zn2   S    
C30   O6    S    
O9    Zn2   S    
C32   O3    S    
C30   H19   S    
C26   O2    S    
C21   C23   A    
C24   C31   A    
C22   O14   S    
C25   H3    S    
O12   Zn1   S    
C29   H17   S    
O11   Zn2   S    
C8    C11   S    
C1    O1    A    
C34   C36   A    
C24   O2    S    
C4    C5    A    
C16   C18   A    
C22   C23   A    
C34   O5    S    
C20   C31   A    
C29   O5    S    
C29   H16   S    
