data_mof_unit_11842.cif
_audit_creation_date              2013-03-05T16:32:18-0500
_audit_creation_method            fapswitch 2.2
_symmetry_space_group_name_H-M    P1
_symmetry_Int_Tables_number       1
_space_group_crystal_system       triclinic
_cell_length_a                    15.888596
_cell_length_b                    10.862043
_cell_length_c                    9.540754
_cell_angle_alpha                 90.007271
_cell_angle_beta                  90.033985
_cell_angle_gamma                 90.116098
_cell_volume                      1646.56457149

loop_
_atom_site_label
_atom_site_type_symbol
_atom_site_description
_atom_site_fract_x
_atom_site_fract_y
_atom_site_fract_z
_atom_type_partial_charge
O1    O     O_R   0.500000 0.319640 0.618810 -0.585920
O2    O     O_R   0.500010 0.319680 0.381230 -0.592100
C1    C     C_R   0.500205 0.262678 0.499845 0.801346
O3    O     O_R   0.379430 0.499990 0.618840 -0.569382
O4    O     O_R   0.379440 0.500030 0.381260 -0.576078
C2    C     C_R   0.340216 0.500054 0.499999 0.826390
Cu1   Cu    Cu3+1 0.500000 0.499980 0.640670 0.959793
Cu2   Cu    Cu3+1 0.500000 0.500020 0.359330 0.962171
O5    O     O_R   0.499990 0.680320 0.618770 -0.578618
O6    O     O_R   0.500000 0.680360 0.381190 -0.585383
O7    O     O_R   0.620560 0.499970 0.618740 -0.585157
O8    O     O_R   0.620570 0.500010 0.381160 -0.569905
C3    C     C_R   0.500428 0.737315 0.499844 0.820169
C4    C     C_R   0.659741 0.500292 0.499973 0.827884
C5    C     C_3   0.047603 0.427702 0.620691 -0.341269
C6    C     C_3   0.049371 0.451816 0.359409 -0.462633
C7    C     C_3   0.951721 0.446859 0.360881 0.143305
H1    H     H_    0.924397 0.338095 0.620243 0.200603
H2    H     H_    0.067591 0.330297 0.606616 0.186848
H3    H     H_    0.072172 0.507874 0.269468 0.223151
H4    H     H_    0.074574 0.357166 0.344232 0.184561
H5    H     H_    0.932344 0.348277 0.361764 0.147052
C8    C     C_1   0.749258 0.502596 0.499804 -0.112025
C9    C     C_3   0.082947 0.506946 0.498812 0.085038
C10   C     C_3   0.950305 0.433401 0.623083 -0.498668
C11   C     C_3   0.916915 0.509071 0.496559 0.067135
C12   C     C_3   0.951395 0.643682 0.513455 0.133341
C13   C     C_3   0.050343 0.642338 0.508284 0.127454
C14   C     C_1   0.824715 0.505412 0.498710 0.045277
C15   C     C_1   0.175137 0.503688 0.499385 -0.000557
C16   C     C_1   0.250616 0.501632 0.499788 -0.130816
H6    H     H_    0.073311 0.688786 0.411839 0.167370
H7    H     H_    0.931829 0.676361 0.619175 0.154972
H8    H     H_    0.073526 0.457654 0.723264 0.235335
H9    H     H_    0.929078 0.475472 0.723399 0.225838
C17   C     C_R   0.497833 0.061976 0.620956 0.136678
C18   C     C_R   0.501370 0.130068 0.498153 -0.100343
C19   C     C_R   0.506211 0.064564 0.370535 -0.200988
H10   H     H_    0.509547 0.112326 0.271027 0.167968
C20   C     C_R   0.506405 0.935406 0.370561 -0.190892
H11   H     H_    0.509890 0.887634 0.271065 0.166679
C21   C     C_R   0.501713 0.869916 0.498209 -0.095163
C22   C     C_R   0.498107 0.938026 0.621010 0.138251
C23   C     C_3   0.490507 0.929165 0.776327 -0.454556
C24   C     C_3   0.490131 0.070956 0.776227 -0.469075
H12   H     H_    0.429647 0.887761 0.809409 0.215082
H13   H     H_    0.547506 0.888907 0.825641 0.195707
H14   H     H_    0.428979 0.111175 0.809105 0.197842
H15   H     H_    0.546877 0.112563 0.825452 0.208183
C25   C     C_R   0.540672 0.590919 0.073704 0.227542
N1    N     N_R   0.500530 0.500930 0.147930 -0.185149
C26   C     C_R   0.453377 0.417339 0.074385 -0.059963
H16   H     H_    0.416948 0.348908 0.130204 0.139673
C27   C     C_R   0.453340 0.417367 0.925468 -0.058591
H17   H     H_    0.416803 0.349079 0.869577 0.137048
N2    N     N_R   0.500530 0.500890 0.852020 -0.183815
C28   C     C_R   0.540766 0.590797 0.926308 0.240955
C29   C     C_3   0.632428 0.620375 0.920771 -0.475232
C30   C     C_3   0.632230 0.621001 0.079829 -0.436299
H18   H     H_    0.670704 0.544352 0.876125 0.230203
H19   H     H_    0.644768 0.712495 0.874464 0.197686
H20   H     H_    0.670661 0.545632 0.125572 0.243650
H21   H     H_    0.643953 0.713674 0.125367 0.209009
N3    N     N_R   0.913356 0.729669 0.412008 0.156553
O9    O     O_R   0.836774 0.767969 0.432417 -0.343633
O10   O     O_R   0.956412 0.777775 0.309568 -0.299847
Br1   Br    Br    0.904716 0.512302 0.186861 -0.439207
N4    N     N_R   0.086600 0.709192 0.628066 0.125519
O11   O     O_R   0.066311 0.681379 0.756366 -0.345603
O12   O     O_R   0.137259 0.801429 0.605954 -0.332393

loop_
_geom_bond_atom_site_label_1
_geom_bond_atom_site_label_2
_geom_bond_distance
_ccdc_geom_bond_type
C4    C8    1.422463 S    
O4    Cu2   1.927047 S    
C19   C20   1.402925 A    
C22   C23   1.489938 S    
C6    H4    1.113541 S    
C24   H15   1.111541 S    
C17   C18   1.386739 A    
C5    H8    1.109998 S    
C3    C21   1.440506 S    
C7    H5    1.113615 S    
C23   H13   1.110820 S    
Cu2   O8    1.926853 S    
C15   C16   1.199514 T    
C6    H3    1.112640 S    
C17   C22   1.346370 A    
N3    O9    1.301467 A    
C29   H19   1.110980 S    
C20   C21   1.412406 A    
C25   N1    1.364520 A    
C28   C29   1.491732 S    
Cu1   Cu2   2.684196 S    
C6    C9    1.552346 S    
C10   C11   1.554172 S    
O1    Cu1   1.969906 S    
C26   H16   1.081600 S    
Cu1   O7    1.927044 S    
Cu2   N1    2.016963 S    
C11   C12   1.568624 S    
C18   C19   1.412362 A    
H1    C10   1.113595 S    
Cu1   N2    2.016474 S    
C10   H9    1.113321 S    
O3    Cu1   1.926856 S    
C25   C30   1.491435 S    
C8    C14   1.199282 T    
C13   H6    1.110940 S    
N4    O12   1.301199 A    
C5    C9    1.551602 S    
C13   N4    1.470554 S    
C26   C27   1.420779 A    
C2    C16   1.423755 S    
C9    C15   1.465284 S    
O4    C2    1.293292 A    
O7    C4    1.293204 A    
C27   N2    1.369053 A    
C7    Br1   1.954635 S    
O3    C2    1.293416 A    
C5    C10   1.547483 S    
C21   C22   1.386835 A    
C7    C11   1.562141 S    
C29   H18   1.111493 S    
N1    C26   1.369122 A    
O8    C4    1.292859 A    
C17   C24   1.489719 S    
C19   H10   1.083207 S    
N2    C28   1.364364 A    
C1    C18   1.440654 S    
C11   C14   1.465544 S    
Cu2   O6    1.969906 S    
C12   N3    1.475218 S    
C24   H14   1.111453 S    
O2    Cu2   1.969998 S    
C12   C13   1.573042 S    
Cu1   O5    1.969998 S    
O5    C3    1.292635 A    
C27   H17   1.081359 S    
C20   H11   1.083281 S    
C30   H20   1.111463 S    
O2    C1    1.290055 A    
C29   C30   1.517553 S    
C5    H2    1.113398 S    
C25   C28   1.406274 A    
C30   H21   1.111654 S    
N4    O11   1.301428 A    
C12   H7    1.113884 S    
C23   C24   1.540171 S    
C9    C13   1.562821 S    
C23   H12   1.111553 S    
C6    C7    1.552415 S    
O1    C1    1.292647 A    
O6    C3    1.289997 A    
N3    O10   1.302195 A    
