data_mof_unit_13193.cif
_audit_creation_date              2012-12-10T18:25:38-0500
_audit_creation_method            fapswitch 2.2
_symmetry_space_group_name_H-M    P1
_symmetry_Int_Tables_number       1
_space_group_crystal_system       triclinic
_cell_length_a                    14.963071
_cell_length_b                    13.988954
_cell_length_c                    19.209087
_cell_angle_alpha                 89.883994
_cell_angle_beta                  89.986207
_cell_angle_gamma                 90.156612
_cell_volume                      4020.77875503

loop_
_atom_site_label
_atom_site_type_symbol
_atom_type_description
_atom_site_fract_x
_atom_site_fract_y
_atom_site_fract_z
_atom_type_partial_charge
C1    C     C_R   0.326685 0.499745 0.498694 0.951354
C2    C     C_R   0.093884 0.566214 0.540173 0.098288
C3    C     C_R   0.955264 0.626541 0.586944 -0.324153
C4    C     C_R   0.043742 0.389197 0.399995 -0.320192
C5    C     C_R   0.048615 0.628936 0.585028 0.449264
C6    C     C_R   0.950333 0.389918 0.399803 0.448305
C7    C     C_R   0.535867 0.798406 0.444794 -0.048666
C8    C     C_R   0.464553 0.201659 0.555394 -0.071882
C9    C     C_R   0.464226 0.797879 0.555264 -0.047329
C10   C     C_R   0.536218 0.202128 0.444919 -0.065451
C11   C     C_R   0.463820 0.898563 0.556789 0.016214
C12   C     C_R   0.673154 0.500095 0.500705 0.939039
C13   C     C_R   0.536979 0.101487 0.443553 0.027035
C14   C     C_R   0.536632 0.899091 0.443447 0.017528
C15   C     C_R   0.464397 0.100989 0.557033 0.009265
C16   C     C_R   0.500382 0.949422 0.500181 0.086366
C17   C     C_R   0.500674 0.050653 0.500290 0.088702
C18   C     C_R   0.427906 0.949315 0.613274 -0.193843
C19   C     C_R   0.572956 0.050720 0.387102 -0.200330
C20   C     C_R   0.572760 0.950350 0.387064 -0.215455
C21   C     C_R   0.428295 0.049714 0.613458 -0.215028
C22   C     C_R   0.500689 0.499991 0.365428 0.938646
C23   C     C_R   0.814582 0.554538 0.550752 0.474165
C24   C     C_R   0.498951 0.499915 0.634469 0.908433
C25   C     C_R   0.507196 0.585171 0.252697 -0.299055
C26   C     C_R   0.482637 0.415117 0.745929 -0.276433
C27   C     C_R   0.528843 0.581317 0.745655 -0.303680
C28   C     C_R   0.508642 0.411761 0.254839 -0.303309
C29   C     C_R   0.515141 0.584299 0.180399 0.443564
C30   C     C_R   0.491799 0.411349 0.817700 0.460381
C31   C     C_R   0.534033 0.580584 0.818044 0.444635
C32   C     C_R   0.511226 0.409052 0.182252 0.450687
C33   C     C_R   0.515660 0.495979 0.145490 -0.111633
C34   C     C_R   0.184990 0.436611 0.452646 0.429962
C35   C     C_R   0.516229 0.494839 0.854366 -0.154160
C36   C     C_R   0.504868 0.499220 0.289887 -0.148894
C37   C     C_R   0.502312 0.499252 0.709832 -0.162908
C38   C     C_R   0.518444 0.493411 0.930173 0.325138
C39   C     C_R   0.517822 0.494318 0.070178 0.378453
C40   C     C_R   0.812608 0.445991 0.451542 -0.289589
C41   C     C_R   0.186432 0.563949 0.539415 -0.280612
C42   C     C_R   0.768516 0.500397 0.501178 -0.211132
C43   C     C_R   0.231031 0.499417 0.496870 -0.209459
C44   C     C_3   0.587710 0.726819 0.156917 0.100085
C45   C     C_R   0.907493 0.562356 0.545100 -0.023390
C46   C     C_3   0.557175 0.825809 0.180716 -0.342050
C47   C     C_3   0.636462 0.893430 0.190171 -0.979381
C48   C     C_3   0.551238 0.271997 0.859909 0.107923
C49   C     C_3   0.557481 0.196333 0.802503 -0.381936
C50   C     C_3   0.635044 0.127967 0.815351 -0.945708
C51   C     C_3   0.493690 0.733744 0.849123 0.096755
C52   C     C_3   0.532100 0.823222 0.814039 -0.338723
C53   C     C_3   0.464672 0.904885 0.813841 -0.971428
C54   C     C_3   0.453790 0.255501 0.165876 0.107795
C55   C     C_3   0.498268 0.168334 0.199443 -0.356934
C56   C     C_R   0.091822 0.443023 0.448883 -0.012149
C57   C     C_3   0.429139 0.094358 0.222468 -0.968875
C58   C     C_3   0.779813 0.552040 0.668013 0.045658
C59   C     C_3   0.740232 0.450420 0.669039 -0.367469
C60   C     C_3   0.738483 0.409168 0.742618 -0.934735
C61   C     C_3   0.232094 0.282955 0.436564 0.097347
C62   C     C_3   0.291036 0.219575 0.391058 -0.321168
C63   C     C_3   0.289868 0.115999 0.416185 -0.954531
C64   C     C_R   0.952997 0.504771 0.496129 -0.059347
C65   C     C_R   0.046218 0.504862 0.494936 -0.053826
C66   C     C_R   0.905194 0.446093 0.449068 0.097884
H1    H     H_    0.502966 0.653064 0.279479 0.171348
H2    H     H_    0.436251 0.241644 0.598196 0.130400
H3    H     H_    0.436059 0.757519 0.598147 0.135598
H4    H     H_    0.564202 0.242475 0.401966 0.133696
H5    H     H_    0.399406 0.911357 0.657192 0.149929
H6    H     H_    0.601342 0.088540 0.343060 0.147176
H7    H     H_    0.600956 0.912791 0.343063 0.153298
H8    H     H_    0.400199 0.087204 0.657609 0.144154
H9    H     H_    0.626006 0.734614 0.107644 0.178182
H10   H     H_    0.634874 0.696627 0.196313 0.118664
H11   H     H_    0.510929 0.856604 0.141380 0.242837
H12   H     H_    0.460825 0.351676 0.718437 0.169289
H13   H     H_    0.520679 0.819289 0.230902 0.211356
H14   H     H_    0.683485 0.864434 0.229602 0.264296
H15   H     H_    0.612402 0.964176 0.208182 0.267450
H16   H     H_    0.672313 0.903309 0.140020 0.274157
H17   H     H_    0.546852 0.235008 0.911042 0.181422
H18   H     H_    0.613734 0.315881 0.861505 0.119252
H19   H     H_    0.494131 0.154746 0.800479 0.236088
H20   H     H_    0.567527 0.231664 0.751289 0.215736
H21   H     H_    0.699179 0.168045 0.817448 0.267416
H22   H     H_    0.638626 0.075274 0.772289 0.270643
H23   H     H_    0.546132 0.645939 0.717587 0.180897
H24   H     H_    0.625117 0.088653 0.865071 0.269664
H25   H     H_    0.473699 0.752111 0.903178 0.175338
H26   H     H_    0.431363 0.711274 0.821436 0.121925
H27   H     H_    0.593293 0.846620 0.842120 0.239739
H28   H     H_    0.550764 0.806527 0.759448 0.215000
H29   H     H_    0.401958 0.882467 0.787539 0.261552
H30   H     H_    0.493032 0.967059 0.785345 0.273389
H31   H     H_    0.449228 0.927073 0.868004 0.272312
H32   H     H_    0.419323 0.231809 0.117651 0.171390
H33   H     H_    0.400442 0.284287 0.200614 0.124248
H34   H     H_    0.509855 0.345484 0.283876 0.166898
H35   H     H_    0.544628 0.134944 0.161425 0.236124
H36   H     H_    0.537914 0.190854 0.245422 0.211523
H37   H     H_    0.382737 0.126030 0.261111 0.268516
H38   H     H_    0.463309 0.032548 0.247027 0.272265
H39   H     H_    0.390351 0.068395 0.176951 0.270877
H40   H     H_    0.745481 0.595168 0.708448 0.190940
H41   H     H_    0.851366 0.549263 0.683315 0.139889
H42   H     H_    0.671421 0.451707 0.648218 0.237211
H43   H     H_    0.780920 0.402579 0.635608 0.212813
H44   H     H_    0.807278 0.405620 0.764142 0.266532
H45   H     H_    0.773938 0.403967 0.414849 0.218473
H46   H     H_    0.710037 0.335839 0.741358 0.265804
H47   H     H_    0.696377 0.453937 0.777144 0.266852
H48   H     H_    0.163426 0.252328 0.437503 0.131543
H49   H     H_    0.258868 0.282101 0.490693 0.152218
H50   H     H_    0.266792 0.222206 0.336391 0.218437
H51   H     H_    0.360712 0.247146 0.392061 0.240282
H52   H     H_    0.309241 0.111873 0.471852 0.272238
H53   H     H_    0.337863 0.073175 0.385172 0.272312
H54   H     H_    0.221983 0.084910 0.409833 0.268340
H55   H     H_    0.054553 0.729223 0.655242 0.333025
H56   H     H_    0.224680 0.610762 0.573188 0.218478
H57   H     H_    0.944146 0.300478 0.322206 0.333734
H58   H     H_    0.920158 0.674877 0.621345 0.174114
H59   H     H_    0.078475 0.346135 0.361877 0.176556
H60   H     H_    0.563934 0.758462 0.401862 0.129836
N1    N     N_R   0.459280 0.438727 0.034915 -0.151794
N2    N     N_R   0.577376 0.548628 0.965624 -0.124811
N3    N     N_R   0.459457 0.438522 0.965942 -0.127792
N4    N     N_R   0.576976 0.549248 0.034686 -0.160772
N5    N     N_R   0.500000 0.750030 0.500000 -0.102237
N6    N     N_R   0.500000 0.249970 0.500000 -0.103767
O1    O     O_R   0.367850 0.580280 0.500020 -0.621120
O2    O     O_3   0.472351 0.326642 0.851891 -0.628435
O3    O     O_3   0.560554 0.662318 0.853162 -0.628402
O4    O     O_3   0.520010 0.323221 0.146407 -0.635932
O5    O     O_3   0.767023 0.599717 0.603346 -0.641116
O6    O     O_3   0.232085 0.376625 0.408548 -0.641952
O7    O     O_3   0.096624 0.690746 0.626983 -0.784536
O8    O     O_3   0.902165 0.335703 0.352713 -0.780570
O9    O     O_R   0.632150 0.419720 0.499980 -0.631900
O10   O     O_R   0.632150 0.580280 0.499980 -0.578568
O11   O     O_R   0.367850 0.419720 0.500020 -0.611322
O12   O     O_R   0.499990 0.580300 0.398140 -0.635923
O13   O     O_R   0.500010 0.419700 0.601860 -0.640664
O14   O     O_R   0.500010 0.580300 0.601860 -0.622060
O15   O     O_R   0.499990 0.419700 0.398140 -0.633363
O16   O     O_3   0.511860 0.669025 0.142902 -0.632897
Zn1   Zn    Zn3+2 0.500000 0.607200 0.500000 0.971286
Zn2   Zn    Zn3+2 0.500000 0.392800 0.500000 0.940946

loop_
_geom_bond_atom_site_label_1
_geom_bond_atom_site_label_2
_ccdc_geom_bond_type
C57   H39   S    
C11   C18   A    
C34   C56   A    
C23   C45   A    
C53   H29   S    
C18   C21   A    
N6    Zn2   S    
C19   C20   A    
C25   H1    S    
C2    C65   A    
C29   O16   S    
C19   H6    S    
C52   C53   S    
C55   H36   S    
C26   H12   S    
C23   C42   A    
C4    H59   S    
C1    O11   A    
O10   Zn1   S    
C48   O2    S    
C9    H3    S    
C24   O13   A    
C46   H13   S    
C61   O6    S    
C2    C41   A    
C56   C65   A    
C29   C33   A    
C12   O9    A    
C58   H41   S    
C47   H16   S    
C44   H10   S    
C62   H51   S    
C12   C42   S    
C51   H25   S    
C46   C47   S    
C51   O3    S    
C1    C43   S    
C7    C14   A    
C16   C17   A    
C30   O2    S    
C50   H24   S    
C8    N6    A    
C52   H28   S    
C7    N5    A    
O13   Zn2   S    
C50   H22   S    
C28   H34   S    
C40   C42   A    
C59   C60   S    
C40   C66   A    
C4    C56   A    
C53   H30   S    
C41   C43   A    
C60   H47   S    
C47   H14   S    
C1    O1    A    
C44   C46   S    
O9    Zn2   S    
C5    O7    S    
C40   H45   S    
C9    N5    A    
C25   C29   A    
C57   H37   S    
C39   N1    A    
C13   C19   A    
C27   C31   A    
C51   C52   S    
C38   N3    A    
C49   H19   S    
C28   C32   A    
C35   C38   S    
O1    Zn1   S    
C4    C6    A    
C32   O4    S    
C63   H52   S    
C61   H49   S    
C53   H31   S    
C58   C59   S    
H57   O8    S    
C3    C45   A    
C48   H18   S    
C58   H40   S    
C64   C66   A    
C41   H56   S    
C44   H9    S    
N1    N3    A    
C62   H50   S    
C62   C63   S    
C60   H46   S    
C14   C20   A    
C51   H26   S    
O11   Zn2   S    
O14   Zn1   S    
C63   H53   S    
C11   C16   A    
C59   H43   S    
C6    C66   A    
C54   O4    S    
O15   Zn2   S    
C24   C37   S    
C52   H27   S    
C33   C39   S    
C9    C11   A    
C50   H21   S    
C10   H4    S    
C58   O5    S    
C31   O3    S    
C48   C49   S    
C8    H2    S    
C8    C15   A    
C55   C57   S    
C31   C35   A    
C54   H33   S    
N5    Zn1   S    
C2    C5    A    
C30   C35   A    
C3    H58   S    
C18   H5    S    
C15   C17   A    
C57   H38   S    
C54   C55   S    
O12   Zn1   S    
C49   H20   S    
C23   O5    S    
C34   C43   A    
C3    C5    A    
C10   C13   A    
N2    N4    A    
C46   H11   S    
C38   N2    A    
C26   C37   A    
C26   C30   A    
C39   N4    A    
C22   C36   S    
C55   H35   S    
C45   C64   A    
C59   H42   S    
C48   H17   S    
C13   C17   A    
C64   C65   A    
H55   O7    S    
C24   O14   A    
C32   C33   A    
C63   H54   S    
C34   O6    S    
C27   C37   A    
C21   H8    S    
C44   O16   S    
C12   O10   A    
C20   H7    S    
C27   H23   S    
C14   C16   A    
C47   H15   S    
C7    H60   S    
C6    O8    S    
C61   C62   S    
C10   N6    A    
C60   H44   S    
C25   C36   A    
C15   C21   A    
C22   O15   A    
C28   C36   A    
C49   C50   S    
C22   O12   A    
C61   H48   S    
C54   H32   S    
