data_mof_unit_30166.cif
_audit_creation_date              2012-12-10T16:50:08-0500
_audit_creation_method            fapswitch 2.2
_symmetry_space_group_name_H-M    P1
_symmetry_Int_Tables_number       1
_space_group_crystal_system       triclinic
_cell_length_a                    7.825957
_cell_length_b                    8.544963
_cell_length_c                    10.679733
_cell_angle_alpha                 93.29432
_cell_angle_beta                  83.399098
_cell_angle_gamma                 93.880831
_cell_volume                      706.92948373

loop_
_atom_site_label
_atom_site_type_symbol
_atom_type_description
_atom_site_fract_x
_atom_site_fract_y
_atom_site_fract_z
_atom_type_partial_charge
C1    C     C_R   0.545523 0.791874 0.480998 0.942471
C2    C     C_R   0.608782 0.633696 0.933504 0.060352
C3    C     C_R   0.494150 0.527520 0.873784 -0.091255
C4    C     C_R   0.381325 0.422112 0.941670 -0.174187
C5    C     C_R   0.385488 0.416860 0.069121 -0.188198
C6    C     C_R   0.511595 0.507728 0.127043 -0.079326
C7    C     C_2   0.569713 0.952430 0.453172 0.005693
C8    C     C_2   0.433575 0.040575 0.485195 -0.395107
C9    C     C_R   0.499773 0.511858 0.739877 0.914941
C10   C     C_R   0.455303 0.205191 0.493578 0.994161
C11   C     C_R   0.503059 0.501829 0.260096 0.850585
C12   C     C_R   0.690216 0.768875 0.876928 0.087226
C13   C     C_R   0.831564 0.846998 0.926523 -0.137430
C14   C     C_R   0.877031 0.805622 0.041366 -0.134416
C15   C     C_R   0.772748 0.695479 0.111013 -0.168972
C16   C     C_R   0.633709 0.609835 0.058581 0.075281
H1    H     H_    0.291273 0.342662 0.895583 0.168427
H2    H     H_    0.895934 0.949258 0.882417 0.168334
H3    H     H_    0.983616 0.869230 0.081794 0.174616
H4    H     H_    0.804305 0.681631 0.204930 0.191855
H5    H     H_    0.293962 0.337726 0.122192 0.161729
H6    H     H_    0.306665 0.991921 0.521433 0.173800
H7    H     H_    0.008254 0.364089 0.418413 0.201370
N1    N     N_2   0.950330 0.457950 0.466250 -0.122092
N2    N     N_2   0.049670 0.542050 0.533750 -0.050027
O1    O     O_R   0.389250 0.738570 0.508280 -0.626189
O2    O     O_R   0.678390 0.711630 0.486650 -0.627026
O3    O     O_R   0.355400 0.513470 0.694050 -0.602603
O4    O     O_R   0.644540 0.486530 0.672420 -0.614397
O5    O     O_R   0.321610 0.288370 0.513350 -0.627750
O6    O     O_R   0.610750 0.261430 0.491720 -0.563885
O7    O     O_R   0.355460 0.513470 0.327580 -0.625450
O8    O     O_R   0.644600 0.486530 0.305950 -0.630356
Zn1   Zn    Zn3+2 0.306930 0.517990 0.514440 0.968324
Zn2   Zn    Zn3+2 0.693070 0.482010 0.485560 0.980208
C17   C     C_3   0.993652 0.691475 0.586022 -0.440675
H8    H     H_    0.089632 0.744094 0.647387 0.186978
H9    H     H_    0.988054 0.772419 0.509312 0.209167
H10   H     H_    0.870883 0.678912 0.646683 0.224014
I1    I     I_    0.549562 0.912600 0.778590 -0.423912
I2    I     I_    0.818196 0.023765 0.358120 -0.416278

loop_
_geom_bond_atom_site_label_1
_geom_bond_atom_site_label_2
_ccdc_geom_bond_type
C12   I1    S    
C8    H6    S    
H7    N1    S    
C3    C9    S    
C2    C16   A    
O4    Zn2   S    
C9    O4    A    
N2    Zn1   S    
C2    C12   A    
C17   H9    S    
C2    C3    A    
O3    Zn1   S    
C7    C8    D    
C13   C14   A    
N1    N2    D    
C15   H4    S    
C13   H2    S    
C5    C6    A    
C4    H1    S    
C14   H3    S    
C17   H8    S    
O8    Zn2   S    
C11   O7    A    
C7    I2    S    
C1    O1    A    
O6    Zn2   S    
N1    Zn2   S    
O5    Zn1   S    
N2    C17   S    
C6    C16   A    
C3    C4    A    
C11   O8    A    
C5    H5    S    
C12   C13   A    
C8    C10   S    
C6    C11   S    
C1    O2    A    
C10   O5    A    
C14   C15   A    
O2    Zn2   S    
C1    C7    S    
C10   O6    A    
O1    Zn1   S    
C17   H10   S    
C15   C16   A    
C9    O3    A    
C4    C5    A    
O7    Zn1   S    
