data_mof_unit_37614.cif
_audit_creation_date              2012-12-10T16:51:29-0500
_audit_creation_method            fapswitch 2.2
_symmetry_space_group_name_H-M    P1
_symmetry_Int_Tables_number       1
_space_group_crystal_system       triclinic
_cell_length_a                    7.818607
_cell_length_b                    8.576819
_cell_length_c                    12.627845
_cell_angle_alpha                 92.542085
_cell_angle_beta                  102.795936
_cell_angle_gamma                 93.903427
_cell_volume                      822.323256627

loop_
_atom_site_label
_atom_site_type_symbol
_atom_type_description
_atom_site_fract_x
_atom_site_fract_y
_atom_site_fract_z
_atom_type_partial_charge
C1    C     C_R   0.044347 0.794560 0.497275 0.976593
C2    C     C_R   0.416114 0.563943 0.983259 0.023030
C3    C     C_R   0.364684 0.571073 0.870148 -0.131036
C4    C     C_R   0.583455 0.509675 0.025889 0.092104
C5    C     C_R   0.687208 0.454492 0.954704 0.062207
C6    C     C_R   0.641081 0.483460 0.845589 -0.245413
C7    C     C_R   0.494018 0.562941 0.809355 0.692701
C8    C     C_R   0.654846 0.516266 0.136258 -0.226329
C9    C     C_R   0.915068 0.397633 0.106992 -0.207423
C10   C     C_R   0.187518 0.589739 0.821267 -0.234366
C11   C     C_2   0.067592 0.958146 0.495914 -0.362083
C12   C     C_R   0.114476 0.534308 0.706714 0.922626
C13   C     C_2   0.932679 0.041897 0.504604 -0.359387
C14   C     C_R   0.955754 0.205468 0.502915 0.956635
C15   C     C_R   0.888722 0.484404 0.292087 0.860038
C16   C     C_R   0.847061 0.390707 0.995545 -0.132525
C17   C     C_R   0.821121 0.466281 0.176370 -0.058263
C18   C     C_R   0.081529 0.655188 0.884927 0.615515
C19   C     C_R   0.139629 0.669987 0.997608 -0.208723
C20   C     C_R   0.299850 0.614738 0.047150 -0.264704
H1    H     H_    0.042317 0.354421 0.138477 0.161502
H2    H     H_    0.805330 0.990922 0.512834 0.187344
H3    H     H_    0.471372 0.360955 0.431665 0.183758
H4    H     H_    0.529338 0.648148 0.555849 0.266244
H5    H     H_    0.728666 0.461671 0.792193 0.209602
H6    H     H_    0.924457 0.345569 0.941399 0.141249
H7    H     H_    0.586938 0.568614 0.192353 0.157340
H8    H     H_    0.328794 0.615992 0.134650 0.159714
H9    H     H_    0.056200 0.717082 0.047069 0.177020
H10   H     H_    0.194964 0.009116 0.487729 0.180812
N1    N     N_2   0.434800 0.456690 0.470850 -0.184049
N2    N     N_2   0.565200 0.543310 0.529150 -0.146840
O1    O     O_R   0.893060 0.738880 0.507150 -0.609365
O2    O     O_R   0.172250 0.711130 0.488470 -0.618612
O3    O     O_R   0.944700 0.520730 0.667600 -0.579626
O4    O     O_R   0.223890 0.492980 0.648920 -0.580825
O5    O     O_R   0.827750 0.288870 0.511530 -0.633096
O6    O     O_R   0.106940 0.261120 0.492850 -0.617153
O7    O     O_R   0.776110 0.507020 0.351080 -0.640352
O8    O     O_R   0.055300 0.479270 0.332400 -0.629166
Zn1   Zn    Zn3+2 0.813580 0.518530 0.512470 0.983792
Zn2   Zn    Zn3+2 0.186420 0.481470 0.487530 0.972596
F1    F     F_    0.925146 0.709006 0.838258 -0.652780
F2    F     F_    0.491952 0.656729 0.726254 -0.660308

loop_
_geom_bond_atom_site_label_1
_geom_bond_atom_site_label_2
_ccdc_geom_bond_type
C13   H2    S    
C2    C4    A    
N2    Zn1   S    
H4    N2    S    
C6    C7    A    
N1    Zn2   S    
C13   C14   S    
C14   O6    A    
C15   O7    A    
O4    Zn2   S    
C8    C17   A    
O2    Zn2   S    
C4    C8    A    
O1    Zn1   S    
O8    Zn2   S    
C2    C3    A    
C1    O1    A    
O7    Zn1   S    
C3    C10   A    
C7    F2    S    
C14   O5    A    
O5    Zn1   S    
C11   C13   D    
C9    H1    S    
C10   C12   S    
C10   C18   A    
C9    C17   A    
C9    C16   A    
C1    O2    A    
O6    Zn2   S    
C3    C7    A    
C16   H6    S    
C5    C6    A    
O3    Zn1   S    
C15   O8    A    
C6    H5    S    
C12   O4    A    
C2    C20   A    
C19   H9    S    
C18   C19   A    
C15   C17   S    
C8    H7    S    
C5    C16   A    
C1    C11   S    
C20   H8    S    
C18   F1    S    
N1    N2    D    
C19   C20   A    
C11   H10   S    
C4    C5    A    
C12   O3    A    
H3    N1    S    
