data_mof_unit_38820.cif
_audit_creation_date              2012-12-10T17:35:51-0500
_audit_creation_method            fapswitch 2.2
_symmetry_space_group_name_H-M    P1
_symmetry_Int_Tables_number       1
_space_group_crystal_system       triclinic
_cell_length_a                    10.504523
_cell_length_b                    12.20173
_cell_length_c                    12.659956
_cell_angle_alpha                 98.057725
_cell_angle_beta                  88.8031
_cell_angle_gamma                 87.816029
_cell_volume                      1604.91764618

loop_
_atom_site_label
_atom_site_type_symbol
_atom_type_description
_atom_site_fract_x
_atom_site_fract_y
_atom_site_fract_z
_atom_type_partial_charge
C1    C     C_R   0.491739 0.525011 0.701630 0.912819
C2    C     C_R   0.563131 0.176906 0.612294 0.024682
C3    C     C_R   0.508209 0.872088 0.564263 0.266336
C4    C     C_R   0.492098 0.128009 0.435711 0.252594
C5    C     C_R   0.517996 0.984565 0.548818 0.040154
C6    C     C_R   0.481517 0.015707 0.451306 0.045307
C7    C     C_R   0.741779 0.500731 0.496272 0.886777
C8    C     C_R   0.258161 0.499194 0.503738 0.932972
C9    C     C_3   0.951192 0.500642 0.598383 0.067477
C10   C     C_3   0.048617 0.498570 0.399881 0.064303
C11   C     C_3   0.035045 0.589273 0.561989 0.601391
C12   C     C_R   0.517406 0.475533 0.299655 0.845941
C13   C     C_3   0.964836 0.409961 0.436640 0.593485
C14   C     C_3   0.122661 0.496305 0.503159 -0.206052
C15   C     C_3   0.877245 0.503100 0.495336 -0.203356
C16   C     C_3   0.039535 0.406048 0.539790 -0.351235
C17   C     C_3   0.960549 0.593357 0.458709 -0.372385
C18   C     C_R   0.552627 0.457255 0.186368 -0.176194
C19   C     C_R   0.484709 0.542185 0.817677 -0.188499
C20   C     C_R   0.539448 0.648500 0.984863 0.215879
C21   C     C_R   0.517139 0.347648 0.016668 0.188286
C22   C     C_R   0.518792 0.641257 0.875875 -0.333281
C23   C     C_R   0.457313 0.451733 0.870280 0.478211
C24   C     C_R   0.528003 0.356229 0.126493 -0.283504
C25   C     C_3   0.996617 0.763467 0.656782 -0.333041
C26   C     C_3   0.003999 0.234833 0.344377 -0.339309
C27   C     C_3   0.880327 0.501247 0.705613 -0.381891
C28   C     C_3   0.971615 0.497189 0.796296 -0.858437
C29   C     C_3   0.119622 0.495951 0.292202 -0.415516
C30   C     C_3   0.030795 0.486524 0.198128 -0.804894
C31   C     C_3   0.727670 0.637714 0.255947 -0.293688
C32   C     C_3   0.264309 0.373916 0.870487 -0.354856
C33   C     C_3   0.559356 0.762571 0.046744 -0.352012
C34   C     C_R   0.588942 0.546667 0.133307 0.467181
C35   C     C_3   0.444692 0.842193 0.040175 -0.937864
C36   C     C_3   0.517855 0.232101 0.952488 -0.351631
C37   C     C_3   0.631742 0.158771 0.977361 -0.919771
C38   C     C_3   0.485008 0.154900 0.323711 -0.361019
C39   C     C_3   0.349091 0.189470 0.297317 -0.887249
C40   C     C_3   0.522541 0.844808 0.675762 -0.350628
C41   C     C_3   0.661210 0.812967 0.696417 -0.904987
C42   C     C_R   0.504463 0.448132 0.972186 -0.107617
C43   C     C_R   0.541826 0.549081 0.031643 -0.048134
C44   C     C_R   0.435603 0.933951 0.372313 -0.340972
C45   C     C_R   0.564695 0.066355 0.627563 -0.352662
C46   C     C_R   0.436522 0.823365 0.387781 -0.048419
H1    H     H_    0.077307 0.332179 0.572966 0.175395
H2    H     H_    0.956378 0.795176 0.585859 0.163079
H3    H     H_    0.042725 0.833467 0.704643 0.192721
H4    H     H_    0.038126 0.201111 0.416338 0.167108
H5    H     H_    0.084783 0.262131 0.298188 0.171620
H6    H     H_    0.960012 0.166302 0.292659 0.192350
H7    H     H_    0.026099 0.416822 0.783299 0.248133
H8    H     H_    0.037702 0.566447 0.800402 0.283549
H9    H     H_    0.917034 0.503637 0.873149 0.259023
H10   H     H_    0.816280 0.576286 0.722797 0.187116
H11   H     H_    0.820094 0.427878 0.700573 0.214876
H12   H     H_    0.923791 0.668047 0.426526 0.161787
H13   H     H_    0.963832 0.418867 0.201426 0.294211
H14   H     H_    0.976749 0.565895 0.197579 0.271406
H15   H     H_    0.088049 0.468746 0.122486 0.230228
H16   H     H_    0.173652 0.572646 0.293607 0.217351
H17   H     H_    0.189754 0.424695 0.280671 0.186835
H18   H     H_    0.748753 0.568451 0.301342 0.195774
H19   H     H_    0.649776 0.695807 0.291471 0.188567
H20   H     H_    0.813136 0.688326 0.258208 0.164918
H21   H     H_    0.204184 0.312607 0.824353 0.193804
H22   H     H_    0.269284 0.352056 0.952632 0.160852
H23   H     H_    0.515542 0.284293 0.164637 0.188572
H24   H     H_    0.217952 0.457787 0.873155 0.175418
H25   H     H_    0.431346 0.858854 0.957058 0.265484
H26   H     H_    0.356868 0.807086 0.069651 0.265243
H27   H     H_    0.460432 0.922348 0.090668 0.250928
H28   H     H_    0.573047 0.759810 0.132635 0.226142
H29   H     H_    0.645756 0.797418 0.014380 0.208972
H30   H     H_    0.722116 0.201091 0.967388 0.272875
H31   H     H_    0.623821 0.138064 0.059796 0.259699
H32   H     H_    0.634645 0.079812 0.921538 0.247598
H33   H     H_    0.428267 0.191604 0.969719 0.200362
H34   H     H_    0.528950 0.713039 0.837014 0.197306
H35   H     H_    0.526077 0.234621 0.865736 0.249823
H36   H     H_    0.281132 0.127263 0.316699 0.239648
H37   H     H_    0.319165 0.270270 0.343231 0.291184
H38   H     H_    0.342142 0.195141 0.210961 0.230580
H39   H     H_    0.559005 0.212872 0.311155 0.230246
H40   H     H_    0.518316 0.083396 0.264364 0.161142
H41   H     H_    0.685721 0.726831 0.660512 0.291021
H42   H     H_    0.727104 0.868643 0.662262 0.243927
H43   H     H_    0.677713 0.821438 0.783390 0.231288
H44   H     H_    0.490598 0.915779 0.736171 0.162877
H45   H     H_    0.596213 0.237816 0.674806 0.157014
H46   H     H_    0.451071 0.786583 0.693135 0.230677
H47   H     H_    0.404133 0.762509 0.324842 0.155315
H48   H     H_    0.398304 0.953163 0.297937 0.171015
H49   H     H_    0.603656 0.047396 0.701452 0.169245
H50   H     H_    0.920262 0.736543 0.707830 0.173176
N1    N     N_R   0.523490 0.207800 0.519350 -0.111973
N2    N     N_R   0.476510 0.792200 0.480650 -0.110712
O1    O     O_R   0.506270 0.421700 0.658830 -0.584451
O2    O     O_3   0.911324 0.321036 0.371186 -0.599154
O3    O     O_3   0.705759 0.596520 0.149239 -0.632308
O4    O     O_3   0.385574 0.367871 0.819776 -0.609613
O5    O     O_R   0.493730 0.578300 0.341170 -0.654374
O6    O     O_R   0.491200 0.609310 0.646410 -0.631507
O7    O     O_R   0.508800 0.390690 0.353590 -0.616268
O8    O     O_R   0.693580 0.406210 0.506230 -0.587342
O9    O     O_R   0.306420 0.593790 0.493770 -0.578597
O10   O     O_R   0.678510 0.593830 0.493810 -0.648399
O11   O     O_R   0.321490 0.406170 0.506190 -0.623928
O12   O     O_3   0.089197 0.677727 0.627641 -0.597023
Zn1   Zn    Zn3+2 0.510060 0.374730 0.508290 0.965956
Zn2   Zn    Zn3+2 0.489940 0.625270 0.491710 0.927518

loop_
_geom_bond_atom_site_label_1
_geom_bond_atom_site_label_2
_ccdc_geom_bond_type
C31   H20   S    
C41   H43   S    
C29   H17   S    
O9    Zn2   S    
C3    N2    A    
C1    O1    A    
C21   C36   S    
C23   C42   A    
C38   H40   S    
C18   C24   A    
C5    C6    A    
C31   O3    S    
C36   C37   S    
C9    C16   S    
C39   H38   S    
O11   Zn1   S    
C38   C39   S    
N1    Zn1   S    
C11   C14   S    
C23   O4    S    
C10   C17   S    
C15   C17   S    
C33   H29   S    
C35   H27   S    
C2    N1    A    
C30   H14   S    
C17   H12   S    
C32   H22   S    
C7    C15   S    
C46   N2    A    
C35   H25   S    
C6    C44   A    
C4    N1    A    
C11   O12   S    
C16   H1    S    
C28   H9    S    
C44   C46   A    
C24   H23   S    
O8    Zn1   S    
C2    C45   A    
C41   H41   S    
C1    C19   S    
C34   O3    S    
N2    Zn2   S    
C30   H15   S    
C38   H39   S    
C19   C22   A    
C12   O5    A    
C4    C6    A    
C10   C14   S    
O6    Zn2   S    
C28   H8    S    
C27   H10   S    
C32   H24   S    
C5    C45   A    
C10   C13   S    
O10   Zn2   S    
O5    Zn2   S    
C19   C23   A    
C29   C30   S    
C26   H6    S    
C9    C11   S    
C1    O6    A    
C36   H35   S    
O1    Zn1   S    
C30   H13   S    
C7    O8    A    
C40   H46   S    
C18   C34   A    
C25   H2    S    
C25   O12   S    
C32   H21   S    
C20   C33   S    
C40   C41   S    
C37   H30   S    
C4    C38   S    
C3    C40   S    
C13   C15   S    
C27   H11   S    
C32   O4    S    
C13   C16   S    
C42   C43   A    
C45   H49   S    
C8    O9    A    
C20   C43   A    
C9    C27   S    
C31   H19   S    
C41   H42   S    
C29   H16   S    
C11   C17   S    
C8    C14   S    
C31   H18   S    
C34   C43   A    
C39   H36   S    
C20   C22   A    
C3    C5    A    
C36   H33   S    
C35   H26   S    
C28   H7    S    
C37   H32   S    
C13   O2    S    
C26   H4    S    
C9    C15   S    
C22   H34   S    
C26   H5    S    
C10   C29   S    
C12   O7    A    
C46   H47   S    
C37   H31   S    
C33   C35   S    
C14   C16   S    
O7    Zn1   S    
C2    H45   S    
C25   H3    S    
C44   H48   S    
C39   H37   S    
C21   C42   A    
C33   H28   S    
C25   H50   S    
C21   C24   A    
C12   C18   S    
C27   C28   S    
C7    O10   A    
C40   H44   S    
C8    O11   A    
C26   O2    S    
