data_mof_unit_12868.cif
_audit_creation_date              2013-03-05T15:45:56-0500
_audit_creation_method            fapswitch 2.2
_symmetry_space_group_name_H-M    P1
_symmetry_Int_Tables_number       1
_space_group_crystal_system       triclinic
_cell_length_a                    20.588902
_cell_length_b                    7.250444
_cell_length_c                    20.399838
_cell_angle_alpha                 90.001478
_cell_angle_beta                  101.211109
_cell_angle_gamma                 89.999973
_cell_volume                      2987.14964658

loop_
_atom_site_label
_atom_site_type_symbol
_atom_site_description
_atom_site_fract_x
_atom_site_fract_y
_atom_site_fract_z
_atom_type_partial_charge
O1    O     O_R   0.673670 0.377510 0.185950 -0.562961
O2    O     O_R   0.326330 0.622490 0.814050 -0.560616
O3    O     O_R   0.826330 0.877510 0.314050 -0.562909
O4    O     O_R   0.173670 0.122490 0.685950 -0.560749
O5    O     O_R   0.806260 0.705340 0.185590 -0.592877
O6    O     O_R   0.193740 0.294660 0.814410 -0.590289
O7    O     O_R   0.693740 0.205340 0.314410 -0.592772
O8    O     O_R   0.306260 0.794660 0.685590 -0.590181
C1    C     C_R   0.825636 0.538564 0.170746 0.984638
C2    C     C_R   0.174371 0.461438 0.829261 0.973822
C3    C     C_R   0.674364 0.038568 0.329254 0.984579
C4    C     C_R   0.325629 0.961434 0.670739 0.973871
O9    O     O_R   0.672940 0.707120 0.178050 -0.580935
O10   O     O_R   0.327060 0.292880 0.821950 -0.574874
O11   O     O_R   0.827060 0.207120 0.321950 -0.580763
O12   O     O_R   0.172940 0.792880 0.678050 -0.574688
O13   O     O_R   0.692060 0.879040 0.306460 -0.579280
O14   O     O_R   0.307940 0.120960 0.693540 -0.584751
O15   O     O_R   0.807940 0.379040 0.193540 -0.579195
O16   O     O_R   0.192060 0.620960 0.806460 -0.584568
C5    C     C_R   0.649491 0.539254 0.160316 0.991698
C6    C     C_R   0.350238 0.461113 0.839837 0.971689
C7    C     C_R   0.850514 0.039258 0.339672 0.991661
C8    C     C_R   0.149743 0.961104 0.660182 0.971631
O17   O     O_3   0.756430 0.544390 0.292140 -0.262332
O18   O     O_3   0.243570 0.455610 0.707860 -0.256898
O19   O     O_3   0.743570 0.044390 0.207860 -0.262506
O20   O     O_3   0.256430 0.955610 0.792140 -0.257005
V1    V     V_3+5 0.748810 0.818610 0.242180 1.264277
V2    V     V_3+5 0.251190 0.181390 0.757820 1.265252
V3    V     V_3+5 0.751190 0.318610 0.257820 1.264454
V4    V     V_3+5 0.248810 0.681390 0.742180 1.265481
C9    C     C_R   0.088832 0.965068 0.607069 -0.307839
C10   C     C_R   0.910445 0.038846 0.394325 -0.326173
C11   C     C_R   0.411152 0.465128 0.892939 -0.307779
C12   C     C_R   0.589571 0.538858 0.105642 -0.326377
C13   C     C_R   0.011384 0.201308 0.446032 0.434304
C14   C     C_R   0.981454 0.825306 0.562257 0.446104
C15   C     C_R   0.488642 0.701394 0.053911 0.434548
C16   C     C_R   0.518702 0.326016 0.937549 0.446133
C17   C     C_R   0.956466 0.180530 0.394507 -0.226503
C18   C     C_R   0.038304 0.840685 0.612071 -0.233032
C19   C     C_R   0.543566 0.680632 0.105438 -0.226792
C20   C     C_R   0.461818 0.341362 0.887759 -0.233536
C21   C     C_R   0.919460 0.913262 0.448360 0.350017
C22   C     C_R   0.081941 0.081345 0.550613 0.351638
C23   C     C_R   0.580568 0.413322 0.051578 0.350290
C24   C     C_R   0.417943 0.580846 0.949542 0.352053
C25   C     C_R   0.974056 0.935656 0.503490 -0.153191
C26   C     C_R   0.022926 0.074299 0.500143 -0.159667
C27   C     C_R   0.525996 0.435850 0.996434 -0.153168
C28   C     C_R   0.477061 0.574181 0.999873 -0.159653
H1    H     H_    0.042733 0.754632 0.656201 0.165207
H2    H     H_    0.948777 0.281016 0.354370 0.180366
H3    H     H_    0.457470 0.255821 0.843507 0.165172
H4    H     H_    0.551294 0.781221 0.145542 0.180638
C29   C     C_3   0.560738 0.036597 0.535352 -0.116859
C30   C     C_3   0.439272 0.963402 0.464659 -0.117732
C31   C     C_3   0.941135 0.558710 0.966039 -0.120518
C32   C     C_3   0.058857 0.441288 0.033952 -0.121224
C33   C     C_3   0.518525 0.865007 0.544792 -0.152464
C34   C     C_3   0.481485 0.134991 0.455219 -0.153050
C35   C     C_3   0.977253 0.381125 0.950373 -0.150157
C36   C     C_3   0.022740 0.618873 0.049617 -0.150645
H5    H     H_    0.533541 0.753412 0.581905 0.137355
H6    H     H_    0.466468 0.246587 0.418107 0.137086
H7    H     H_    0.958743 0.282851 0.909251 0.140292
H8    H     H_    0.041250 0.717149 0.090740 0.139965
H9    H     H_    0.611058 0.066862 0.564291 0.152047
H10   H     H_    0.388951 0.933138 0.435721 0.151983
H11   H     H_    0.892360 0.607212 0.938247 0.150853
H12   H     H_    0.107633 0.392788 0.061743 0.150783
H13   H     H_    0.502045 0.705324 0.441364 0.132695
H14   H     H_    0.497965 0.294673 0.558647 0.132602
H15   H     H_    0.986849 0.194313 0.047275 0.132895
H16   H     H_    0.013144 0.805685 0.952716 0.132727
C37   C     C_1   0.371256 0.970405 0.624812 -0.224383
C38   C     C_1   0.628743 0.029595 0.375186 -0.222082
C39   C     C_1   0.128746 0.470425 0.875188 -0.224498
C40   C     C_1   0.871257 0.529575 0.124815 -0.222142
C41   C     C_3   0.499019 0.161408 0.532063 -0.158020
C42   C     C_3   0.500991 0.838590 0.467948 -0.157363
C43   C     C_3   0.007078 0.667453 0.974163 -0.159227
C44   C     C_3   0.992914 0.332546 0.025828 -0.158456
C45   C     C_3   0.457435 0.989954 0.540890 0.188562
C46   C     C_3   0.542574 0.010045 0.459120 0.188788
C47   C     C_3   0.042567 0.490000 0.959110 0.189493
C48   C     C_3   0.957426 0.509998 0.040881 0.189721
C49   C     C_1   0.409907 0.978891 0.586839 0.004672
C50   C     C_1   0.590097 0.021107 0.413165 0.004476
C51   C     C_1   0.090094 0.478932 0.913161 0.004134
C52   C     C_1   0.909902 0.521067 0.086836 0.003975
N1    N     N_R   0.138454 0.184603 0.539991 0.233858
O21   O     O_R   0.169652 0.134972 0.493184 -0.363246
O22   O     O_R   0.158325 0.329209 0.576093 -0.322637
N2    N     N_R   0.874394 0.761444 0.445795 0.254643
O23   O     O_R   0.894661 0.594539 0.437702 -0.347804
O24   O     O_R   0.811866 0.791179 0.444785 -0.362036
N3    N     N_R   0.361249 0.682646 0.960561 0.233568
O25   O     O_R   0.330958 0.633103 0.008072 -0.362559
O26   O     O_R   0.340500 0.826376 0.924342 -0.323159
N4    N     N_R   0.625555 0.261298 0.054152 0.254605
O27   O     O_R   0.605053 0.094303 0.061638 -0.348140
O28   O     O_R   0.688155 0.290731 0.055474 -0.361731
N5    N     N_R   0.050543 0.364537 0.445400 0.262852
O29   O     O_R   0.072258 0.408431 0.391673 -0.352445
O30   O     O_R   0.050727 0.489002 0.491365 -0.333126
N6    N     N_R   0.929956 0.706338 0.575504 0.253930
O31   O     O_R   0.943784 0.536680 0.593897 -0.342334
O32   O     O_R   0.874418 0.777904 0.584539 -0.337054
N7    N     N_R   0.449604 0.864974 0.054348 0.263061
O33   O     O_R   0.428494 0.910728 0.108233 -0.352457
O34   O     O_R   0.448831 0.987877 0.007745 -0.333525
N8    N     N_R   0.570400 0.208092 0.924095 0.254006
O35   O     O_R   0.556777 0.038882 0.904970 -0.342517
O36   O     O_R   0.625992 0.280592 0.915648 -0.336707

loop_
_geom_bond_atom_site_label_1
_geom_bond_atom_site_label_2
_geom_bond_distance
_ccdc_geom_bond_type
O17   V3    1.775434 S    
C43   C47   1.539728 S    
C30   C34   1.550907 S    
N1    O21   1.300890 A    
C47   C51   1.483000 S    
O19   V1    1.775466 S    
O13   V1    1.967851 S    
N6    O31   1.301331 A    
O3    C7    1.339861 A    
N7    O33   1.301177 A    
O15   V3    1.967864 S    
N8    O35   1.301335 A    
C5    C12   1.493634 S    
C38   C50   1.215271 T    
O1    C5    1.339904 A    
C6    C11   1.489601 S    
C34   C46   1.539508 S    
C37   C49   1.215266 T    
C9    C18   1.395439 A    
C36   H8    1.110109 S    
O9    V1    2.002580 S    
C31   C43   1.550773 S    
C14   C18   1.397367 A    
C33   C42   1.550593 S    
C30   C42   1.550804 S    
C18   H1    1.084502 S    
O4    C8    1.336957 A    
H15   C44   1.110307 S    
C32   H12   1.110054 S    
O1    V3    1.992340 S    
C29   C46   1.539202 S    
C12   C23   1.414084 A    
O2    V4    1.992344 S    
O3    V1    1.992326 S    
C31   C48   1.539203 S    
C1    O15   1.323870 A    
C16   N8    1.432779 S    
C48   C52   1.483010 S    
C2    O16   1.323867 A    
N2    O24   1.301511 A    
O2    C6    1.336933 A    
O14   V2    1.967848 S    
C16   C20   1.397552 A    
C39   C51   1.215265 T    
C35   C47   1.539494 S    
O11   C7    1.333152 A    
C15   C28   1.421454 A    
O12   C8    1.334528 A    
C23   N4    1.434114 S    
N2    O23   1.300989 A    
C14   N6    1.432717 S    
C9    C22   1.412007 A    
C10   C17   1.397052 A    
O10   V2    2.002579 S    
C11   C24   1.412089 A    
H16   C43   1.110306 S    
C32   C47   1.539192 S    
O5    V1    1.984232 S    
C35   H7    1.110110 S    
O7    V3    1.984260 S    
C34   H6    1.110153 S    
C27   C28   1.432987 A    
O8    V4    1.984260 S    
C46   C50   1.483013 S    
C14   C25   1.424626 A    
C45   C49   1.483003 S    
O18   V4    1.775433 S    
C30   H10   1.110049 S    
C23   C27   1.436353 A    
C13   N5    1.433488 S    
C42   C46   1.539726 S    
O11   V3    2.002607 S    
C1    C40   1.451443 S    
C40   C52   1.215267 T    
O7    C3    1.326624 A    
C36   C43   1.550608 S    
O5    C1    1.326633 A    
C3    C38   1.451445 S    
N5    O30   1.300845 A    
N8    O36   1.301068 A    
N3    O25   1.300925 A    
C21   C25   1.436368 A    
O8    C4    1.326631 A    
C7    C10   1.493527 S    
C4    C37   1.451445 S    
O9    C5    1.333176 A    
N7    O34   1.300883 A    
C10   C21   1.413902 A    
N4    O28   1.301507 A    
C11   C20   1.395518 A    
C33   C45   1.539505 S    
N3    O26   1.300661 A    
C34   C41   1.550591 S    
C29   C41   1.550808 S    
H14   C41   1.110283 S    
C30   C45   1.539196 S    
H13   C42   1.110282 S    
O16   V4    1.967865 S    
C24   N3    1.435219 S    
C3    O13   1.323875 A    
O6    V2    1.984234 S    
C44   C48   1.539731 S    
O6    C2    1.326641 A    
C15   C19   1.394336 A    
C2    C39   1.451442 S    
C29   C33   1.550912 S    
O12   V4    2.002607 S    
C16   C27   1.424610 A    
N5    O29   1.301144 A    
C22   C26   1.432687 A    
C31   C35   1.550911 S    
C8    C9    1.489688 S    
C35   C44   1.550611 S    
C32   C36   1.550904 S    
O10   C6    1.334533 A    
O20   V2    1.775468 S    
C13   C26   1.421620 A    
C32   C44   1.550770 S    
C20   H3    1.084493 S    
C22   N1    1.435029 S    
C15   N7    1.433714 S    
N6    O32   1.301034 A    
C13   C17   1.394217 A    
N4    O27   1.300996 A    
O4    V2    1.992325 S    
C17   H2    1.084398 S    
C33   H5    1.110154 S    
C19   H4    1.084380 S    
C24   C28   1.432501 A    
N1    O22   1.300704 A    
C25   C26   1.433262 A    
C4    O14   1.323873 A    
C12   C19   1.397231 A    
C29   H9    1.110047 S    
C21   N2    1.434022 S    
C36   C48   1.539496 S    
C41   C45   1.539723 S    
C31   H11   1.110052 S    
