data_mof_unit_62746.cif
_audit_creation_date              2012-10-26T19:36:09-0400
_audit_creation_method            fapswitch 2.2
_symmetry_space_group_name_H-M    P1
_symmetry_Int_Tables_number       1
_space_group_crystal_system       triclinic
_cell_length_a                    22.668712
_cell_length_b                    22.674275
_cell_length_c                    14.795174
_cell_angle_alpha                 90.000986
_cell_angle_beta                  89.998721
_cell_angle_gamma                 89.985067
_cell_volume                      7604.66901585

loop_
_atom_site_label
_atom_site_type_symbol
_atom_type_description
_atom_site_fract_x
_atom_site_fract_y
_atom_site_fract_z
_atom_type_partial_charge
C1    C     C_R   0.079498 0.420519 0.499999 0.555774
C2    C     C_R   0.038117 0.461791 0.048439 0.023309
C3    C     C_R   0.038251 0.461926 0.951556 0.023204
C4    C     C_R   0.961755 0.538076 0.048444 0.024120
C5    C     C_R   0.464213 0.040391 0.951562 0.023937
C6    C     C_R   0.535787 0.959605 0.048439 0.023127
C7    C     C_R   0.535932 0.959731 0.951556 0.023816
C8    C     C_R   0.464076 0.040273 0.048444 0.023915
C9    C     C_R   0.999247 0.499245 0.902922 -0.091547
C10   C     C_R   0.000755 0.500754 0.097078 -0.091492
C11   C     C_R   0.499205 0.999291 0.902922 -0.091440
C12   C     C_R   0.920502 0.579481 0.500001 0.558055
C13   C     C_R   0.500798 0.000708 0.097078 -0.091713
C14   C     C_R   0.227710 0.728141 0.583175 0.028763
C15   C     C_R   0.773220 0.270879 0.416880 0.029536
C16   C     C_R   0.770847 0.273250 0.583120 0.030161
C17   C     C_R   0.228496 0.727362 0.416829 0.029253
C18   C     C_R   0.772123 0.728011 0.416830 0.026951
C19   C     C_R   0.229770 0.273884 0.583079 0.026457
C20   C     C_R   0.226219 0.270326 0.416904 0.026111
C21   C     C_R   0.771881 0.727775 0.583182 0.027083
C22   C     C_R   0.728842 0.227059 0.583136 0.029540
C23   C     C_R   0.920502 0.420516 0.500000 0.557372
C24   C     C_R   0.272316 0.771833 0.416825 0.028546
C25   C     C_R   0.271529 0.772614 0.583171 0.029397
C26   C     C_R   0.727032 0.228869 0.416863 0.030167
C27   C     C_R   0.272396 0.228283 0.416820 0.026393
C28   C     C_R   0.729832 0.773945 0.583074 0.026228
C29   C     C_R   0.725944 0.770051 0.416936 0.026626
C30   C     C_R   0.271813 0.227709 0.583168 0.027419
C31   C     C_R   0.207497 0.705112 0.500022 -0.059650
C32   C     C_R   0.793690 0.293721 0.500000 -0.059084
C33   C     C_R   0.793661 0.706247 0.500007 -0.057931
C34   C     C_R   0.079537 0.579447 0.500000 0.557277
C35   C     C_R   0.206337 0.293753 0.499991 -0.058737
C36   C     C_R   0.706283 0.206305 0.499999 -0.059080
C37   C     C_R   0.292526 0.794865 0.499977 -0.059680
C38   C     C_R   0.293751 0.206337 0.499995 -0.058492
C39   C     C_R   0.706241 0.793656 0.500003 -0.058172
C40   C     C_1   0.999735 0.499733 0.802445 0.101239
C41   C     C_1   0.000267 0.500266 0.197555 0.101272
C42   C     C_1   0.499720 0.999751 0.802445 0.101380
C43   C     C_1   0.500282 0.000249 0.197555 0.101033
C44   C     C_1   0.162049 0.660576 0.500009 -0.081674
C45   C     C_R   0.579492 0.920513 0.499999 0.558112
C46   C     C_1   0.838673 0.338701 0.500001 -0.083635
C47   C     C_1   0.838656 0.661280 0.500007 -0.084346
C48   C     C_1   0.161344 0.338721 0.499991 -0.085128
C49   C     C_1   0.661309 0.161317 0.499999 -0.083632
C50   C     C_1   0.337966 0.839409 0.499990 -0.081640
C51   C     C_1   0.338714 0.161339 0.499999 -0.085678
C52   C     C_1   0.661280 0.838656 0.500000 -0.083799
C53   C     C_1   0.876096 0.376117 0.500001 -0.010362
C54   C     C_1   0.124264 0.623525 0.500002 -0.009073
C55   C     C_1   0.123911 0.376130 0.499994 -0.012972
C56   C     C_R   0.420507 0.079486 0.500001 0.555721
C57   C     C_1   0.876090 0.623870 0.500005 -0.011126
C58   C     C_1   0.375745 0.876467 0.499998 -0.009060
C59   C     C_1   0.623895 0.123892 0.499999 -0.010353
C60   C     C_1   0.623876 0.876095 0.499998 -0.010771
C61   C     C_1   0.376120 0.123901 0.500002 -0.013328
C62   C     C_2   0.919050 0.574582 0.100698 0.315686
C63   C     C_2   0.080970 0.425434 0.899303 0.314041
C64   C     C_2   0.074653 0.419113 0.100687 0.315506
C65   C     C_2   0.925332 0.580868 0.899311 0.317319
C66   C     C_2   0.423607 0.079244 0.100697 0.314847
C67   C     C_R   0.420465 0.920551 0.500000 0.557278
C68   C     C_2   0.576419 0.920777 0.899305 0.316178
C69   C     C_2   0.569733 0.914841 0.100683 0.316976
C70   C     C_2   0.430254 0.085143 0.899316 0.314731
C71   C     C_2   0.790195 0.302001 0.668818 0.312230
C72   C     C_2   0.201815 0.705477 0.331001 0.312700
C73   C     C_2   0.200222 0.707057 0.668875 0.315112
C74   C     C_2   0.801971 0.290235 0.331182 0.314886
C75   C     C_2   0.196874 0.289126 0.331364 0.319989
C76   C     C_2   0.792387 0.700139 0.669134 0.318909
C77   C     C_2   0.799763 0.707501 0.330878 0.318705
C78   C     C_R   0.579497 0.079486 0.500000 0.557370
C79   C     C_2   0.210974 0.303236 0.668614 0.319119
C80   C     C_2   0.298209 0.794498 0.668998 0.312446
C81   C     C_2   0.698570 0.209227 0.331094 0.312193
C82   C     C_2   0.709200 0.198600 0.668906 0.314918
C83   C     C_2   0.299810 0.792911 0.331126 0.315478
C84   C     C_2   0.696412 0.788664 0.331452 0.320317
C85   C     C_2   0.292147 0.199904 0.669087 0.316713
C86   C     C_2   0.300220 0.207955 0.330905 0.318322
C87   C     C_2   0.711193 0.803454 0.668562 0.321316
C88   C     C_R   0.961882 0.538203 0.951560 0.024196
Cu1   Cu    Cu3+1 1.000000 0.500000 0.589220 1.024740
Cu2   Cu    Cu3+1 1.000000 0.500000 0.410780 1.024810
Cu3   Cu    Cu3+1 0.500000 0.000000 0.589220 1.024843
Cu4   Cu    Cu3+1 0.500000 0.000000 0.410780 1.024665
H1    H     H_    0.931725 0.593305 0.165348 0.115327
H2    H     H_    0.188431 0.659703 0.324888 0.115628
H3    H     H_    0.186785 0.661341 0.675697 0.119751
H4    H     H_    0.818214 0.335014 0.324203 0.120412
H5    H     H_    0.180589 0.333870 0.323928 0.117218
H6    H     H_    0.837275 0.683991 0.675238 0.122081
H7    H     H_    0.815922 0.662624 0.324786 0.121255
H8    H     H_    0.166222 0.319525 0.676055 0.117107
H9    H     H_    0.311588 0.840274 0.675113 0.116047
H10   H     H_    0.682347 0.164425 0.324337 0.116740
H11   H     H_    0.664392 0.182369 0.675660 0.120501
H12   H     H_    0.068309 0.406723 0.834639 0.110686
H13   H     H_    0.313249 0.838627 0.324300 0.118831
H14   H     H_    0.680110 0.833392 0.323869 0.116561
H15   H     H_    0.337022 0.183739 0.675323 0.120606
H16   H     H_    0.316387 0.163090 0.324667 0.121340
H17   H     H_    0.666447 0.819735 0.676135 0.119226
H18   H     H_    0.093358 0.431787 0.165351 0.110394
H19   H     H_    0.906617 0.568181 0.834660 0.114814
H20   H     H_    0.437355 0.097151 0.165376 0.115178
H21   H     H_    0.562686 0.902876 0.834615 0.112425
H22   H     H_    0.589189 0.926397 0.165319 0.110881
H23   H     H_    0.410781 0.073572 0.834697 0.113089
H24   H     H_    0.834980 0.318257 0.675799 0.116714
N1    N     N_1   0.000000 0.500000 0.276710 -0.188825
N2    N     N_1   1.000000 0.500000 0.723290 -0.188835
N3    N     N_1   0.500000 0.000000 0.276710 -0.188870
N4    N     N_1   0.500000 0.000000 0.723290 -0.188804
O1    O     O_R   0.059850 0.440160 0.575320 -0.491991
O2    O     O_R   0.440150 0.059840 0.424680 -0.490856
O3    O     O_R   0.440150 0.059840 0.575320 -0.492289
O4    O     O_R   0.559850 0.940160 0.424680 -0.490875
O5    O     O_R   0.440150 0.940160 0.424680 -0.483362
O6    O     O_R   0.559850 0.059840 0.575320 -0.483584
O7    O     O_R   0.559850 0.059840 0.424680 -0.490686
O8    O     O_R   0.440150 0.940160 0.575320 -0.490387
O9    O     O_2   0.868504 0.581703 0.074354 -0.407922
O10   O     O_2   0.131512 0.418313 0.925665 -0.406255
O11   O     O_2   0.081819 0.368590 0.074321 -0.404197
O12   O     O_R   0.940150 0.559840 0.424680 -0.490731
O13   O     O_2   0.918164 0.631395 0.925661 -0.405649
O14   O     O_2   0.373586 0.089382 0.074320 -0.408482
O15   O     O_2   0.626439 0.910648 0.925697 -0.404143
O16   O     O_2   0.573854 0.863973 0.074346 -0.402617
O17   O     O_2   0.426139 0.136016 0.925630 -0.408855
O18   O     O_2   0.755605 0.310257 0.730808 -0.419573
O19   O     O_2   0.191937 0.738876 0.268055 -0.419356
O20   O     O_2   0.189746 0.741041 0.730853 -0.417567
O21   O     O_2   0.810241 0.255658 0.269190 -0.418052
O22   O     O_2   0.188161 0.254139 0.270065 -0.400026
O23   O     O_R   0.940150 0.559840 0.575320 -0.489739
O24   O     O_2   0.758628 0.692667 0.732414 -0.404791
O25   O     O_2   0.807227 0.741241 0.267585 -0.405766
O26   O     O_2   0.245974 0.311951 0.729905 -0.400474
O27   O     O_2   0.308093 0.761099 0.731940 -0.419297
O28   O     O_2   0.690510 0.243596 0.268768 -0.419616
O29   O     O_2   0.743578 0.190554 0.731234 -0.418143
O30   O     O_2   0.310287 0.758924 0.269153 -0.416439
O31   O     O_2   0.687563 0.753544 0.270378 -0.398915
O32   O     O_2   0.258264 0.192313 0.732177 -0.408587
O33   O     O_2   0.307827 0.241832 0.267823 -0.405294
O34   O     O_R   0.059850 0.440160 0.424680 -0.490986
O35   O     O_2   0.746310 0.812303 0.729649 -0.398805
O36   O     O_R   0.940150 0.440160 0.424680 -0.483604
O37   O     O_R   0.059850 0.559840 0.575320 -0.483362
O38   O     O_R   0.059850 0.559840 0.424680 -0.490353
O39   O     O_R   0.940150 0.440160 0.575320 -0.490687
O40   O     O_R   0.559850 0.940160 0.575320 -0.489410

loop_
_geom_bond_atom_site_label_1
_geom_bond_atom_site_label_2
_ccdc_geom_bond_type
C48   C55   T    
C40   N2    T    
C45   C60   S    
C8    C66   S    
C8    C13   A    
Cu3   O6    S    
C6    C69   S    
C25   C80   S    
C51   C61   T    
C14   C31   A    
Cu4   O5    S    
C15   C32   A    
C7    C11   A    
C16   C71   S    
C21   C76   S    
C22   C82   S    
C86   O33   D    
Cu4   N3    S    
C34   O38   A    
C5    C11   A    
Cu4   O4    S    
C9    C88   A    
C21   C33   A    
C35   C48   S    
C27   C38   A    
C76   H6    S    
C4    C62   S    
C75   H5    S    
C30   C38   A    
C11   C42   S    
C63   O10   D    
C16   C32   A    
C65   H19   S    
C52   C60   T    
C25   C37   A    
C7    C68   S    
C66   O14   D    
C20   C35   A    
C72   O19   D    
C23   O39   A    
C84   H14   S    
C82   H11   S    
C23   C53   S    
C71   O18   D    
C68   H21   S    
C83   O30   D    
Cu2   O12   S    
C39   C52   S    
Cu3   O3    S    
C23   O36   A    
C10   C41   S    
C62   O9    D    
C45   O40   A    
C78   O7    A    
C59   C78   S    
C2    C64   S    
Cu1   O39   S    
C79   O26   D    
C81   H10   S    
C80   O27   D    
C45   O4    A    
C69   H22   S    
C17   C24   A    
Cu3   O8    S    
C50   C58   T    
C56   O3    A    
C74   H4    S    
C79   H8    S    
C29   C84   S    
C31   C44   S    
Cu3   Cu4   S    
C15   C26   A    
C38   C51   S    
C28   C39   A    
Cu1   O23   S    
C9    C40   S    
C83   H13   S    
C20   C75   S    
C56   O2    A    
Cu2   O38   S    
C27   C86   S    
Cu2   N1    S    
C5    C70   S    
C3    C9    A    
C75   O22   D    
Cu4   O2    S    
C47   C57   T    
C14   C73   S    
C64   H18   S    
C64   O11   D    
C81   O28   D    
C29   C39   A    
C28   C87   S    
C24   C37   A    
C18   C29   A    
C30   C85   S    
C19   C79   S    
Cu3   O40   S    
C70   O17   D    
C4    C88   A    
C12   C57   S    
C76   O24   D    
C26   C36   A    
C20   C27   A    
C74   O21   D    
C34   C54   S    
C69   O16   D    
C17   C31   A    
C87   O35   D    
Cu2   O34   S    
C73   H3    S    
Cu2   O36   S    
C78   O6    A    
Cu4   O7    S    
C77   O25   D    
C13   C43   S    
C65   C88   S    
C16   C22   A    
C12   O12   A    
Cu3   N4    S    
C32   C46   S    
C24   C83   S    
C68   O15   D    
C86   H16   S    
C63   H12   S    
C5    C8    A    
Cu1   O37   S    
C6    C7    A    
C87   H17   S    
C73   O20   D    
C3    C63   S    
C70   H23   S    
C26   C81   S    
C22   C36   A    
C49   C59   T    
C12   O23   A    
C80   H9    S    
C41   N1    T    
C67   O5    A    
C2    C3    A    
C1    C55   S    
C85   O32   D    
C72   H2    S    
C19   C35   A    
C67   O8    A    
C6    C13   A    
C37   C50   S    
C42   N4    T    
Cu1   O1    S    
C18   C77   S    
C33   C47   S    
C84   O31   D    
C46   C53   T    
C71   H24   S    
C77   H7    S    
C14   C25   A    
C1    O34   A    
C18   C33   A    
C1    O1    A    
C82   O29   D    
C21   C28   A    
C34   O37   A    
C44   C54   T    
C58   C67   S    
C15   C74   S    
Cu1   N2    S    
C17   C72   S    
C62   H1    S    
C56   C61   S    
C66   H20   S    
Cu1   Cu2   S    
C85   H15   S    
C19   C30   A    
C4    C10   A    
C65   O13   D    
C36   C49   S    
C43   N3    T    
C2    C10   A    
