data_mof_unit_30703.cif
_audit_creation_date              2012-12-10T19:23:25-0500
_audit_creation_method            fapswitch 2.2
_symmetry_space_group_name_H-M    P1
_symmetry_Int_Tables_number       1
_space_group_crystal_system       triclinic
_cell_length_a                    13.020379
_cell_length_b                    17.764608
_cell_length_c                    16.515565
_cell_angle_alpha                 89.122017
_cell_angle_beta                  95.572001
_cell_angle_gamma                 91.336248
_cell_volume                      3800.67071688

loop_
_atom_site_label
_atom_site_type_symbol
_atom_type_description
_atom_site_fract_x
_atom_site_fract_y
_atom_site_fract_z
_atom_type_partial_charge
C1    C     C_R   0.499898 0.355457 0.500472 0.824358
C2    C     C_R   0.500102 0.644543 0.499528 0.824358
C3    C     C_R   0.501150 0.727205 0.499017 -0.088174
C4    C     C_R   0.498850 0.272795 0.500983 -0.088175
C5    C     C_R   0.476687 0.767420 0.426548 -0.174618
C6    C     C_R   0.523313 0.232580 0.573452 -0.174618
C7    C     C_R   0.478963 0.846226 0.425322 0.081459
C8    C     C_R   0.521036 0.153774 0.574677 0.081458
C9    C     C_R   0.504828 0.885323 0.498765 0.092513
C10   C     C_R   0.495172 0.114677 0.501235 0.092514
C11   C     C_1   0.501700 0.966253 0.499525 -0.079464
C12   C     C_1   0.498300 0.033747 0.500475 -0.079464
C13   C     C_R   0.564407 0.548750 0.833042 -0.299308
C14   C     C_R   0.435592 0.451250 0.166958 -0.299308
C15   C     C_R   0.563974 0.547834 0.747495 0.042687
C16   C     C_R   0.436026 0.452167 0.252505 0.042687
C17   C     C_R   0.434774 0.451368 0.739243 0.119495
C18   C     C_R   0.565226 0.548631 0.260757 0.119495
C19   C     C_R   0.430049 0.452166 0.825312 -0.102213
C20   C     C_R   0.569951 0.547834 0.174688 -0.102213
C21   C     C_R   0.497385 0.501084 0.873180 0.089386
C22   C     C_R   0.502615 0.498916 0.126819 0.089387
C23   C     C_R   0.300359 0.500137 0.485086 0.813575
C24   C     C_R   0.699641 0.499863 0.514914 0.813575
C25   C     C_1   0.500011 0.500903 0.962859 0.098379
C26   C     C_1   0.499989 0.499097 0.037141 0.098379
C27   C     C_R   0.812161 0.499883 0.523942 -0.082885
C28   C     C_R   0.187839 0.500117 0.476058 -0.082884
C29   C     C_R   0.025567 0.494426 0.389435 0.099812
C30   C     C_R   0.974433 0.505574 0.610565 0.099812
C31   C     C_R   0.133671 0.495165 0.398986 -0.201097
C32   C     C_R   0.866329 0.504835 0.601014 -0.201097
C33   C     C_R   0.135216 0.504956 0.545045 -0.284647
C34   C     C_R   0.864784 0.495044 0.454955 -0.284646
C35   C     C_R   0.027638 0.502703 0.539320 0.107462
C36   C     C_R   0.972362 0.497297 0.460679 0.107462
C37   C     C_R   0.531268 0.844883 0.571961 0.099519
C38   C     C_R   0.468732 0.155117 0.428039 0.099519
C39   C     C_R   0.528428 0.766151 0.571210 -0.235224
C40   C     C_R   0.471572 0.233849 0.428790 -0.235223
Cu1   Cu    Cu3+1 0.500000 0.499980 0.580420 0.947972
Cu2   Cu    Cu3+1 0.500000 0.500020 0.419580 0.947973
H1    H     H_    0.820381 0.489319 0.396634 0.145718
H2    H     H_    0.179619 0.510681 0.603366 0.145718
H3    H     H_    0.822914 0.508170 0.653260 0.152671
H4    H     H_    0.177086 0.491830 0.346740 0.152671
H5    H     H_    0.549724 0.735115 0.627113 0.152769
H6    H     H_    0.450276 0.264885 0.372887 0.152770
H7    H     H_    0.455899 0.737376 0.370543 0.190582
H8    H     H_    0.544101 0.262624 0.629457 0.190583
H9    H     H_    0.617147 0.586855 0.867812 0.170804
H10   H     H_    0.382852 0.413145 0.132188 0.170804
H11   H     H_    0.615758 0.585550 0.718178 0.124221
H12   H     H_    0.384241 0.414450 0.281821 0.124221
N1    N     N_R   0.499970 0.499970 0.701220 -0.191368
N2    N     N_R   0.500030 0.500030 0.298780 -0.191367
O1    O     O_R   0.499990 0.391240 0.567930 -0.552004
O2    O     O_R   0.500010 0.608760 0.432070 -0.552003
O3    O     O_R   0.500000 0.391270 0.432120 -0.596050
O4    O     O_R   0.500000 0.608730 0.567880 -0.596050
O5    O     O_R   0.348990 0.499980 0.556880 -0.607774
O6    O     O_R   0.651010 0.500020 0.443120 -0.607773
O7    O     O_R   0.349000 0.500000 0.421060 -0.593874
O8    O     O_R   0.651000 0.500000 0.578940 -0.593874
C41   C     C_2   0.366983 0.397611 0.691016 0.374443
H13   H     H_    0.294191 0.415440 0.660509 0.060709
O9    O     O_2   0.388833 0.331217 0.690259 -0.588681
C42   C     C_2   0.633017 0.602388 0.308984 0.374444
H14   H     H_    0.705810 0.584559 0.339490 0.060708
O10   O     O_2   0.611167 0.668783 0.309741 -0.588681
C43   C     C_2   0.353604 0.402048 0.863429 0.298250
H15   H     H_    0.322763 0.351583 0.833064 0.112517
O11   O     O_2   0.321431 0.417424 0.928047 -0.562154
C44   C     C_2   0.646397 0.597951 0.136571 0.298250
H16   H     H_    0.677238 0.648416 0.166936 0.112516
O12   O     O_2   0.678570 0.582575 0.071953 -0.562154
C45   C     C_3   0.966101 0.490954 0.304848 -0.423147
C46   C     C_3   0.031064 0.491522 0.231853 -0.372518
C47   C     C_3   0.962162 0.490355 0.151561 -0.788986
H17   H     H_    0.912112 0.438775 0.148065 0.254243
H18   H     H_    0.912907 0.540763 0.145846 0.267022
H19   H     H_    0.010897 0.490665 0.099972 0.243324
H20   H     H_    0.080896 0.543244 0.232715 0.225511
H21   H     H_    0.080310 0.441074 0.234769 0.219308
H22   H     H_    0.917138 0.438748 0.301785 0.199618
H23   H     H_    0.914887 0.540349 0.297580 0.195872
C48   C     C_3   0.033899 0.509045 0.695152 -0.423147
C49   C     C_3   0.968936 0.508478 0.768147 -0.372517
C50   C     C_3   0.037838 0.509645 0.848438 -0.788986
H24   H     H_    0.087093 0.459237 0.854154 0.267022
H25   H     H_    0.087888 0.561225 0.851935 0.254243
H26   H     H_    0.989103 0.509334 0.900027 0.243324
H27   H     H_    0.919690 0.558926 0.765231 0.219308
H28   H     H_    0.919104 0.456756 0.767285 0.225510
H29   H     H_    0.085113 0.459650 0.702420 0.195872
H30   H     H_    0.082862 0.561252 0.698215 0.199618
C51   C     C_3   0.567143 0.883703 0.650949 -0.417522
C52   C     C_3   0.681948 0.905948 0.653215 -0.338420
C53   C     C_3   0.723970 0.935831 0.736352 -0.857977
H31   H     H_    0.682636 0.986949 0.751167 0.253849
H32   H     H_    0.715475 0.892213 0.784297 0.256578
H33   H     H_    0.807180 0.950756 0.735765 0.245083
H34   H     H_    0.727031 0.855961 0.639868 0.224708
H35   H     H_    0.693260 0.949857 0.606047 0.219608
H36   H     H_    0.519990 0.933837 0.658350 0.205240
H37   H     H_    0.555334 0.845479 0.703395 0.196510
C54   C     C_3   0.432857 0.116297 0.349051 -0.417522
C55   C     C_3   0.318052 0.094052 0.346785 -0.338421
C56   C     C_3   0.276029 0.064169 0.263648 -0.857978
H38   H     H_    0.192820 0.049244 0.264235 0.245083
H39   H     H_    0.284525 0.107787 0.215703 0.256578
H40   H     H_    0.317364 0.013051 0.248833 0.253849
H41   H     H_    0.306739 0.050143 0.393952 0.219608
H42   H     H_    0.272969 0.144039 0.360132 0.224708
H43   H     H_    0.444666 0.154521 0.296605 0.196511
H44   H     H_    0.480010 0.066163 0.341650 0.205240
C57   C     C_3   0.457730 0.886558 0.344309 -0.416525
C58   C     C_3   0.559419 0.908290 0.309341 -0.320399
C59   C     C_3   0.540796 0.940259 0.223003 -0.854021
H45   H     H_    0.499287 0.898081 0.182182 0.260683
H46   H     H_    0.494927 0.992124 0.222163 0.251075
H47   H     H_    0.616019 0.954561 0.199559 0.245437
H48   H     H_    0.602626 0.950870 0.348704 0.214059
H49   H     H_    0.607930 0.857699 0.307878 0.248553
H50   H     H_    0.410751 0.849505 0.300630 0.199716
H51   H     H_    0.411245 0.937089 0.351349 0.203748
C60   C     C_3   0.542270 0.113442 0.655691 -0.416525
C61   C     C_3   0.440580 0.091709 0.690658 -0.320400
C62   C     C_3   0.459203 0.059740 0.776997 -0.854023
H52   H     H_    0.505073 0.007876 0.777837 0.251076
H53   H     H_    0.500712 0.101918 0.817818 0.260684
H54   H     H_    0.383979 0.045439 0.800440 0.245438
H55   H     H_    0.392069 0.142301 0.692121 0.248553
H56   H     H_    0.397374 0.049129 0.651296 0.214059
H57   H     H_    0.588755 0.062911 0.648651 0.203748
H58   H     H_    0.589248 0.150496 0.699370 0.199716

loop_
_geom_bond_atom_site_label_1
_geom_bond_atom_site_label_2
_ccdc_geom_bond_type
C38   C40   A    
C48   C49   S    
C32   H3    S    
C7    C57   S    
C19   C43   S    
C35   C36   A    
C24   C27   S    
Cu1   O5    S    
C61   C62   S    
Cu2   O2    S    
C37   C51   S    
C51   C52   S    
C45   C46   S    
C29   C36   A    
C44   O12   D    
C30   C35   A    
C15   H11   S    
C19   C21   A    
C60   H57   S    
C1    O1    A    
C56   H39   S    
C33   C35   A    
C2    O4    A    
C18   C42   S    
C52   H34   S    
C55   C56   S    
C40   H6    S    
Cu1   Cu2   S    
C55   H42   S    
C38   C54   S    
C58   C59   S    
Cu1   N1    S    
Cu2   N2    S    
C13   H9    S    
C46   H20   S    
C14   H10   S    
C4    C40   A    
C42   H14   S    
C41   O9    D    
C31   H4    S    
C48   H29   S    
C54   C55   S    
C50   H25   S    
C57   H51   S    
C17   N1    A    
C18   C20   A    
C18   N2    A    
Cu2   O6    S    
C62   H54   S    
C51   H36   S    
C23   O7    A    
C45   H22   S    
C24   O8    A    
C29   C31   A    
C5    H7    S    
C61   H55   S    
C59   H46   S    
C27   C34   A    
C49   H28   S    
C44   H16   S    
C13   C21   A    
C60   H58   S    
C4    C6    A    
C56   H40   S    
C5    C7    A    
C46   C47   S    
C6    C8    A    
C25   C26   T    
C15   N1    A    
C55   H41   S    
C16   N2    A    
C61   H56   S    
C8    C60   S    
C53   H31   S    
C59   H45   S    
C48   H30   S    
C9    C37   A    
C20   C44   S    
C58   H49   S    
C23   C28   S    
C6    H8    S    
C50   H26   S    
C9    C11   S    
C54   H43   S    
C10   C12   S    
C51   H37   S    
C42   O10   D    
C53   H32   S    
C20   C22   A    
C28   C33   A    
C52   C53   S    
C13   C15   A    
C14   C16   A    
C60   C61   S    
C39   H5    S    
C62   H52   S    
C59   H47   S    
C7    C9    A    
C21   C25   S    
C49   H27   S    
C24   O6    A    
C27   C32   A    
C33   H2    S    
C17   C41   S    
C28   C31   A    
C34   H1    S    
Cu1   O4    S    
C3    C5    A    
Cu2   O3    S    
C45   H23   S    
C47   H19   S    
C11   C12   T    
C2    O2    A    
C47   H18   S    
C10   C38   A    
C1    C4    S    
C14   C22   A    
C1    O3    A    
C2    C3    S    
C50   H24   S    
Cu1   O1    S    
C43   H15   S    
C37   C39   A    
C56   H38   S    
C30   C32   A    
C52   H35   S    
C17   C19   A    
C34   C36   A    
C58   H48   S    
C16   H12   S    
C54   H44   S    
C3    C39   A    
C47   H17   S    
C46   H21   S    
C23   O5    A    
C53   H33   S    
C29   C45   S    
C49   C50   S    
C8    C10   A    
C41   H13   S    
C22   C26   S    
C43   O11   D    
Cu1   O8    S    
C30   C48   S    
C57   C58   S    
C57   H50   S    
Cu2   O7    S    
C62   H53   S    
