data_mof_unit_5557.cif
_audit_creation_date              2012-12-10T21:12:29-0500
_audit_creation_method            fapswitch 2.2
_symmetry_space_group_name_H-M    P1
_symmetry_Int_Tables_number       1
_space_group_crystal_system       triclinic
_cell_length_a                    13.132309
_cell_length_b                    16.825558
_cell_length_c                    17.292658
_cell_angle_alpha                 89.697631
_cell_angle_beta                  91.455732
_cell_angle_gamma                 68.990504
_cell_volume                      3565.37018001

loop_
_atom_site_label
_atom_site_type_symbol
_atom_type_description
_atom_site_fract_x
_atom_site_fract_y
_atom_site_fract_z
_atom_type_partial_charge
C1    C     C_R   0.494671 0.501458 0.647955 0.883852
C2    C     C_R   0.823507 0.421018 0.489845 -0.143175
C3    C     C_R   0.592426 0.401461 0.157837 0.089735
C4    C     C_R   0.704837 0.452713 0.496101 0.948706
C5    C     C_R   0.556687 0.411333 0.233818 0.609073
C6    C     C_R   0.530373 0.490722 0.270417 -0.205980
C7    C     C_R   0.540648 0.559873 0.230231 -0.207360
C8    C     C_R   0.574149 0.550842 0.154283 -0.206577
C9    C     C_R   0.599191 0.472472 0.117965 0.058915
C10   C     C_1   0.609340 0.471170 0.036445 -0.016394
C11   C     C_1   0.603915 0.472710 0.967547 -0.004001
C12   C     C_R   0.984780 0.459033 0.484366 0.007656
C13   C     C_R   0.557094 0.412354 0.850275 0.171250
C14   C     C_R   0.508115 0.425758 0.775560 0.137460
C15   C     C_R   0.498272 0.500999 0.733847 -0.178646
C16   C     C_R   0.504119 0.498818 0.352537 0.950066
C17   C     C_R   0.507924 0.571443 0.774231 0.129184
C18   C     C_R   0.556354 0.558552 0.849033 0.171646
C19   C     C_R   0.580568 0.479016 0.886244 0.025832
C20   C     C_R   0.576736 0.144443 0.541689 0.530031
C21   C     C_R   0.576708 0.228278 0.542721 0.163873
C22   C     C_R   0.422585 0.274564 0.456832 -0.008844
C23   C     C_R   0.875685 0.474869 0.461103 -0.056687
C24   C     C_R   0.419241 0.191068 0.455215 0.036043
C25   C     C_R   0.497974 0.124752 0.498690 -0.047954
C26   C     C_1   0.501004 0.036336 0.500686 0.083978
C27   C     C_1   0.505217 0.962474 0.502674 0.009590
C28   C     C_R   0.294558 0.547428 0.499979 0.908092
C29   C     C_R   0.569798 0.811023 0.554596 0.059978
C30   C     C_R   0.565976 0.727896 0.551999 -0.047244
C31   C     C_R   0.436874 0.768197 0.447250 0.282737
C32   C     C_R   0.440692 0.851901 0.445674 0.096344
C33   C     C_R   0.505933 0.874427 0.501132 0.075432
C34   C     C_R   0.027088 0.524933 0.474264 0.055412
C35   C     C_R   0.009095 0.666313 0.422653 0.111182
C36   C     C_R   0.175870 0.576982 0.490003 -0.219577
C37   C     C_R   0.885423 0.342389 0.524203 -0.202410
C38   C     C_R   0.997945 0.319227 0.535030 0.259238
C39   C     C_R   0.047006 0.377909 0.516828 -0.171644
C40   C     C_3   0.583390 0.328020 0.893086 -0.892819
C41   C     C_3   0.454616 0.365414 0.745128 -0.838174
C42   C     C_3   0.459921 0.661301 0.740877 -0.816960
C43   C     C_3   0.580467 0.630311 0.889115 -0.892325
C44   C     C_3   0.664895 0.242320 0.591454 -0.761981
C45   C     C_R   0.966340 0.600340 0.431557 -0.025095
C46   C     C_3   0.332978 0.173769 0.406782 -0.868403
C47   C     C_3   0.642545 0.830851 0.614082 -0.844321
C48   C     C_3   0.362809 0.748151 0.388749 -0.721587
C49   C     C_3   0.373987 0.916194 0.384517 -0.906584
C50   C     C_3   0.944382 0.749062 0.381163 -0.831592
C51   C     C_3   0.065493 0.234186 0.570045 -0.909523
C52   C     C_3   0.620158 0.315251 0.121159 -0.807083
C53   C     C_R   0.865647 0.606921 0.397521 -0.284579
C54   C     C_R   0.821617 0.544693 0.410896 0.617088
C55   C     C_R   0.127696 0.518136 0.507186 -0.327479
C56   C     C_R   0.115101 0.653231 0.451364 0.607098
F1    F     F_    0.160195 0.712938 0.438964 -0.700912
F2    F     F_    0.548934 0.342759 0.271675 -0.655808
F3    F     F_    0.654105 0.081725 0.583398 -0.666307
F4    F     F_    0.728870 0.550758 0.370732 -0.671032
H1    H     H_    0.522459 0.621096 0.257319 0.195813
H2    H     H_    0.668002 0.306827 0.917698 0.237701
H3    H     H_    0.525658 0.335608 0.940710 0.245670
H4    H     H_    0.413233 0.345040 0.792357 0.236617
H5    H     H_    0.388570 0.396848 0.701639 0.242323
H6    H     H_    0.516357 0.308580 0.719975 0.246348
H7    H     H_    0.391529 0.668513 0.699093 0.248443
H8    H     H_    0.422769 0.707997 0.786542 0.234587
H9    H     H_    0.524387 0.678713 0.713139 0.237117
H10   H     H_    0.641101 0.607312 0.937662 0.240333
H11   H     H_    0.616153 0.663227 0.847905 0.247061
H12   H     H_    0.577248 0.605880 0.122955 0.160354
H13   H     H_    0.504176 0.676667 0.912012 0.241930
H14   H     H_    0.668751 0.213528 0.649894 0.233234
H15   H     H_    0.744672 0.210795 0.564179 0.230213
H16   H     H_    0.652249 0.309332 0.600599 0.262181
H17   H     H_    0.274963 0.232953 0.379086 0.242337
H18   H     H_    0.372146 0.128404 0.360562 0.251206
H19   H     H_    0.286045 0.145706 0.443497 0.238174
H20   H     H_    0.687124 0.774542 0.651425 0.224321
H21   H     H_    0.703495 0.851285 0.584701 0.267489
H22   H     H_    0.592705 0.882851 0.651648 0.256401
H23   H     H_    0.363031 0.325244 0.423176 0.167184
H24   H     H_    0.279816 0.797547 0.389225 0.253075
H25   H     H_    0.395980 0.745445 0.330049 0.189913
H26   H     H_    0.351143 0.688508 0.400409 0.301934
H27   H     H_    0.390553 0.976140 0.383499 0.244277
H28   H     H_    0.392772 0.888902 0.326013 0.246784
H29   H     H_    0.285620 0.933307 0.394623 0.251349
H30   H     H_    0.865171 0.779686 0.409588 0.234412
H31   H     H_    0.987220 0.795164 0.381952 0.288096
H32   H     H_    0.929431 0.736586 0.319728 0.228577
H33   H     H_    0.015038 0.195194 0.582608 0.246141
H34   H     H_    0.819554 0.660182 0.360256 0.186436
H35   H     H_    0.129391 0.198721 0.529359 0.243602
H36   H     H_    0.105258 0.243406 0.624960 0.241742
H37   H     H_    0.656427 0.312164 0.063614 0.223229
H38   H     H_    0.680816 0.266063 0.158566 0.265417
H39   H     H_    0.545297 0.299399 0.114720 0.251014
H40   H     H_    0.616304 0.679131 0.591989 0.144793
H41   H     H_    0.173283 0.465069 0.544484 0.176052
H42   H     H_    0.845765 0.300463 0.544996 0.152534
H43   H     H_    0.134101 0.357568 0.526953 0.140552
H44   H     H_    0.580212 0.275973 0.855253 0.252403
N1    N     N_R   0.499970 0.292770 0.499970 -0.122560
N2    N     N_R   0.499980 0.707230 0.499990 -0.110310
O1    O     O_R   0.500000 0.433430 0.610870 -0.620599
O2    O     O_R   0.500010 0.566520 0.610900 -0.615879
O3    O     O_R   0.653610 0.400420 0.499960 -0.623866
O4    O     O_R   0.653620 0.533500 0.499990 -0.575103
O5    O     O_R   0.499990 0.433480 0.389100 -0.546298
O6    O     O_R   0.500000 0.566570 0.389130 -0.601636
O7    O     O_R   0.346380 0.466500 0.500010 -0.634556
O8    O     O_R   0.346390 0.599580 0.500040 -0.582071
Zn1   Zn    Zn3+2 0.500000 0.411140 0.499980 0.964149
Zn2   Zn    Zn3+2 0.500000 0.588860 0.500020 0.978927

loop_
_geom_bond_atom_site_label_1
_geom_bond_atom_site_label_2
_ccdc_geom_bond_type
C43   H13   S    
C4    O3    A    
C30   H40   S    
C49   H27   S    
C7    C8    A    
C54   F4    S    
C53   C54   A    
C27   C33   S    
C12   C23   A    
C11   C19   S    
C26   C27   T    
C37   C38   A    
C40   H3    S    
C5    F2    S    
C29   C47   S    
C3    C9    A    
C38   C39   A    
C20   C25   A    
C29   C33   A    
C52   H37   S    
C40   H2    S    
C56   F1    S    
C18   C19   A    
C47   H22   S    
C44   H16   S    
C17   C42   S    
C7    H1    S    
C13   C40   S    
C50   H30   S    
C46   H19   S    
C8    C9    A    
C1    C15   S    
C9    C10   S    
C51   H36   S    
C35   C56   A    
C45   C53   A    
C34   C55   A    
C13   C14   A    
C30   N2    A    
C42   H8    S    
C49   H28   S    
C47   H20   S    
C8    H12   S    
C13   C19   A    
C24   C25   A    
C28   O7    A    
C46   H18   S    
C41   H5    S    
C38   C51   S    
C25   C26   S    
C42   H9    S    
C37   H42   S    
C48   H24   S    
N2    Zn2   S    
C44   H15   S    
C2    C4    S    
C29   C30   A    
C36   C56   A    
C40   H44   S    
C21   C44   S    
C31   C32   A    
C35   C50   S    
C17   C18   A    
C34   C45   A    
C20   F3    S    
C44   H14   S    
O1    Zn1   S    
C6    C7    A    
C28   O8    A    
C1    O1    A    
C14   C41   S    
C50   H32   S    
C51   H33   S    
C43   H10   S    
C31   C48   S    
C42   H7    S    
C31   N2    A    
C48   H26   S    
C12   C34   A    
C35   C45   A    
O4    Zn2   S    
O6    Zn2   S    
C16   O6    A    
C23   C54   A    
C15   C17   A    
C4    O4    A    
C43   H11   S    
C53   H34   S    
C14   C15   A    
N1    Zn1   S    
C49   H29   S    
C3    C5    A    
C46   H17   S    
O8    Zn2   S    
C3    C52   S    
C39   H43   S    
C41   H6    S    
C22   N1    A    
C55   H41   S    
C52   H39   S    
C24   C46   S    
C32   C33   A    
O2    Zn2   S    
C12   C39   A    
C36   C55   A    
C18   C43   S    
C22   H23   S    
C2    C37   A    
C5    C6    A    
C52   H38   S    
C22   C24   A    
C47   H21   S    
C32   C49   S    
C10   C11   T    
O3    Zn1   S    
C1    O2    A    
C6    C16   S    
C50   H31   S    
C20   C21   A    
C28   C36   S    
C2    C23   A    
C48   H25   S    
O5    Zn1   S    
C41   H4    S    
C21   N1    A    
C16   O5    A    
C51   H35   S    
O7    Zn1   S    
