data_mof_unit_16870.cif
_audit_creation_date              2012-12-11T15:59:30-0500
_audit_creation_method            fapswitch 2.2
_symmetry_space_group_name_H-M    P1
_symmetry_Int_Tables_number       1
_space_group_crystal_system       triclinic
_cell_length_a                    10.738979
_cell_length_b                    10.750202
_cell_length_c                    17.104168
_cell_angle_alpha                 99.408508
_cell_angle_beta                  99.341352
_cell_angle_gamma                 61.195714
_cell_volume                      1699.02619564

loop_
_atom_site_label
_atom_site_type_symbol
_atom_type_description
_atom_site_fract_x
_atom_site_fract_y
_atom_site_fract_z
_atom_type_partial_charge
C1    C     C_R   0.355765 0.776581 0.401430 0.560478
C2    C     C_R   0.813809 0.234242 0.193291 0.002458
C3    C     C_R   0.820388 0.221576 0.274693 0.006741
C4    C     C_R   0.918022 0.387861 0.310151 -0.143425
C5    C     C_R   0.931411 0.383356 0.230891 -0.127483
C6    C     C_R   0.754285 0.161564 0.136371 -0.092535
C7    C     C_R   0.710924 0.071715 0.159320 -0.080619
C8    C     C_R   0.725572 0.053040 0.238952 -0.072996
C9    C     C_R   0.788387 0.118840 0.295436 -0.070814
C10   C     C_R   0.852139 0.317003 0.332110 -0.010113
C11   C     C_R   0.320301 0.856722 0.167597 0.017301
C12   C     C_R   0.370370 0.346791 0.357471 0.553612
C13   C     C_R   0.455594 0.811841 0.210893 -0.024273
C14   C     C_R   0.464351 0.817860 0.294519 -0.013104
C15   C     C_R   0.209024 0.892209 0.286896 -0.138720
C16   C     C_R   0.198392 0.899268 0.206999 -0.120774
C17   C     C_R   0.581132 0.763599 0.173340 -0.106329
C18   C     C_R   0.710502 0.738132 0.217829 0.153119
C19   C     C_R   0.716724 0.758595 0.301079 0.146510
C20   C     C_R   0.594800 0.799117 0.338679 -0.074314
C21   C     C_R   0.341614 0.842683 0.330437 0.008200
C22   C     C_R   0.324101 0.337182 0.818543 0.041764
C23   C     C_R   0.780084 0.373009 0.405044 0.542067
C24   C     C_R   0.451519 0.247047 0.782998 -0.015073
C25   C     C_R   0.441397 0.209235 0.700849 0.005925
C26   C     C_R   0.209797 0.419877 0.689052 -0.148924
C27   C     C_R   0.202089 0.427836 0.770610 0.095597
C28   C     C_R   0.586121 0.184582 0.827373 0.169911
C29   C     C_R   0.698869 0.063083 0.794282 -0.117352
C30   C     C_R   0.677657 0.004209 0.717622 -0.118118
C31   C     C_R   0.549852 0.076204 0.670285 0.190494
C32   C     C_R   0.330296 0.313199 0.653503 -0.007357
C33   C     C_1   0.818167 0.341541 0.708757 -0.035590
C34   C     C_R   0.358072 0.769125 0.627395 0.571108
C35   C     C_1   0.846719 0.312919 0.776317 -0.023890
C36   C     C_1   0.338695 0.810808 0.709299 -0.026377
C37   C     C_1   0.312966 0.839048 0.777362 -0.035467
C38   C     C_R   0.900270 0.306478 0.090604 0.565995
C39   C     C_R   0.318558 0.299085 0.120174 0.563389
C40   C     C_R   0.292038 0.894185 0.086523 0.538878
C41   C     C_R   0.889442 0.296075 0.858379 0.596197
C42   C     C_R   0.306277 0.293956 0.891866 0.589716
C43   C     C_R   0.278754 0.885427 0.857123 0.549954
C44   C     C_R   0.367329 0.343709 0.582317 0.563284
C45   C     C_R   0.772667 0.380955 0.629802 0.541535
C46   C     C_1   0.343411 0.336153 0.274173 -0.022125
C47   C     C_1   0.331257 0.326047 0.203425 -0.017383
C48   C     C_R   0.869762 0.316894 0.171638 0.006836
Cr1   Cr    Cr6+3 0.608100 0.610860 0.522250 1.075386
Cr2   Cr    Cr6+3 0.288890 0.599990 0.488420 1.089516
Cr3   Cr    Cr6+3 0.603040 0.289190 0.489390 1.060522
Cr4   Cr    Cr6+3 0.053960 0.052250 0.967380 1.023358
Cr5   Cr    Cr6+3 0.059890 0.373160 0.992710 1.092897
Cr6   Cr    Cr6+3 0.373370 0.061690 0.991710 1.036650
H1    H     H_    0.954204 0.450924 0.354164 0.186021
H2    H     H_    0.602385 0.824181 0.402382 0.203556
H3    H     H_    0.123258 0.499311 0.653945 0.142022
H4    H     H_    0.801291 0.011893 0.828668 0.149586
H5    H     H_    0.761842 0.904196 0.694329 0.142023
H6    H     H_    0.738537 0.174201 0.074083 0.187711
H7    H     H_    0.990867 0.432243 0.216153 0.199076
H8    H     H_    0.668059 0.014546 0.115112 0.175449
H9    H     H_    0.686920 0.988823 0.257592 0.165221
H10   H     H_    0.812156 0.086424 0.354879 0.172796
H11   H     H_    0.113806 0.917066 0.313709 0.163951
H12   H     H_    0.580030 0.747140 0.109236 0.166106
H13   H     H_    0.091829 0.939917 0.176287 0.173261
O1    O     O_R   0.749810 0.499790 0.438040 -0.493533
O2    O     O_R   0.298970 0.468800 0.557390 -0.506370
O3    O     O_R   0.489400 0.255930 0.561910 -0.469945
O4    O     O_R   0.723890 0.306050 0.584610 -0.493234
O5    O     O_3   0.500010 0.500010 0.500020 -0.275459
O6    O     O_R   0.171100 0.914680 0.053100 -0.518197
O7    O     O_R   0.941680 0.184840 0.050710 -0.500707
O8    O     O_R   0.922080 0.403420 0.072610 -0.469772
O9    O     O_R   0.196880 0.369150 0.083850 -0.477324
O10   O     O_R   0.411730 0.181020 0.091530 -0.527583
O11   O     O_R   0.365010 0.944360 0.063320 -0.511450
O12   O     O_R   0.477660 0.726260 0.439290 -0.492746
O13   O     O_R   0.159380 0.906670 0.876210 -0.535745
O14   O     O_R   0.930820 0.177420 0.886730 -0.481909
O15   O     O_R   0.910360 0.395420 0.895720 -0.487276
O16   O     O_R   0.186010 0.361730 0.919870 -0.471993
O17   O     O_R   0.400000 0.173010 0.914630 -0.489544
O18   O     O_R   0.354140 0.936940 0.899340 -0.489571
O19   O     O_3   0.162410 0.162370 0.983930 -0.276856
O20   O     O_R   0.260150 0.743000 0.412270 -0.482040
O21   O     O_R   0.297740 0.466550 0.394720 -0.470460
O22   O     O_R   0.488080 0.253500 0.386430 -0.510840
O23   O     O_R   0.722670 0.303800 0.421940 -0.520820
O24   O     O_R   0.751130 0.502220 0.613520 -0.508973
O25   O     O_R   0.478890 0.728510 0.601960 -0.459252
O26   O     O_R   0.261470 0.745430 0.587750 -0.508658
Br1   Br    Br    0.868753 0.701156 0.162448 -0.524222
Br2   Br    Br    0.885131 0.747797 0.365394 -0.523918
Br3   Br    Br    0.620783 0.274715 0.928803 -0.551795
N1    N     N_2   0.071917 0.526741 0.803418 -0.488168
H14   H     H_    0.981946 0.547966 0.764065 0.255160
C49   C     C_3   0.071910 0.655570 0.844102 -0.248861
H15   H     H_    0.080134 0.717263 0.800792 0.149063
H16   H     H_    0.162326 0.629733 0.891498 0.179310
H17   H     H_    0.970729 0.722322 0.872260 0.141850
Br4   Br    Br    0.521826 0.979129 0.569488 -0.501183

loop_
_geom_bond_atom_site_label_1
_geom_bond_atom_site_label_2
_ccdc_geom_bond_type
C28   Br3   S    
C25   C31   A    
C1    C21   S    
Cr1   O1    S    
C45   O4    A    
C9    H10   S    
C33   C45   S    
C19   C20   A    
C34   O26   A    
C20   H2    S    
Cr6   O17   S    
N1    H14   S    
C7    C8    A    
C2    C6    A    
C26   C32   A    
C17   H12   S    
C39   O10   A    
C14   C21   A    
C28   C29   A    
Cr2   O2    S    
Cr4   O7    S    
Cr3   O23   S    
C30   C31   A    
C15   C16   A    
C15   H11   S    
C40   O6    A    
C18   C19   A    
C1    O20   A    
Cr2   O5    S    
C8    C9    A    
Cr1   O5    S    
C44   O3    A    
Cr5   O19   S    
Cr3   O3    S    
C38   C48   S    
Cr2   O21   S    
Cr6   O10   S    
C25   C32   A    
C13   C14   A    
Cr5   O8    S    
Cr3   O4    S    
Cr1   O24   S    
C45   O24   A    
N1    C49   S    
C38   O8    A    
C5    C48   A    
C12   O21   A    
C43   O18   A    
C14   C20   A    
C12   O22   A    
C42   O17   A    
C24   C25   A    
C12   C46   S    
Cr4   O6    S    
Cr6   O19   S    
C2    C48   A    
C43   O13   A    
Cr1   O12   S    
Cr5   O15   S    
C31   Br4   S    
C23   O1    A    
C37   C43   S    
C7    H8    S    
C29   C30   A    
C3    C9    A    
C6    H6    S    
C11   C16   A    
C49   H15   S    
C41   O14   A    
C30   H5    S    
C17   C18   A    
C32   C44   S    
C23   O23   A    
C5    H7    S    
C44   O2    A    
C16   H13   S    
C39   O9    A    
Cr2   O20   S    
C40   O11   A    
C49   H16   S    
C22   C27   A    
C4    H1    S    
C26   C27   A    
C18   Br1   S    
C22   C24   A    
Cr5   O9    S    
Cr3   O5    S    
Cr1   O25   S    
C4    C10   A    
C19   Br2   S    
C39   C47   S    
C38   O7    A    
C46   C47   T    
C27   N1    S    
C42   O16   A    
C24   C28   A    
C4    C5    A    
Cr4   O14   S    
Cr6   O18   S    
Cr2   O26   S    
C6    C7    A    
C10   C23   S    
C13   C17   A    
Cr5   O16   S    
Cr4   O19   S    
C2    C3    A    
C3    C10   A    
Cr3   O22   S    
C11   C13   A    
C22   C42   S    
C1    O12   A    
C41   O15   A    
C33   C35   T    
C34   C36   S    
C11   C40   S    
C35   C41   S    
C26   H3    S    
C34   O25   A    
C8    H9    S    
C15   C21   A    
C49   H17   S    
C29   H4    S    
C36   C37   T    
Cr4   O13   S    
Cr6   O11   S    
