data_mof_unit_8557.cif
_audit_creation_date              2012-12-10T18:37:19-0500
_audit_creation_method            fapswitch 2.2
_symmetry_space_group_name_H-M    P1
_symmetry_Int_Tables_number       1
_space_group_crystal_system       triclinic
_cell_length_a                    15.162627
_cell_length_b                    13.8638
_cell_length_c                    10.780768
_cell_angle_alpha                 89.319467
_cell_angle_beta                  90.485069
_cell_angle_gamma                 89.543886
_cell_volume                      2265.9280892

loop_
_atom_site_label
_atom_site_type_symbol
_atom_type_description
_atom_site_fract_x
_atom_site_fract_y
_atom_site_fract_z
_atom_type_partial_charge
C1    C     C_R   0.330414 0.500220 0.500768 0.764475
C2    C     C_3   0.585912 0.556847 0.924132 -0.435834
C3    C     C_R   0.097060 0.562652 0.420471 -0.175441
C4    C     C_R   0.098298 0.439102 0.582200 -0.158708
C5    C     C_R   0.188598 0.562531 0.421107 -0.176765
C6    C     C_R   0.189982 0.438114 0.581263 -0.227628
C7    C     C_R   0.235004 0.500554 0.501507 -0.020895
C8    C     C_R   0.051172 0.501357 0.501641 0.132835
C9    C     C_R   0.909364 0.413465 0.503545 -0.210366
C10   C     C_R   0.907317 0.587031 0.485445 -0.204876
C11   C     C_R   0.817657 0.411079 0.494443 -0.008259
C12   C     C_R   0.815675 0.587584 0.473846 -0.012839
C13   C     C_R   0.768518 0.499197 0.484776 -0.155133
C14   C     C_R   0.954343 0.500751 0.499567 0.050832
C15   C     C_R   0.551654 0.108394 0.590757 -0.281328
C16   C     C_R   0.571975 0.889299 0.558177 -0.255215
C17   C     C_R   0.502003 0.500689 0.259675 0.880247
C18   C     C_R   0.549570 0.209842 0.586439 0.031294
C19   C     C_R   0.567778 0.787909 0.557474 0.011331
C20   C     C_R   0.451457 0.209472 0.414702 0.676219
C21   C     C_R   0.433354 0.793471 0.443202 0.690434
C22   C     C_R   0.456606 0.107726 0.411328 -0.356959
C23   C     C_R   0.432887 0.895498 0.451230 -0.397882
C24   C     C_R   0.504546 0.054839 0.502345 0.106597
C25   C     C_R   0.503779 0.945456 0.504146 0.091087
C26   C     C_R   0.670609 0.499699 0.494019 0.834822
C27   C     C_R   0.502545 0.499238 0.739945 0.772412
C28   C     C_3   0.416709 0.540109 0.068473 -0.448720
C29   C     C_3   0.515461 0.395459 0.074920 -0.446717
C30   C     C_3   0.419718 0.548892 0.925475 0.302314
C31   C     C_3   0.507065 0.392717 0.932944 0.255815
C32   C     C_3   0.587237 0.564630 0.069275 -0.072110
C33   C     C_3   0.506503 0.501985 0.121428 -0.074598
C34   C     C_3   0.505376 0.498323 0.877328 -0.059844
Cu1   Cu    Cu3+1 0.499990 0.596430 0.500000 1.014411
Cu2   Cu    Cu3+1 0.499990 0.403570 0.500000 1.011926
H1    H     H_    0.396283 0.609255 0.109617 0.230308
H2    H     H_    0.577054 0.360416 0.108814 0.235117
H3    H     H_    0.589574 0.072881 0.663632 0.148604
H4    H     H_    0.628677 0.922767 0.600653 0.166294
H5    H     H_    0.587722 0.249963 0.652606 0.183185
H6    H     H_    0.619677 0.746457 0.602772 0.172016
H7    H     H_    0.423507 0.071249 0.336379 0.147717
H8    H     H_    0.376388 0.935800 0.417780 0.148740
H9    H     H_    0.363517 0.488945 0.094625 0.114986
H10   H     H_    0.461724 0.350357 0.114133 0.206485
H11   H     H_    0.361938 0.509143 0.886498 0.005389
H12   H     H_    0.439593 0.364615 0.914547 0.114766
H13   H     H_    0.583244 0.629825 0.879804 0.229298
H14   H     H_    0.648199 0.527581 0.887046 0.146000
H15   H     H_    0.062282 0.609252 0.354898 0.133109
H16   H     H_    0.064283 0.391789 0.646191 0.137988
H17   H     H_    0.223396 0.608483 0.356545 0.160461
H18   H     H_    0.225784 0.389871 0.643822 0.137216
H19   H     H_    0.946281 0.346182 0.508825 0.151001
H20   H     H_    0.942600 0.654669 0.480133 0.158700
N1    N     N_R   0.500020 0.258690 0.500000 -0.209263
N2    N     N_R   0.500020 0.741310 0.500000 -0.211751
O1    O     O_R   0.371450 0.581430 0.500010 -0.533705
O2    O     O_R   0.371450 0.418570 0.500010 -0.588474
O3    O     O_R   0.499980 0.581440 0.317690 -0.538546
O4    O     O_R   0.499980 0.418560 0.317690 -0.527620
O5    O     O_R   0.628540 0.581440 0.499990 -0.589062
O6    O     O_R   0.628540 0.418560 0.499990 -0.562771
O7    O     O_R   0.500010 0.581440 0.682310 -0.562167
O8    O     O_R   0.500010 0.418560 0.682310 -0.581588
C35   C     C_2   0.777947 0.314009 0.490043 0.859170
O9    O     O_2   0.734285 0.290254 0.399669 -0.542174
O10   O     O_R   0.794651 0.247970 0.586502 -0.792775
H21   H     H_    0.764776 0.183767 0.572697 0.327861
C36   C     C_2   0.773802 0.681871 0.442503 0.856514
O11   O     O_2   0.793053 0.753475 0.501823 -0.612709
O12   O     O_R   0.715897 0.689863 0.341247 -0.717386
H22   H     H_    0.692162 0.757901 0.328851 0.341651
O13   O     O_3   0.404104 0.260803 0.325250 -0.574275
C37   C     C_3   0.313780 0.235351 0.324725 0.039298
H23   H     H_    0.274336 0.300653 0.346938 0.183697
H24   H     H_    0.295296 0.178680 0.393991 0.116356
C38   C     C_3   0.287153 0.202694 0.195529 -0.830015
H25   H     H_    0.324994 0.137014 0.170341 0.244081
H26   H     H_    0.215658 0.186006 0.193298 0.216451
H27   H     H_    0.300500 0.260773 0.126479 0.245329
O14   O     O_3   0.363564 0.743944 0.389306 -0.561977
C39   C     C_3   0.328581 0.789054 0.280529 0.057022
H28   H     H_    0.320639 0.732825 0.209146 0.173957
H29   H     H_    0.372144 0.844496 0.238144 0.129923
C40   C     C_3   0.237125 0.831305 0.305000 -0.852072
H30   H     H_    0.238953 0.883870 0.381590 0.246049
H31   H     H_    0.211911 0.868416 0.219870 0.217281
H32   H     H_    0.190565 0.773225 0.330461 0.249484
O15   O     O_3   0.419021 0.648040 0.890043 -0.543838
C41   C     C_3   0.333397 0.679016 0.855002 0.091662
H33   H     H_    0.286255 0.667711 0.932398 0.122600
H34   H     H_    0.310350 0.639617 0.771459 0.148126
C42   C     C_3   0.335582 0.786027 0.822757 -0.738551
H35   H     H_    0.381634 0.799011 0.744787 0.253841
H36   H     H_    0.268617 0.811379 0.794642 0.195990
H37   H     H_    0.357840 0.827532 0.904624 0.240790
O16   O     O_3   0.562564 0.322177 0.876852 -0.567952
C43   C     C_3   0.653955 0.341054 0.881872 0.080773
H38   H     H_    0.674665 0.381947 0.964166 0.156353
H39   H     H_    0.673458 0.380464 0.796174 0.150430
C44   C     C_3   0.704492 0.245807 0.887826 -0.722676
H40   H     H_    0.688249 0.200720 0.806635 0.238548
H41   H     H_    0.776512 0.259787 0.888331 0.221393
H42   H     H_    0.687309 0.205657 0.973942 0.250790
C45   C     C_2   0.583806 0.672983 0.099324 0.925605
O17   O     O_2   0.645903 0.724068 0.069647 -0.557013
O18   O     O_R   0.510786 0.716416 0.154125 -0.764553
H43   H     H_    0.518861 0.788141 0.166978 0.314156
C46   C     C_2   0.676691 0.527897 0.119370 0.797586
O19   O     O_2   0.681579 0.471148 0.206856 -0.605366
O20   O     O_R   0.754558 0.561603 0.065736 -0.719044
H44   H     H_    0.809442 0.533359 0.106998 0.340246

loop_
_geom_bond_atom_site_label_1
_geom_bond_atom_site_label_2
_ccdc_geom_bond_type
C15   C18   A    
C40   H30   S    
C32   C46   S    
O12   H22   S    
C42   H35   S    
C37   C38   S    
C4    C8    A    
C42   H37   S    
C4    H16   S    
Cu1   N2    S    
C2    C32   S    
C5    H17   S    
C37   H24   S    
C1    O1    A    
Cu2   O8    S    
Cu1   O7    S    
C29   C33   S    
Cu1   O1    S    
C26   O6    A    
C41   H33   S    
C2    H14   S    
C17   O3    A    
C39   H28   S    
C44   H41   S    
O14   C39   S    
C32   C45   S    
C29   H2    S    
C8    C14   S    
C45   O17   D    
C39   C40   S    
C9    H19   S    
C31   O16   S    
C10   H20   S    
C19   H6    S    
C2    C34   S    
C23   C25   A    
C19   N2    A    
C45   O18   S    
C17   C33   S    
C6    H18   S    
Cu2   O4    S    
C41   H34   S    
C11   C35   S    
C27   C34   S    
C28   H9    S    
C30   C34   S    
C35   O9    D    
C21   O14   S    
C30   H11   S    
C24   C25   S    
C46   O20   S    
C3    C8    A    
C10   C14   A    
C1    O2    A    
O15   C41   S    
C5    C7    A    
C9    C14   A    
C3    H15   S    
C3    C5    A    
C43   C44   S    
C23   H8    S    
C20   O13   S    
C35   O10   S    
Cu1   Cu2   S    
O13   C37   S    
C27   O7    A    
C2    H13   S    
C17   O4    A    
C18   N1    A    
O16   C43   S    
C43   H39   S    
C31   C34   S    
Cu1   O3    S    
C37   H23   S    
C9    C11   A    
C15   H3    S    
C10   C12   A    
C16   H4    S    
C4    C6    A    
C15   C24   A    
C12   C36   S    
C20   C22   A    
C28   C33   S    
Cu2   N1    S    
C31   H12   S    
C21   C23   A    
C22   C24   A    
C13   C26   S    
C18   H5    S    
C36   O12   S    
O20   H44   S    
C16   C25   A    
C26   O5    A    
C46   O19   D    
C1    C7    S    
C39   H29   S    
C30   O15   S    
Cu2   O2    S    
C38   H27   S    
C42   H36   S    
C6    C7    A    
C38   H26   S    
C29   H10   S    
C32   C33   S    
C28   C30   S    
C36   O11   D    
C29   C31   S    
C27   O8    A    
O18   H43   S    
C11   C13   A    
C28   H1    S    
C16   C19   A    
C43   H38   S    
C44   H42   S    
C41   C42   S    
O10   H21   S    
C38   H25   S    
C21   N2    A    
C12   C13   A    
C40   H32   S    
C44   H40   S    
C40   H31   S    
Cu1   O5    S    
C20   N1    A    
Cu2   O6    S    
C22   H7    S    
