data_mof_unit_38258.cif
_audit_creation_date              2012-10-26T18:34:45-0400
_audit_creation_method            fapswitch 2.2
_symmetry_space_group_name_H-M    P1
_symmetry_Int_Tables_number       1
_space_group_crystal_system       triclinic
_cell_length_a                    10.813691
_cell_length_b                    9.509426
_cell_length_c                    17.708452
_cell_angle_alpha                 89.262701
_cell_angle_beta                  90.168581
_cell_angle_gamma                 90.030463
_cell_volume                      1820.8365624

loop_
_atom_site_label
_atom_site_type_symbol
_atom_type_description
_atom_site_fract_x
_atom_site_fract_y
_atom_site_fract_z
_atom_type_partial_charge
C1    C     C_R   0.262145 0.499979 0.499960 0.608701
C2    C     C_R   0.500989 0.499179 0.644411 0.612797
C3    C     C_R   0.871608 0.500028 0.500022 -0.098990
C4    C     C_R   0.128369 0.499970 0.499981 -0.091293
C5    C     C_R   0.576360 0.604423 0.843801 0.231411
C6    C     C_R   0.575963 0.397525 0.156158 0.226558
C7    C     C_R   0.443793 0.605261 0.151733 0.223264
C8    C     C_R   0.445246 0.395691 0.848306 0.213194
C9    C     C_R   0.573208 0.601881 0.764799 0.315535
C10   C     C_R   0.572583 0.398983 0.235158 0.317193
C11   C     C_R   0.442337 0.606984 0.230952 0.300661
C12   C     C_R   0.737849 0.500021 0.500042 0.611278
C13   C     C_R   0.443541 0.393209 0.769131 0.304617
C14   C     C_R   0.505276 0.498082 0.727213 -0.041676
C15   C     C_R   0.504517 0.502164 0.272803 -0.043473
C16   C     C_R   0.423828 0.075509 0.452568 0.075630
C17   C     C_R   0.576206 0.924493 0.547413 0.070693
C18   C     C_R   0.576173 0.073382 0.547432 0.074036
C19   C     C_R   0.423820 0.926617 0.452572 0.068699
C20   C     C_R   0.513860 0.499870 0.885287 -0.069827
C21   C     C_R   0.513294 0.502284 0.114719 -0.066902
C22   C     C_3   0.593739 0.833681 0.879288 0.043374
C23   C     C_1   0.517451 0.501046 0.966154 0.072515
C24   C     C_3   0.692578 0.945739 0.892169 -0.262270
C25   C     C_3   0.636452 0.092747 0.894248 -0.452563
C26   C     C_3   0.592623 0.169264 0.119201 0.042805
C27   C     C_3   0.690746 0.056978 0.105653 -0.259602
C28   C     C_3   0.633794 0.910360 0.102772 -0.449230
C29   C     C_3   0.258151 0.698761 0.111455 0.049153
C30   C     C_3   0.213555 0.631558 0.038201 -0.301087
C31   C     C_3   0.072865 0.635863 0.031560 -0.469093
C32   C     C_3   0.260972 0.311788 0.892237 0.035763
C33   C     C_3   0.204327 0.209056 0.949554 -0.265481
C34   C     C_1   0.517321 0.501911 0.033865 0.074802
C35   C     C_3   0.063842 0.223188 0.952722 -0.471825
C36   C     C_R   0.063734 0.389012 0.466416 0.346994
C37   C     C_R   0.936233 0.610965 0.533610 0.354126
C38   C     C_R   0.935761 0.389053 0.466421 0.356981
C39   C     C_R   0.064206 0.610967 0.533561 0.350085
C40   C     C_R   0.500704 0.500837 0.355592 0.612349
Cu1   Cu    Cu3+1 0.500000 0.640660 0.500000 1.112057
Cu2   Cu    Cu3+1 0.500000 0.359340 0.500000 1.120603
F1    F     F_    0.640999 0.697518 0.724974 -0.594615
F2    F     F_    0.640258 0.302903 0.274941 -0.567621
F3    F     F_    0.379742 0.710500 0.266656 -0.624433
F4    F     F_    0.381718 0.288786 0.733445 -0.605545
F5    F     F_    0.124125 0.282526 0.431836 -0.564227
F6    F     F_    0.875832 0.717384 0.568246 -0.540252
F7    F     F_    0.874870 0.282610 0.431833 -0.516787
F8    F     F_    0.125086 0.717476 0.568092 -0.542396
H1    H     H_    0.362850 0.132524 0.414569 0.170910
H2    H     H_    0.710097 0.171214 0.905517 0.155680
H3    H     H_    0.566241 0.098749 0.939682 0.181064
H4    H     H_    0.523004 0.167361 0.072822 0.123385
H5    H     H_    0.545204 0.142949 0.173477 0.180761
H6    H     H_    0.739171 0.080319 0.051740 0.161413
H7    H     H_    0.760215 0.059513 0.152016 0.217456
H8    H     H_    0.590679 0.883042 0.157893 0.211157
H9    H     H_    0.706753 0.831749 0.090668 0.157587
H10   H     H_    0.562588 0.905833 0.057608 0.177691
H11   H     H_    0.218520 0.806237 0.115065 0.171993
H12   H     H_    0.637253 0.867495 0.585369 0.207162
H13   H     H_    0.221645 0.637949 0.160942 0.170139
H14   H     H_    0.254477 0.688444 0.989033 0.174770
H15   H     H_    0.244709 0.520323 0.037073 0.154425
H16   H     H_    0.030024 0.574213 0.078339 0.171833
H17   H     H_    0.043981 0.589865 0.976981 0.162090
H18   H     H_    0.039226 0.746144 0.033278 0.155212
H19   H     H_    0.219012 0.292542 0.835855 0.211557
H20   H     H_    0.239076 0.421181 0.909772 0.110153
H21   H     H_    0.228230 0.099591 0.933803 0.184731
H22   H     H_    0.243665 0.229540 0.006452 0.161671
H23   H     H_    0.637151 0.128710 0.585416 0.138598
H24   H     H_    0.037604 0.330622 0.970393 0.159887
H25   H     H_    0.026051 0.146318 0.994388 0.153472
H26   H     H_    0.022381 0.201587 0.896583 0.164566
H27   H     H_    0.362815 0.871288 0.414608 0.174925
H28   H     H_    0.524094 0.837491 0.925333 0.124212
H29   H     H_    0.546433 0.858682 0.824649 0.182674
H30   H     H_    0.741453 0.923256 0.946200 0.163662
H31   H     H_    0.761552 0.941890 0.845816 0.213435
H32   H     H_    0.592329 0.119011 0.839133 0.208439
N1    N     N_R   0.500000 0.852070 0.500000 -0.250472
N2    N     N_R   0.500000 0.147930 0.500000 -0.234835
O1    O     O_R   0.319640 0.618740 0.499990 -0.462280
O2    O     O_3   0.650929 0.302275 0.119754 -0.524858
O3    O     O_3   0.388492 0.712737 0.110319 -0.562632
O4    O     O_3   0.389877 0.288955 0.889934 -0.560149
O5    O     O_R   0.680360 0.381260 0.500010 -0.459305
O6    O     O_R   0.680360 0.618740 0.500010 -0.462173
O7    O     O_R   0.319640 0.381260 0.499990 -0.460642
O8    O     O_R   0.500000 0.618830 0.391250 -0.477510
O9    O     O_R   0.500000 0.381170 0.608750 -0.477767
O10   O     O_R   0.500000 0.618830 0.608750 -0.461965
O11   O     O_R   0.500000 0.381170 0.391250 -0.463087
O12   O     O_3   0.651207 0.700217 0.880238 -0.525721

loop_
_geom_bond_atom_site_label_1
_geom_bond_atom_site_label_2
_ccdc_geom_bond_type
C31   H16   S    
C4    C36   A    
C35   H24   S    
C8    C13   A    
C30   H14   S    
Cu2   O9    S    
Cu1   Cu2   S    
C16   H1    S    
C24   H31   S    
C26   H5    S    
C29   H13   S    
C5    C20   A    
C7    C11   A    
C35   H25   S    
C26   C27   S    
C8    C20   A    
C12   O6    A    
C25   H3    S    
C22   H29   S    
C10   C15   A    
C30   C31   S    
C32   O4    S    
C16   N2    A    
C36   F5    S    
Cu2   O7    S    
C19   H27   S    
C3    C12   S    
C33   H22   S    
C11   C15   A    
C24   H30   S    
C7    O3    S    
C3    C38   A    
C18   N2    A    
C20   C23   S    
Cu1   O6    S    
C1    O7    A    
C13   C14   A    
C19   N1    A    
C26   H4    S    
C28   H10   S    
C1    O1    A    
C31   H18   S    
C29   H11   S    
C35   H26   S    
C9    F1    S    
C10   F2    S    
Cu2   O11   S    
C12   O5    A    
C2    O10   A    
Cu2   N2    S    
C24   C25   S    
C22   H28   S    
C27   H7    S    
C38   F7    S    
C27   H6    S    
C32   H20   S    
C21   C34   S    
C7    C21   A    
C6    C21   A    
C17   N1    A    
C31   H17   S    
C9    C14   A    
C5    C9    A    
C29   C30   S    
C17   H12   S    
Cu1   O10   S    
C4    C39   A    
C26   O2    S    
C23   C34   T    
Cu1   O8    S    
C17   C18   A    
C40   O8    A    
C37   F6    S    
C18   H23   S    
C25   H32   S    
C22   C24   S    
C11   F3    S    
C40   O11   A    
C5    O12   S    
C28   H9    S    
C22   O12   S    
C2    O9    A    
C6    C10   A    
C32   H19   S    
C28   H8    S    
Cu1   O1    S    
C6    O2    S    
Cu2   O5    S    
C32   C33   S    
C1    C4    S    
C36   C38   A    
C25   H2    S    
C37   C39   A    
C13   F4    S    
C16   C19   A    
C33   C35   S    
C2    C14   S    
C15   C40   S    
C29   O3    S    
C30   H15   S    
C33   H21   S    
C39   F8    S    
C3    C37   A    
C27   C28   S    
C8    O4    S    
Cu1   N1    S    
