data_mof_unit_35443.cif
_audit_creation_date              2012-12-10T20:35:49-0500
_audit_creation_method            fapswitch 2.2
_symmetry_space_group_name_H-M    P1
_symmetry_Int_Tables_number       1
_space_group_crystal_system       triclinic
_cell_length_a                    15.720657
_cell_length_b                    10.647757
_cell_length_c                    9.85904
_cell_angle_alpha                 89.519924
_cell_angle_beta                  89.154436
_cell_angle_gamma                 89.822192
_cell_volume                      1650.05713745

loop_
_atom_site_label
_atom_site_type_symbol
_atom_type_description
_atom_site_fract_x
_atom_site_fract_y
_atom_site_fract_z
_atom_type_partial_charge
C1    C     C_R   0.503910 0.259975 0.500354 0.911425
C2    C     C_3   0.947694 0.488084 0.652229 0.327808
C3    C     C_3   0.916792 0.507301 0.503180 0.151642
C4    C     C_3   0.947860 0.637001 0.446250 0.310409
C5    C     C_3   0.046317 0.635639 0.434925 -0.390145
C6    C     C_1   0.825605 0.502659 0.498455 -0.097779
C7    C     C_1   0.173489 0.517456 0.506383 -0.090954
C8    C     C_1   0.248976 0.511509 0.503726 -0.214732
C9    C     C_R   0.532874 0.063158 0.620043 0.036650
C10   C     C_R   0.522286 0.129474 0.499530 -0.151184
C11   C     C_R   0.532094 0.067664 0.375383 -0.316538
C12   C     C_R   0.338094 0.502716 0.501035 0.902396
C13   C     C_R   0.535302 0.937651 0.372521 0.475470
C14   C     C_R   0.523334 0.871124 0.496310 -0.242627
C15   C     C_R   0.531923 0.934961 0.618324 -0.077897
C16   C     C_3   0.487586 0.928688 0.754750 0.395145
C17   C     C_3   0.488592 0.072008 0.755289 -0.531112
C18   C     C_R   0.432797 0.451376 0.073238 0.218609
C19   C     C_R   0.570559 0.533106 0.070006 -0.134497
C20   C     C_R   0.570329 0.534313 0.926093 -0.133764
C21   C     C_R   0.432698 0.451602 0.930617 0.217761
C22   C     C_3   0.343289 0.498058 0.927057 -0.511661
C23   C     C_R   0.504776 0.740134 0.498998 0.898403
C24   C     C_3   0.343505 0.497320 0.081029 -0.497845
C25   C     C_R   0.661662 0.499573 0.499008 0.891140
C26   C     C_3   0.045224 0.513612 0.656207 0.310036
C27   C     C_3   0.052133 0.399381 0.429841 -0.492109
C28   C     C_3   0.954951 0.402026 0.413527 -0.465035
C29   C     C_1   0.750386 0.500575 0.497165 -0.212089
C30   C     C_3   0.081652 0.517316 0.507705 0.171273
H1    H     H_    0.923258 0.649658 0.341052 0.060794
H2    H     H_    0.529749 0.118527 0.279932 0.185090
H3    H     H_    0.530208 0.887796 0.832637 0.115460
H4    H     H_    0.425353 0.118357 0.750254 0.201416
H5    H     H_    0.531042 0.111194 0.833372 0.173265
H6    H     H_    0.627090 0.561556 0.122527 0.135661
H7    H     H_    0.076161 0.435251 0.713604 0.087130
H8    H     H_    0.626332 0.565558 0.870673 0.144280
H9    H     H_    0.338236 0.593875 0.881988 0.232869
H10   H     H_    0.299396 0.427526 0.884208 0.197014
H11   H     H_    0.339125 0.592503 0.126167 0.229002
H12   H     H_    0.083099 0.395371 0.327603 0.193820
H13   H     H_    0.070869 0.312837 0.486283 0.205420
H14   H     H_    0.939434 0.419756 0.305235 0.171951
N1    N     N_R   0.499430 0.499140 0.142800 -0.098229
N2    N     N_R   0.499430 0.499180 0.857150 -0.097157
O1    O     O_R   0.500010 0.316790 0.614690 -0.614189
O2    O     O_R   0.500000 0.316760 0.385350 -0.627480
O3    O     O_R   0.377150 0.500020 0.614720 -0.616581
O4    O     O_R   0.377140 0.499990 0.385380 -0.613977
O5    O     O_R   0.500000 0.683240 0.614650 -0.594948
O6    O     O_R   0.499990 0.683210 0.385310 -0.571402
O7    O     O_R   0.622860 0.500010 0.614620 -0.631537
O8    O     O_R   0.622850 0.499980 0.385280 -0.627481
Zn1   Zn    Zn3+2 0.500010 0.500020 0.653130 0.949518
Zn2   Zn    Zn3+2 0.499990 0.499980 0.346870 0.953871
O9    O     O_3   0.932212 0.362494 0.696999 -0.677528
C31   C     C_3   0.860064 0.352981 0.784367 0.076663
H15   H     H_    0.832357 0.258141 0.770710 0.175566
H16   H     H_    0.808853 0.421486 0.759459 0.136693
C32   C     C_3   0.885934 0.366461 0.932677 -0.382264
H17   H     H_    0.936505 0.296846 0.956492 0.233879
H18   H     H_    0.911564 0.462017 0.949030 0.203571
C33   C     C_3   0.810137 0.345705 0.028837 -0.950753
H19   H     H_    0.759284 0.415602 0.007919 0.259359
H20   H     H_    0.830581 0.356666 0.135352 0.261666
H21   H     H_    0.784273 0.249548 0.016843 0.269460
O10   O     O_3   0.056697 0.632543 0.717859 -0.639957
C34   C     C_3   0.123360 0.632918 0.811938 0.081242
H22   H     H_    0.143460 0.732064 0.821601 0.190255
H23   H     H_    0.180258 0.579536 0.776230 0.123921
C35   C     C_3   0.092664 0.584357 0.951041 -0.372764
H24   H     H_    0.025119 0.611521 0.968682 0.230702
H25   H     H_    0.096778 0.480127 0.952964 0.195975
C36   C     C_3   0.145828 0.637782 0.065393 -0.951933
H26   H     H_    0.211174 0.660210 0.029749 0.271870
H27   H     H_    0.149896 0.568345 0.149595 0.261346
H28   H     H_    0.116393 0.725879 0.103568 0.258066
H29   H     H_    0.915244 0.558444 0.719098 0.131417
O11   O     O_3   0.533684 0.878707 0.248078 -0.618570
C37   C     C_3   0.617425 0.867255 0.194684 0.129225
H30   H     H_    0.619102 0.780428 0.133714 0.169820
H31   H     H_    0.666707 0.854877 0.274222 0.089480
C38   C     C_3   0.639565 0.978634 0.100931 -0.400779
H32   H     H_    0.582793 0.005838 0.041626 0.234073
H33   H     H_    0.658789 0.060228 0.162757 0.212477
C39   C     C_3   0.712136 0.946569 0.002416 -0.973099
H34   H     H_    0.769638 0.917280 0.058723 0.269307
H35   H     H_    0.727955 0.030322 0.939207 0.265398
H36   H     H_    0.692938 0.869452 0.934194 0.259091
O12   O     O_3   0.405653 0.871424 0.762199 -0.617708
C40   C     C_3   0.347264 0.908053 0.660637 0.124277
H37   H     H_    0.332299 0.823446 0.600297 0.151556
H38   H     H_    0.370698 0.981068 0.588375 0.129289
C41   C     C_3   0.265646 0.956046 0.728886 -0.358768
H39   H     H_    0.245038 0.888609 0.809163 0.227037
H40   H     H_    0.278186 0.047554 0.777964 0.212191
C42   C     C_3   0.194293 0.972727 0.626889 -0.964703
H41   H     H_    0.213331 0.041343 0.546630 0.260099
H42   H     H_    0.136276 0.008319 0.679629 0.276124
H43   H     H_    0.179077 0.881400 0.579433 0.268307
H44   H     H_    0.299823 0.426327 0.126888 0.204586
H45   H     H_    0.927902 0.308777 0.441907 0.235027
H46   H     H_    0.073345 0.722784 0.478266 0.220640
H47   H     H_    0.065633 0.634839 0.326436 0.134367
O13   O     O_3   0.922070 0.734348 0.536200 -0.618111
C43   C     C_3   0.865244 0.820618 0.475458 0.093206
H48   H     H_    0.828404 0.866165 0.558662 0.171386
H49   H     H_    0.817593 0.774021 0.410216 0.106197
C44   C     C_3   0.914404 0.922243 0.396282 -0.359172
H50   H     H_    0.964633 0.961752 0.461556 0.242845
H51   H     H_    0.945646 0.880154 0.305545 0.203712
C45   C     C_3   0.855623 0.028486 0.350902 -0.967358
H52   H     H_    0.803831 0.991145 0.287704 0.265807
H53   H     H_    0.892448 0.098316 0.290004 0.268276
H54   H     H_    0.827291 0.076530 0.440468 0.266235

loop_
_geom_bond_atom_site_label_1
_geom_bond_atom_site_label_2
_ccdc_geom_bond_type
C39   H34   S    
C32   C33   S    
C18   C21   A    
C19   C20   A    
C28   H45   S    
C38   C39   S    
C3    C6    S    
C12   O3    A    
O9    C31   S    
C41   C42   S    
C7    C8    T    
C26   H7    S    
C5    H47   S    
C18   C24   S    
C3    C28   S    
C38   H33   S    
C21   N2    A    
C19   H6    S    
O11   C37   S    
O13   C43   S    
C31   H16   S    
C15   C16   S    
C34   H23   S    
C32   H18   S    
C44   H50   S    
C2    H29   S    
O10   C34   S    
C41   H39   S    
N1    Zn2   S    
C16   C17   S    
N2    Zn1   S    
C43   H48   S    
C9    C10   A    
C24   H44   S    
C45   H54   S    
C31   C32   S    
C13   O11   S    
C7    C30   S    
C21   C22   S    
C27   C30   S    
C24   H11   S    
C43   H49   S    
C34   H22   S    
C35   C36   S    
C37   H31   S    
C37   H30   S    
O7    Zn1   S    
C25   C29   S    
O8    Zn2   S    
C2    O9    S    
C33   H21   S    
C25   O8    A    
C35   H25   S    
O12   C40   S    
C1    O1    A    
C31   H15   S    
O3    Zn1   S    
C4    O13   S    
C28   H14   S    
C40   C41   S    
O4    Zn2   S    
C19   N1    A    
C33   H20   S    
C14   C23   S    
C34   C35   S    
C36   H26   S    
C16   H3    S    
C20   H8    S    
C23   O5    A    
C8    C12   S    
C22   H10   S    
C40   H38   S    
C2    C26   S    
C38   H32   S    
C36   H27   S    
C44   C45   S    
C9    C17   S    
C11   H2    S    
C26   C30   S    
C42   H42   S    
C39   H35   S    
C43   C44   S    
C22   C24   S    
C17   H4    S    
C3    C4    S    
C18   N1    A    
C37   C38   S    
O1    Zn1   S    
C45   H52   S    
O2    Zn2   S    
C1    C10   S    
C25   O7    A    
C35   H24   S    
C12   O4    A    
C41   H40   S    
C1    O2    A    
C42   H43   S    
C26   O10   S    
C33   H19   S    
C2    C3    S    
C9    C15   A    
C11   C13   A    
C27   H12   S    
C23   O6    A    
C22   H9    S    
C40   H37   S    
O5    Zn1   S    
C32   H17   S    
C36   H28   S    
C44   H51   S    
C5    H46   S    
C4    H1    S    
C10   C11   A    
C27   H13   S    
C4    C5    S    
C6    C29   T    
C16   O12   S    
C42   H41   S    
C5    C30   S    
C39   H36   S    
C27   C28   S    
C14   C15   A    
C17   H5    S    
C13   C14   A    
C20   N2    A    
O6    Zn2   S    
C45   H53   S    
