data_mof_unit_35057.cif
_audit_creation_date              2012-12-11T20:10:12-0500
_audit_creation_method            fapswitch 2.2
_symmetry_space_group_name_H-M    P1
_symmetry_Int_Tables_number       1
_space_group_crystal_system       triclinic
_cell_length_a                    8.34622
_cell_length_b                    16.003926
_cell_length_c                    18.81411
_cell_angle_alpha                 111.723821
_cell_angle_beta                  90.908467
_cell_angle_gamma                 83.74405
_cell_volume                      2319.84652402

loop_
_atom_site_label
_atom_site_type_symbol
_atom_type_description
_atom_site_fract_x
_atom_site_fract_y
_atom_site_fract_z
_atom_type_partial_charge
Ba1   Ba    Ba6+2 0.333520 0.539550 0.472180 1.648852
Ba2   Ba    Ba6+2 0.856270 0.460520 0.527840 1.650694
C1    C     C_3   0.101621 0.860331 0.344119 -0.457538
C2    C     C_R   0.463509 0.395313 0.074581 0.046004
C3    C     C_R   0.336210 0.346078 0.041717 -0.104740
C4    C     C_3   0.490774 0.710517 0.310579 0.342997
C5    C     C_R   0.269718 0.350087 0.974963 -0.088011
C6    C     C_R   0.332966 0.400685 0.936270 0.010371
C7    C     C_R   0.470614 0.444441 0.965488 0.007335
C8    C     C_R   0.257653 0.411017 0.871489 -0.059633
C9    C     C_R   0.337118 0.450603 0.826192 -0.082552
C10   C     C_R   0.480387 0.491930 0.854880 -0.001642
C11   C     C_R   0.541609 0.491715 0.926251 -0.007035
C12   C     C_3   0.056298 0.772277 0.348628 0.307427
C13   C     C_R   0.284094 0.448767 0.752625 -0.003544
C14   C     C_R   0.377148 0.482582 0.709469 -0.280198
C15   C     C_R   0.511427 0.528737 0.738546 0.053190
C16   C     C_3   0.493109 0.728567 0.236675 -0.391363
C17   C     C_R   0.560800 0.535976 0.813880 -0.049943
C18   C     C_R   0.666037 0.490241 0.068263 -0.003548
C19   C     C_R   0.723089 0.492619 0.140746 -0.002743
C20   C     C_R   0.642604 0.449763 0.181933 -0.052297
C21   C     C_R   0.518880 0.397857 0.145951 -0.056689
C22   C     C_R   0.688977 0.585628 0.849768 -0.043839
C23   C     C_3   0.093444 0.330149 0.279747 0.348411
C24   C     C_R   0.748332 0.585390 0.920136 0.026389
C25   C     C_R   0.676437 0.537397 0.958128 0.012380
C26   C     C_R   0.739202 0.535990 0.028611 0.020826
C27   C     C_R   0.883304 0.630084 0.951989 -0.103495
C28   C     C_3   0.580561 0.754562 0.682745 0.399709
C29   C     C_R   0.947219 0.626793 0.020215 -0.119383
C30   C     C_R   0.875511 0.580434 0.059361 0.034550
C31   C     C_R   0.859840 0.537881 0.171752 -0.051844
C32   C     C_R   0.937391 0.578882 0.128983 -0.110779
C33   C     C_R   0.911580 0.542236 0.245255 0.056211
C34   C     C_3   0.147439 0.306860 0.197547 -0.372464
C35   C     C_R   0.819564 0.508415 0.288151 -0.231919
C36   C     C_R   0.687909 0.460531 0.257775 -0.005021
C37   C     C_2   0.434055 0.230508 0.449073 -0.094964
C38   C     C_R   0.787364 0.756741 0.531277 -0.182507
C39   C     C_2   0.233261 0.119808 0.415176 -0.160872
C40   C     C_3   0.451634 0.836152 0.707536 -0.316588
C41   C     C_2   0.273292 0.200689 0.420085 0.032744
C42   C     C_2   0.538784 0.177428 0.473625 0.014372
C43   C     C_3   0.519498 0.077427 0.445889 -0.056699
C44   C     C_3   0.342776 0.057885 0.442657 -0.010535
C45   C     C_3   0.689121 0.281349 0.687019 0.322130
C46   C     C_2   0.632583 0.023028 0.479848 -0.044067
C47   C     C_2   0.582580 0.971501 0.515703 -0.054331
C48   C     C_R   0.843149 0.936544 0.569837 -0.001544
C49   C     C_R   0.697649 0.907947 0.535987 -0.057831
C50   C     C_R   0.959286 0.876112 0.584903 -0.137617
C51   C     C_R   0.932496 0.785636 0.564573 0.078776
C52   C     C_3   0.715725 0.245111 0.275819 0.225613
C53   C     C_R   0.668252 0.817211 0.517456 0.066899
C54   C     C_3   0.765537 0.213079 0.191668 -0.391883
C55   C     C_3   0.145687 0.663698 0.710597 0.306915
C56   C     C_3   0.694740 0.257082 0.757934 -0.325278
C57   C     C_3   0.180072 0.694901 0.796458 -0.249619
C58   C     C_2   0.057922 0.769702 0.844811 0.526071
C59   C     C_2   0.877673 0.778963 0.355919 0.387817
C60   C     C_2   0.084922 0.397249 0.863333 0.528328
C61   C     C_3   0.156462 0.223354 0.637646 0.458454
C62   C     C_3   0.114374 0.131402 0.634814 -0.314811
C63   C     C_R   0.533583 0.443429 0.036066 0.017847
H1    H     H_    0.111866 0.765392 0.400448 0.092773
H2    H     H_    0.258706 0.630308 0.677565 -0.006776
H3    H     H_    0.055551 0.614476 0.696936 0.077581
H4    H     H_    0.233570 0.861374 0.344907 0.173715
H5    H     H_    0.300665 0.719650 0.806595 0.058458
H6    H     H_    0.181983 0.636973 0.815518 0.010101
H7    H     H_    0.049457 0.919418 0.394275 0.075344
H8    H     H_    0.966532 0.358512 0.286606 -0.095376
H9    H     H_    0.162998 0.383322 0.316746 0.102866
H10   H     H_    0.071581 0.258513 0.157540 0.100566
H11   H     H_    0.137467 0.369368 0.184546 0.078565
H12   H     H_    0.469786 0.882148 0.767268 0.102427
H13   H     H_    0.274045 0.275010 0.189060 0.126284
H14   H     H_    0.056356 0.868091 0.290780 0.115723
H15   H     H_    0.604915 0.758279 0.232198 0.114127
H16   H     H_    0.790124 0.320746 0.687930 0.121878
H17   H     H_    0.575044 0.324543 0.689313 0.008145
H18   H     H_    0.693702 0.319490 0.810004 0.103092
H19   H     H_    0.588245 0.222214 0.760535 0.122201
H20   H     H_    0.806399 0.211875 0.756545 0.160632
H21   H     H_    0.112246 0.231653 0.584385 0.068493
H22   H     H_    0.167481 0.076277 0.582349 0.054261
H23   H     H_    0.456323 0.874264 0.668949 0.066392
H24   H     H_    0.982003 0.129983 0.633882 0.145229
H25   H     H_    0.383715 0.677658 0.313261 0.107334
H26   H     H_    0.160940 0.118400 0.685838 0.130487
H27   H     H_    0.285649 0.304919 0.067988 0.065266
H28   H     H_    0.169073 0.311670 0.954552 0.134720
H29   H     H_    0.339518 0.476277 0.652611 0.073386
H30   H     H_    0.463189 0.359751 0.173446 0.093493
H31   H     H_    0.746187 0.624123 0.823055 0.152966
H32   H     H_    0.942797 0.665624 0.923127 0.111129
H33   H     H_    0.052605 0.661072 0.042586 0.075386
H34   H     H_    0.330726 0.814082 0.705672 0.142494
H35   H     H_    0.044271 0.611724 0.149813 0.117067
H36   H     H_    0.596167 0.661389 0.308212 0.071015
H37   H     H_    0.855215 0.516490 0.345673 0.081437
H38   H     H_    0.115201 0.100068 0.395487 0.095058
H39   H     H_    0.068941 0.900031 0.612724 0.087360
H40   H     H_    0.767265 0.686542 0.515597 0.067760
H41   H     H_    0.760740 0.020820 0.468980 0.078433
H42   H     H_    0.455021 0.969371 0.523933 0.085067
H43   H     H_    0.490096 0.663991 0.186957 0.090066
H44   H     H_    0.386975 0.775626 0.234635 0.133810
H45   H     H_    0.702935 0.184367 0.289573 0.035779
H46   H     H_    0.565185 0.715153 0.621005 0.044338
H47   H     H_    0.097544 0.832211 0.884378 -0.013406
H48   H     H_    0.799112 0.830853 0.344238 0.015575
H49   H     H_    0.359308 0.272682 0.618996 0.103844
H50   H     H_    0.389014 0.163563 0.605580 0.157999
H51   H     H_    0.996824 0.454698 0.872234 0.007459
H52   H     H_    0.597580 0.308686 0.436848 0.199224
H53   H     H_    0.424411 0.329549 0.406852 0.203824
H54   H     H_    0.745282 0.832405 0.750681 0.218565
H55   H     H_    0.816093 0.730348 0.690138 0.209443
H56   H     H_    0.806954 0.280516 0.314140 0.076808
H57   H     H_    0.670007 0.176310 0.155501 0.122237
H58   H     H_    0.878907 0.166509 0.180612 0.107753
H59   H     H_    0.784465 0.271524 0.175875 0.081001
N1    N     N_3   0.331024 0.225637 0.641928 -0.487955
N2    N     N_3   0.475842 0.316809 0.452738 -0.431673
N3    N     N_3   0.737846 0.787019 0.694287 -0.532953
O1    O     O_2   0.402610 0.439360 0.314250 -0.461051
O2    O     O_2   0.869873 0.190778 0.502839 -0.506973
O3    O     O_3   0.699616 0.201678 0.621297 -0.619205
O4    O     O_3   0.648560 0.446300 0.404730 -0.482635
O5    O     O_3   0.025080 0.609480 0.556050 -0.488728
O6    O     O_2   0.948320 0.280590 0.426090 -0.475940
O7    O     O_3   0.112252 0.251213 0.296421 -0.653038
O8    O     O_2   0.945132 0.458648 0.747243 -0.516150
O9    O     O_3   0.078701 0.290784 0.702951 -0.562588
O10   O     O_3   0.108870 0.604000 0.387500 -0.467343
O11   O     O_2   0.246586 0.532647 0.247677 -0.513020
O12   O     O_3   0.087171 0.738594 0.692592 -0.648889
O13   O     O_3   0.565947 0.297104 0.289174 -0.637031
O14   O     O_3   0.112513 0.698500 0.281886 -0.632252
O15   O     O_2   0.241370 0.719440 0.573960 -0.472031
O16   O     O_3   0.507090 0.652150 0.432150 -0.482647
O17   O     O_2   0.330620 0.812026 0.499461 -0.520795
O18   O     O_2   0.914396 0.760706 0.840677 -0.608389
O19   O     O_2   0.819356 0.723075 0.373605 -0.659265
O20   O     O_2   0.039648 0.322741 0.848352 -0.582643
O21   O     O_3   0.491472 0.792184 0.374393 -0.604981
O22   O     O_2   0.787080 0.560670 0.685800 -0.475303
O23   O     O_3   0.541120 0.553770 0.595290 -0.488464
O24   O     O_3   0.080800 0.396070 0.612520 -0.475067
O25   O     O_3   0.566415 0.703991 0.728840 -0.635059
O26   O     O_3   0.164600 0.390590 0.443970 -0.472649
O27   O     O_3   0.682580 0.347920 0.567870 -0.473256
P1    P     P_3+3 0.582960 0.413890 0.320860 0.960987
P2    P     P_3+3 0.071690 0.707860 0.593450 0.976987
P3    P     P_3+3 0.495992 0.769295 0.458958 0.976951
P4    P     P_3+3 0.606720 0.586180 0.679160 0.979417
P5    P     P_3+3 0.700051 0.229442 0.539418 0.941634
P6    P     P_3+3 0.095056 0.593581 0.290920 0.956391
P7    P     P_3+3 0.124457 0.278607 0.395398 0.939905
P8    P     P_3+3 0.099259 0.399838 0.705079 0.942876

loop_
_geom_bond_atom_site_label_1
_geom_bond_atom_site_label_2
_ccdc_geom_bond_type
Ba2   O23   S    
C13   P8    S    
Ba1   O1    S    
Ba1   O5    S    
C1    H14   S    
H55   N3    S    
C5    C6    A    
C47   H42   S    
O9    P8    S    
C43   C44   S    
C42   C43   S    
C52   O13   S    
C52   H45   S    
C24   C25   A    
C58   H47   S    
C36   P1    S    
C57   H5    S    
C1    H4    S    
C22   C24   A    
C23   H9    S    
C22   H31   S    
C35   H37   S    
C4    H36   S    
C19   C31   A    
C13   C14   A    
C20   C36   A    
C55   O12   S    
Ba1   Ba2   S    
C29   H33   S    
C48   C50   A    
Ba1   P1    S    
C7    C11   A    
C33   P6    S    
Ba1   O15   S    
C34   H11   S    
O1    P1    D    
C15   C17   A    
C28   O25   S    
C46   H41   S    
C6    C7    A    
C47   C49   S    
Ba2   O5    S    
C39   C44   S    
C16   H44   S    
O22   P4    D    
C62   H22   S    
C23   H8    S    
C38   C53   A    
Ba2   O22   S    
C12   O14   S    
C57   C58   S    
Ba2   O27   S    
C37   N2    S    
C19   C20   A    
C39   C41   D    
C8    C60   S    
C9    C13   A    
C62   H24   S    
C55   H2    S    
C4    C16   S    
O16   P3    S    
O25   P4    S    
C5    H28   S    
C52   C54   S    
Ba2   O6    S    
Ba2   O4    S    
C45   O3    S    
C54   H58   S    
C18   C63   A    
C26   C30   A    
C31   C32   A    
C3    C5    A    
C2    C21   A    
C14   C15   A    
C37   C41   S    
C23   C34   S    
C30   C32   A    
C4    H25   S    
C12   C59   S    
C39   H38   S    
O26   P7    S    
O3    P5    S    
C54   H57   S    
Ba1   P2    S    
C59   O19   D    
C60   H51   S    
C35   C36   A    
Ba1   O16   S    
C34   H10   S    
C56   H19   S    
C4    O21   S    
O14   P6    S    
C32   H35   S    
C29   C30   A    
Ba2   P4    S    
O24   P8    S    
C48   C49   A    
C12   H1    S    
Ba1   O23   S    
C10   C11   A    
Ba1   O26   S    
C23   O7    S    
C61   N1    S    
C1    C12   S    
C40   H12   S    
C41   P7    S    
C6    C8    A    
C46   C47   D    
C52   H56   S    
Ba2   O26   S    
C60   O20   D    
C61   H21   S    
C59   H48   S    
O8    P8    D    
C40   H23   S    
C58   O18   D    
C55   H3    S    
C56   H20   S    
C54   H59   S    
O2    P5    D    
Ba1   O10   S    
C50   C51   A    
C16   H43   S    
C51   P2    S    
H52   N2    S    
C43   C46   S    
Ba2   O24   S    
H49   N1    S    
C28   N3    S    
C50   H39   S    
O23   P4    S    
O10   P6    S    
C33   C35   A    
C45   H17   S    
C28   C40   S    
C2    C3    A    
Ba1   O4    S    
O6    P7    D    
C9    C10   A    
C37   C42   D    
C18   C26   A    
C14   H29   S    
H50   N1    S    
O7    P7    S    
C27   H32   S    
C28   H46   S    
C61   O9    S    
O4    P1    S    
C1    H7    S    
O27   P5    S    
C27   C29   A    
C15   P4    S    
C40   H34   S    
C45   C56   S    
C2    C63   A    
O12   P2    S    
C10   C17   A    
C31   C33   A    
C21   H30   S    
C17   C22   A    
C49   C53   A    
O21   P3    S    
C45   H16   S    
O5    P2    S    
C7    C63   A    
C3    H27   S    
C55   C57   S    
C8    C9    A    
O13   P1    S    
C61   C62   S    
O11   P6    D    
C53   P3    S    
C18   C19   A    
C24   C27   A    
C16   H15   S    
C38   C51   A    
C25   C26   A    
C42   P5    S    
C20   C21   A    
C11   C25   A    
C34   H13   S    
H53   N2    S    
C62   H26   S    
O15   P2    D    
O17   P3    D    
C56   H18   S    
C57   H6    S    
C38   H40   S    
H54   N3    S    
