data_mof_unit_40057.cif
_audit_creation_date              2012-12-10T17:01:12-0500
_audit_creation_method            fapswitch 2.2
_symmetry_space_group_name_H-M    P1
_symmetry_Int_Tables_number       1
_space_group_crystal_system       triclinic
_cell_length_a                    15.841395
_cell_length_b                    15.434351
_cell_length_c                    9.868969
_cell_angle_alpha                 89.992851
_cell_angle_beta                  59.247053
_cell_angle_gamma                 89.978749
_cell_volume                      2073.66619694

loop_
_atom_site_label
_atom_site_type_symbol
_atom_type_description
_atom_site_fract_x
_atom_site_fract_y
_atom_site_fract_z
_atom_type_partial_charge
C1    C     C_R   0.372010 0.118660 0.562756 0.781869
C2    C     C_R   0.627987 0.881346 0.437244 0.777876
C3    C     C_R   0.628295 0.118272 0.437055 0.819205
C4    C     C_R   0.372177 0.881179 0.562604 0.780957
C5    C     C_R   0.872042 0.618681 0.562740 0.778397
C6    C     C_R   0.127987 0.381346 0.437239 0.775819
C7    C     C_R   0.128494 0.618146 0.436990 0.820582
C8    C     C_R   0.871705 0.381726 0.562943 0.818141
C9    C     C_2   0.511255 0.999977 0.915049 -0.075146
C10   C     C_2   0.488744 0.999986 0.084951 -0.075171
C11   C     C_2   0.011255 0.499979 0.915048 -0.067651
C12   C     C_2   0.988745 0.500020 0.084950 -0.071139
C13   C     C_2   0.298432 0.814073 0.600357 0.084548
C14   C     C_2   0.702585 0.184659 0.397603 0.093889
C15   C     C_2   0.700575 0.813167 0.399323 0.066967
C16   C     C_2   0.299424 0.186851 0.600644 0.066433
C17   C     C_2   0.797420 0.315332 0.602370 0.094327
C18   C     C_2   0.201205 0.685997 0.398458 0.075450
C19   C     C_2   0.200607 0.313191 0.399263 0.069002
C20   C     C_2   0.799529 0.686929 0.600617 0.068207
C21   C     C_2   0.291758 0.778860 0.482263 -0.193490
C22   C     C_2   0.711552 0.219067 0.514319 -0.236420
C23   C     C_2   0.717391 0.786258 0.512262 -0.171116
C24   C     C_2   0.283133 0.214162 0.487351 -0.169899
C25   C     C_2   0.788296 0.281094 0.485688 -0.236443
C26   C     C_2   0.220477 0.711371 0.509802 -0.216681
C27   C     C_2   0.217788 0.286562 0.511950 -0.169714
C28   C     C_2   0.782697 0.713828 0.487691 -0.168713
Cu1   Cu    Cu3+1 0.522650 1.000000 0.349410 0.938660
Cu2   Cu    Cu3+1 0.477350 0.000000 0.650590 0.927207
Cu3   Cu    Cu3+1 0.022650 0.500000 0.349410 0.937220
Cu4   Cu    Cu3+1 0.977350 0.500000 0.650590 0.938326
H1    H     H_    0.628563 0.999979 0.031330 0.193373
H2    H     H_    0.371437 0.000021 0.968672 0.191128
H3    H     H_    0.128564 0.499934 0.031332 0.194816
H4    H     H_    0.871437 0.500073 0.968670 0.192905
H5    H     H_    0.660832 0.199386 0.634816 0.171990
H6    H     H_    0.341333 0.799779 0.361976 0.162571
H7    H     H_    0.320220 0.182902 0.372597 0.189756
H8    H     H_    0.680727 0.817839 0.626731 0.189433
H9    H     H_    0.182935 0.680570 0.625007 0.199264
H10   H     H_    0.838882 0.300920 0.365229 0.171762
H11   H     H_    0.819306 0.682210 0.373253 0.189920
H12   H     H_    0.181379 0.318331 0.626252 0.189590
H13   H     H_    0.412321 0.999989 0.178861 0.158165
H14   H     H_    0.587677 0.999955 0.821140 0.159299
H15   H     H_    0.912322 0.500066 0.178860 0.157117
H16   H     H_    0.087678 0.499929 0.821136 0.159370
N1    N     N_2   0.443290 1.000000 0.876860 -0.282373
N2    N     N_2   0.556710 1.000000 0.123140 -0.280333
N3    N     N_2   0.943290 0.500000 0.876860 -0.280962
N4    N     N_2   0.056710 0.500000 0.123140 -0.279217
O1    O     O_R   0.422430 0.089640 0.419570 -0.590757
O2    O     O_R   0.577570 0.910360 0.580430 -0.591938
O3    O     O_R   0.577570 0.089640 0.580430 -0.603107
O4    O     O_R   0.422430 0.910360 0.419570 -0.592934
O5    O     O_R   0.922430 0.589640 0.419570 -0.590538
O6    O     O_R   0.077570 0.410360 0.580430 -0.592464
O7    O     O_R   0.077570 0.589640 0.580430 -0.603608
O8    O     O_R   0.922430 0.410360 0.419570 -0.604908
O9    O     O_R   0.384170 0.089650 0.673910 -0.568569
O10   O     O_R   0.615830 0.910350 0.326090 -0.570853
O11   O     O_R   0.615830 0.089650 0.326090 -0.544835
O12   O     O_R   0.384170 0.910350 0.673910 -0.570832
O13   O     O_R   0.884170 0.589650 0.673910 -0.571293
O14   O     O_R   0.115830 0.410350 0.326090 -0.572694
O15   O     O_R   0.115830 0.589650 0.326090 -0.545144
O16   O     O_R   0.884170 0.410350 0.673910 -0.545218
N5    N     N_2   0.761911 0.211073 0.236870 -0.411263
H17   H     H_    0.774319 0.276734 0.218312 0.254198
C29   C     C_3   0.848276 0.158408 0.143655 -0.675755
H18   H     H_    0.899834 0.164699 0.188072 0.217737
H19   H     H_    0.886145 0.180192 0.018920 0.226821
H20   H     H_    0.827362 0.089296 0.148013 0.230715
N6    N     N_2   0.235785 0.787093 0.759965 -0.424001
H21   H     H_    0.269934 0.785908 0.825211 0.266665
C30   C     C_3   0.142466 0.831875 0.841325 -0.687511
H22   H     H_    0.096524 0.804048 0.961192 0.229532
H23   H     H_    0.102351 0.824172 0.776960 0.237001
H24   H     H_    0.154062 0.901938 0.852467 0.218772
N7    N     N_2   0.249915 0.224801 0.754304 -0.427144
H25   H     H_    0.293023 0.229955 0.804501 0.262327
C31   C     C_3   0.155223 0.186584 0.861304 -0.696687
H26   H     H_    0.119536 0.222736 0.974527 0.224247
H27   H     H_    0.164287 0.117817 0.884983 0.223982
H28   H     H_    0.106533 0.189946 0.811066 0.236892
N8    N     N_2   0.749475 0.774756 0.246050 -0.427115
H29   H     H_    0.705884 0.769235 0.196770 0.262205
C32   C     C_3   0.843964 0.812906 0.137813 -0.695594
H30   H     H_    0.879279 0.776341 0.025030 0.225948
H31   H     H_    0.893093 0.810065 0.187277 0.236512
H32   H     H_    0.834660 0.881500 0.113536 0.223455
N9    N     N_2   0.245944 0.725371 0.246119 -0.415715
H33   H     H_    0.253640 0.791763 0.244195 0.250569
C33   C     C_3   0.332207 0.680984 0.125305 -0.679106
H34   H     H_    0.392027 0.683360 0.152729 0.216973
H35   H     H_    0.358143 0.712928 0.009747 0.221082
H36   H     H_    0.314696 0.612346 0.115869 0.237308
N10   N     N_2   0.738302 0.288695 0.763013 -0.411306
H37   H     H_    0.725892 0.223018 0.781268 0.254304
C34   C     C_3   0.651983 0.341318 0.856756 -0.675527
H38   H     H_    0.600272 0.335219 0.812603 0.217759
H39   H     H_    0.672926 0.410400 0.852671 0.230707
H40   H     H_    0.614276 0.319334 0.981367 0.226898
N11   N     N_2   0.750794 0.725466 0.753785 -0.426971
H41   H     H_    0.794474 0.730967 0.802907 0.262728
C35   C     C_3   0.656263 0.687472 0.862278 -0.698606
H42   H     H_    0.621190 0.724043 0.975046 0.223998
H43   H     H_    0.665460 0.618838 0.886493 0.223812
H44   H     H_    0.606973 0.690477 0.813122 0.236481
N12   N     N_2   0.249019 0.274401 0.246304 -0.427296
H45   H     H_    0.205054 0.268631 0.197738 0.262103
C36   C     C_3   0.343400 0.312399 0.137059 -0.696811
H46   H     H_    0.378304 0.275546 0.024595 0.224513
H47   H     H_    0.392948 0.309820 0.185762 0.236557
H48   H     H_    0.333995 0.380890 0.112397 0.224227

loop_
_geom_bond_atom_site_label_1
_geom_bond_atom_site_label_2
_ccdc_geom_bond_type
Cu3   O14   S    
C21   C26   S    
Cu1   O11   S    
C34   H38   S    
Cu2   O12   S    
C6    O6    A    
C33   H34   S    
C18   C26   D    
C24   C27   S    
Cu4   O6    S    
Cu3   N4    S    
N8    H29   S    
N7    H25   S    
C33   H36   S    
C5    C20   S    
C30   H22   S    
Cu3   O15   S    
C6    C19   S    
N11   C35   S    
N9    H33   S    
C36   H46   S    
C23   H8    S    
C24   H7    S    
C4    C13   S    
N5    C29   S    
C1    O1    A    
C12   N4    D    
C3    O3    A    
C27   H12   S    
C21   H6    S    
N10   H37   S    
C22   C25   S    
C35   H42   S    
C32   H31   S    
C19   C27   D    
C9    C10   S    
Cu4   O16   S    
C36   H48   S    
C15   C23   D    
C9    H14   S    
C16   C24   D    
C4    O4    A    
C35   H43   S    
C11   H16   S    
C12   H15   S    
C7    O7    A    
N7    C31   S    
Cu1   N2    S    
C30   H23   S    
C13   N6    S    
C9    N1    D    
C5    O13   A    
C2    O2    A    
C29   H19   S    
C20   C28   D    
H1    N2    S    
C22   H5    S    
C17   N10   S    
Cu3   O8    S    
N6    H21   S    
Cu4   N3    S    
Cu1   Cu2   S    
Cu2   O2    S    
C31   H26   S    
C7    C18   S    
C10   H13   S    
C13   C21   D    
N12   C36   S    
C1    C16   S    
C23   C28   S    
C32   H32   S    
C2    C15   S    
C3    C14   S    
H4    N3    S    
C31   H27   S    
Cu2   N1    S    
C8    O16   A    
C34   H40   S    
C19   N12   S    
N8    C32   S    
C35   H44   S    
Cu2   O9    S    
C10   N2    D    
C15   N8    S    
C20   N11   S    
N11   H41   S    
C30   H24   S    
Cu1   O10   S    
H2    N1    S    
N12   H45   S    
N10   C34   S    
Cu3   Cu4   S    
C1    O9    A    
C25   H10   S    
C29   H20   S    
C11   C12   S    
C33   H35   S    
Cu1   O4    S    
C3    O11   A    
Cu2   O3    S    
C4    O12   A    
C28   H11   S    
C8    C17   S    
C5    O5    A    
C17   C25   D    
C14   C22   D    
C29   H18   S    
C8    O8    A    
Cu3   O5    S    
N9    C33   S    
Cu1   O1    S    
C16   N7    S    
C14   N5    S    
N5    H17   S    
C11   N3    D    
C7    O15   A    
C6    O14   A    
C31   H28   S    
C34   H39   S    
N6    C30   S    
H3    N4    S    
C18   N9    S    
Cu4   O7    S    
C32   H30   S    
C2    O10   A    
C26   H9    S    
Cu4   O13   S    
C36   H47   S    
