data_mof_unit_22146.cif
_audit_creation_date              2012-12-11T15:18:03-0500
_audit_creation_method            fapswitch 2.2
_symmetry_space_group_name_H-M    P1
_symmetry_Int_Tables_number       1
_space_group_crystal_system       triclinic
_cell_length_a                    15.717704
_cell_length_b                    15.717823
_cell_length_c                    34.456511
_cell_angle_alpha                 89.996696
_cell_angle_beta                  89.997069
_cell_angle_gamma                 119.998373
_cell_volume                      7372.08863527

loop_
_atom_site_label
_atom_site_type_symbol
_atom_type_description
_atom_site_fract_x
_atom_site_fract_y
_atom_site_fract_z
_atom_type_partial_charge
C1    C     C_R   0.578496 0.441203 0.555297 0.551830
C2    C     C_R   0.489160 0.967797 0.214774 0.331877
C3    C     C_3   0.624713 0.933055 0.090064 -0.382473
C4    C     C_3   0.308473 0.375090 0.089941 -0.382488
C5    C     C_3   0.066591 0.691493 0.089947 -0.382485
C6    C     C_3   0.963366 0.317959 0.673801 -0.386285
C7    C     C_3   0.681831 0.644805 0.673947 -0.386248
C8    C     C_3   0.355028 0.036968 0.673920 -0.386250
C9    C     C_3   0.317955 0.963295 0.173818 -0.386275
C10   C     C_3   0.644868 0.681846 0.173931 -0.386251
C11   C     C_3   0.037183 0.355188 0.173961 -0.386240
C12   C     C_3   0.011128 0.350982 0.828398 -0.384989
C13   C     C_R   0.478091 0.510436 0.214776 0.331853
C14   C     C_3   0.647063 0.660828 0.827806 -0.384911
C15   C     C_3   0.339427 0.987161 0.828008 -0.385011
C16   C     C_3   0.351135 0.011334 0.328353 -0.384997
C17   C     C_3   0.660751 0.647271 0.327867 -0.384916
C18   C     C_3   0.986880 0.339380 0.327941 -0.384999
C19   C     C_3   0.042720 0.677732 0.921509 -0.375974
C20   C     C_3   0.324039 0.364551 0.922060 -0.376205
C21   C     C_3   0.635328 0.958823 0.921888 -0.376175
C22   C     C_3   0.677590 0.042536 0.421556 -0.376005
C23   C     C_3   0.364592 0.323858 0.422006 -0.376182
C24   C     C_R   0.032486 0.521934 0.214797 0.331895
C25   C     C_3   0.959059 0.635375 0.421954 -0.376196
C26   C     C_3   0.955998 0.642799 0.842473 -0.386703
C27   C     C_3   0.357874 0.312623 0.842867 -0.386933
C28   C     C_3   0.687254 0.044991 0.842756 -0.386951
C29   C     C_3   0.642756 0.955905 0.342505 -0.386733
C30   C     C_3   0.312676 0.357806 0.342829 -0.386903
C31   C     C_3   0.045160 0.687344 0.342812 -0.386970
C32   C     C_R   0.017721 0.436037 0.851365 -0.016666
C33   C     C_R   0.562935 0.582061 0.851062 -0.016612
C34   C     C_R   0.418092 0.981395 0.851170 -0.016633
C35   C     C_R   0.436118 0.017829 0.351343 -0.016666
C36   C     C_R   0.582017 0.563046 0.351094 -0.016623
C37   C     C_R   0.981251 0.418072 0.351138 -0.016630
C38   C     C_R   0.056599 0.452409 0.888641 -0.125671
C39   C     C_R   0.558792 0.137297 0.555300 0.551892
C40   C     C_R   0.546806 0.604726 0.888344 -0.125563
C41   C     C_R   0.395459 0.942535 0.888445 -0.125653
C42   C     C_R   0.452470 0.056700 0.388619 -0.125670
C43   C     C_R   0.604667 0.546891 0.388375 -0.125571
C44   C     C_R   0.942387 0.395409 0.388411 -0.125635
C45   C     C_R   0.036038 0.595364 0.896312 0.003885
C46   C     C_R   0.405299 0.440491 0.896536 0.003969
C47   C     C_R   0.559477 0.964595 0.896471 0.003889
C48   C     C_R   0.595312 0.035968 0.396332 0.003882
C49   C     C_R   0.440506 0.405233 0.396515 0.003960
C50   C     C_R   0.862693 0.421482 0.555302 0.551864
C51   C     C_R   0.964693 0.559505 0.396501 0.003895
C52   C     C_R   0.995143 0.578868 0.858323 0.015118
C53   C     C_R   0.421421 0.415978 0.858506 0.015002
C54   C     C_R   0.583972 0.005354 0.858459 0.015032
C55   C     C_R   0.578850 0.995097 0.358339 0.015106
C56   C     C_R   0.416003 0.421394 0.358490 0.015013
C57   C     C_R   0.005441 0.584026 0.358488 0.015015
C58   C     C_R   0.992183 0.502715 0.835207 0.058971
C59   C     C_R   0.496807 0.489329 0.835164 0.059117
C60   C     C_R   0.510676 0.007689 0.835191 0.059052
C61   C     C_R   0.441204 0.578498 0.055298 0.551827
C62   C     C_R   0.502755 0.992208 0.335206 0.058981
C63   C     C_R   0.489337 0.496860 0.335170 0.059104
C64   C     C_R   0.007681 0.510721 0.335193 0.059075
C65   C     C_R   0.072669 0.534600 0.910303 0.005707
C66   C     C_R   0.465414 0.538211 0.910283 0.005917
C67   C     C_R   0.461847 0.927269 0.910292 0.005852
C68   C     C_R   0.534599 0.072677 0.410303 0.005723
C69   C     C_R   0.538194 0.465415 0.410286 0.005893
C70   C     C_R   0.927255 0.461836 0.410291 0.005875
C71   C     C_R   0.577353 0.442502 0.445557 0.552714
C72   C     C_R   0.137298 0.558793 0.055300 0.551894
C73   C     C_R   0.557523 0.134866 0.445547 0.552747
C74   C     C_R   0.865148 0.422651 0.445555 0.552707
C75   C     C_R   0.442504 0.577354 0.945558 0.552710
C76   C     C_R   0.134869 0.557526 0.945546 0.552754
C77   C     C_R   0.422652 0.865147 0.945553 0.552706
C78   C     C_R   0.913736 0.452611 0.593190 0.021873
C79   C     C_R   0.547296 0.461040 0.593184 0.021899
C80   C     C_R   0.538933 0.086270 0.593191 0.021886
C81   C     C_R   0.452614 0.913730 0.093190 0.021875
C82   C     C_R   0.461048 0.547304 0.093185 0.021896
C83   C     C_R   0.421483 0.862692 0.055302 0.551875
C84   C     C_R   0.086300 0.538953 0.093196 0.021900
C85   C     C_R   0.926875 0.383206 0.614127 -0.121606
C86   C     C_R   0.616715 0.543405 0.614190 -0.121624
C87   C     C_R   0.456520 0.073284 0.614181 -0.121601
C88   C     C_R   0.383200 0.926837 0.114135 -0.121595
C89   C     C_R   0.543432 0.616720 0.114184 -0.121621
C90   C     C_R   0.073394 0.456593 0.114203 -0.121597
C91   C     C_R   0.951812 0.396502 0.653386 -0.000518
C92   C     C_R   0.603289 0.554872 0.653454 -0.000487
C93   C     C_R   0.445007 0.048395 0.653447 -0.000503
C94   C     C_R   0.967822 0.489122 0.714773 0.331875
C95   C     C_R   0.396506 0.951769 0.153394 -0.000517
C96   C     C_R   0.554915 0.603308 0.153448 -0.000487
C97   C     C_R   0.048542 0.445121 0.153471 -0.000503
C98   C     C_R   0.963407 0.481159 0.672362 0.045301
C99   C     C_R   0.518507 0.481785 0.672367 0.045257
C100  C     C_R   0.518089 0.036734 0.672377 0.045264
C101  C     C_R   0.481180 0.963384 0.172364 0.045296
C102  C     C_R   0.481828 0.518541 0.172368 0.045265
C103  C     C_R   0.036848 0.518198 0.172389 0.045260
C104  C     C_R   0.961788 0.555810 0.650796 -0.107833
C105  C     C_R   0.510386 0.478028 0.714775 0.331860
C106  C     C_R   0.443856 0.405724 0.650731 -0.107887
C107  C     C_R   0.594207 0.038190 0.650758 -0.107847
C108  C     C_R   0.555837 0.961795 0.150790 -0.107834
C109  C     C_R   0.405744 0.443891 0.150739 -0.107892
C110  C     C_R   0.038232 0.594261 0.150756 -0.107856
C111  C     C_R   0.937209 0.542942 0.611284 -0.014253
C112  C     C_R   0.456839 0.394212 0.611212 -0.014204
C113  C     C_R   0.605772 0.062691 0.611239 -0.014213
C114  C     C_R   0.542960 0.937225 0.111278 -0.014251
C115  C     C_R   0.394215 0.456862 0.111221 -0.014211
C116  C     C_R   0.521794 0.032374 0.714786 0.331902
C117  C     C_R   0.062685 0.605778 0.111232 -0.014201
C118  C     C_R   0.977029 0.500723 0.793049 0.330128
C119  C     C_R   0.498650 0.475650 0.793045 0.330001
C120  C     C_R   0.524203 0.023099 0.793058 0.330055
C121  C     C_R   0.500774 0.977023 0.293050 0.330116
C122  C     C_R   0.475711 0.498717 0.293046 0.330012
C123  C     C_R   0.023156 0.524323 0.293067 0.330035
C124  C     C_3   0.933004 0.624687 0.590079 -0.382470
C125  C     C_3   0.375063 0.308493 0.589924 -0.382483
C126  C     C_3   0.691566 0.066712 0.589974 -0.382457
Cr1   Cr    Cr6+3 0.522350 0.263930 0.500020 0.996541
Cr2   Cr    Cr6+3 0.736070 0.258420 0.500020 0.996395
Cr3   Cr    Cr6+3 0.741580 0.477650 0.500020 0.996529
Cr4   Cr    Cr6+3 0.263930 0.522350 0.000020 0.996561
Cr5   Cr    Cr6+3 0.258420 0.736070 0.000020 0.996384
Cr6   Cr    Cr6+3 0.477650 0.741580 0.000020 0.996514
H1    H     H_    0.912797 0.315258 0.600455 0.126795
H2    H     H_    0.359570 0.333772 0.562098 0.133186
H3    H     H_    0.621933 0.924630 0.312925 0.154217
H4    H     H_    0.720661 0.015724 0.341589 0.133218
H5    H     H_    0.635487 0.895045 0.361167 0.123841
H6    H     H_    0.302261 0.378055 0.313139 0.154178
H7    H     H_    0.293909 0.279680 0.342245 0.133059
H8    H     H_    0.259560 0.366092 0.361403 0.124023
H9    H     H_    0.075958 0.697785 0.313145 0.154163
H10   H     H_    0.985754 0.706043 0.342168 0.133015
H11   H     H_    0.106463 0.740490 0.361412 0.123891
H12   H     H_    0.395543 0.251490 0.584378 0.160272
H13   H     H_    0.305949 0.273642 0.607075 0.107653
H14   H     H_    0.666366 0.025950 0.562145 0.133248
H15   H     H_    0.748537 0.144210 0.584435 0.160300
H16   H     H_    0.726428 0.032483 0.607139 0.107643
H17   H     H_    0.640442 0.973866 0.062239 0.133237
H18   H     H_    0.693740 0.967141 0.107265 0.107639
H19   H     H_    0.604065 0.855526 0.084525 0.160335
H20   H     H_    0.333732 0.359568 0.062116 0.133187
H21   H     H_    0.684759 0.597255 0.600568 0.126714
H22   H     H_    0.273608 0.305987 0.107099 0.107651
H23   H     H_    0.251486 0.395590 0.084394 0.160267
H24   H     H_    0.025766 0.666204 0.062135 0.133219
H25   H     H_    0.032365 0.726357 0.107111 0.107654
H26   H     H_    0.144061 0.748492 0.084376 0.160302
H27   H     H_    0.080577 0.403419 0.899856 0.134329
H28   H     H_    0.595290 0.678040 0.899353 0.134294
H29   H     H_    0.322241 0.917952 0.899517 0.134101
H30   H     H_    0.403517 0.080746 0.399817 0.134304
H31   H     H_    0.677947 0.595429 0.399404 0.134316
H32   H     H_    0.402666 0.087448 0.600545 0.126770
H33   H     H_    0.917698 0.322147 0.399456 0.134127
H34   H     H_    0.000176 0.342545 0.702366 0.157020
H35   H     H_    0.890097 0.251568 0.677862 0.143716
H36   H     H_    0.009696 0.298032 0.655968 0.118262
H37   H     H_    0.657055 0.657073 0.702464 0.156891
H38   H     H_    0.748041 0.637666 0.678117 0.143906
H39   H     H_    0.702123 0.711151 0.656116 0.118173
H40   H     H_    0.342773 0.999999 0.702455 0.156904
H41   H     H_    0.362092 0.110295 0.678053 0.143904
H42   H     H_    0.288707 0.990833 0.656095 0.118182
H43   H     H_    0.315237 0.912738 0.100469 0.126810
H44   H     H_    0.342553 0.000122 0.202379 0.157007
H45   H     H_    0.297989 0.009597 0.155987 0.118248
H46   H     H_    0.251584 0.890016 0.177887 0.143747
H47   H     H_    0.657120 0.657097 0.202458 0.156909
H48   H     H_    0.711206 0.702079 0.156104 0.118189
H49   H     H_    0.637771 0.748085 0.178082 0.143876
H50   H     H_    0.000180 0.342918 0.202489 0.156892
H51   H     H_    0.991105 0.288842 0.156139 0.118160
H52   H     H_    0.110537 0.362325 0.178109 0.143943
H53   H     H_    0.973543 0.621859 0.665474 0.123407
H54   H     H_    0.597286 0.684752 0.100556 0.126726
H55   H     H_    0.377703 0.351430 0.665356 0.123446
H56   H     H_    0.648505 0.026367 0.665398 0.123461
H57   H     H_    0.621901 0.973569 0.165463 0.123413
H58   H     H_    0.351448 0.377750 0.165371 0.123431
H59   H     H_    0.026378 0.648549 0.165386 0.123462
H60   H     H_    0.038796 0.309299 0.845094 0.110260
H61   H     H_    0.933373 0.298971 0.820778 0.155427
H62   H     H_    0.055736 0.378286 0.801508 0.158159
H63   H     H_    0.688291 0.730549 0.844309 0.110443
H64   H     H_    0.699716 0.635933 0.820125 0.155349
H65   H     H_    0.087588 0.402752 0.100576 0.126756
H66   H     H_    0.618846 0.677149 0.800939 0.158280
H67   H     H_    0.269811 0.958905 0.844570 0.110273
H68   H     H_    0.364590 0.064782 0.820357 0.155379
H69   H     H_    0.322817 0.942629 0.801128 0.158205
H70   H     H_    0.309489 0.039069 0.345033 0.110266
H71   H     H_    0.378512 0.055935 0.301463 0.158164
H72   H     H_    0.299073 0.933595 0.320729 0.155418
H73   H     H_    0.730434 0.688547 0.344389 0.110437
H74   H     H_    0.677174 0.619149 0.300998 0.158270
H75   H     H_    0.635765 0.699855 0.320192 0.155358
H76   H     H_    0.973821 0.640445 0.562254 0.133236
H77   H     H_    0.958519 0.269715 0.344477 0.110316
H78   H     H_    0.942367 0.322897 0.301061 0.158223
H79   H     H_    0.064479 0.364444 0.320287 0.155361
H80   H     H_    0.997532 0.709040 0.911244 0.108837
H81   H     H_    0.016210 0.649875 0.951256 0.131404
H82   H     H_    0.119936 0.738912 0.922613 0.155459
H83   H     H_    0.293838 0.287980 0.912057 0.109191
H84   H     H_    0.352616 0.367101 0.951772 0.131213
H85   H     H_    0.261993 0.379292 0.923202 0.154941
H86   H     H_    0.711886 0.004842 0.911809 0.109087
H87   H     H_    0.855468 0.604014 0.584541 0.160344
H88   H     H_    0.633131 0.984963 0.951616 0.131329
H89   H     H_    0.620185 0.881902 0.923006 0.154961
H90   H     H_    0.708822 0.997264 0.411311 0.108869
H91   H     H_    0.738835 0.119719 0.422669 0.155398
H92   H     H_    0.649664 0.016047 0.451299 0.131390
H93   H     H_    0.288025 0.293542 0.411977 0.109157
H94   H     H_    0.379467 0.261902 0.423144 0.154995
H95   H     H_    0.367019 0.352361 0.451721 0.131230
H96   H     H_    0.005196 0.711942 0.411903 0.109123
H97   H     H_    0.882182 0.620363 0.423075 0.154919
H98   H     H_    0.967067 0.693703 0.607285 0.107630
H99   H     H_    0.985149 0.633047 0.451677 0.131312
H100  H     H_    0.924650 0.621910 0.812907 0.154219
H101  H     H_    0.895196 0.635634 0.861146 0.123829
H102  H     H_    0.015860 0.720681 0.841522 0.133259
H103  H     H_    0.378049 0.302212 0.813164 0.154172
H104  H     H_    0.366288 0.259568 0.861430 0.124028
H105  H     H_    0.279719 0.293770 0.842325 0.133041
H106  H     H_    0.697690 0.075856 0.813101 0.154170
H107  H     H_    0.740472 0.106230 0.861362 0.123845
H108  H     H_    0.705861 0.985522 0.842072 0.133040
N1    N     N_R   0.906799 0.418454 0.775337 -0.230596
N2    N     N_R   0.412993 0.902031 0.236837 -0.217958
N3    N     N_R   0.488545 0.586594 0.236853 -0.218032
N4    N     N_R   0.098193 0.511481 0.236874 -0.217982
N5    N     N_R   0.036114 0.572615 0.732454 -0.232776
N6    N     N_R   0.426814 0.462706 0.732436 -0.232814
N7    N     N_R   0.537114 0.964138 0.732458 -0.232854
N8    N     N_R   0.572656 0.036092 0.232453 -0.232790
N9    N     N_R   0.462786 0.426876 0.232440 -0.232813
N10   N     N_R   0.964233 0.537242 0.232460 -0.232862
N11   N     N_R   0.041101 0.577971 0.770993 -0.224396
N12   N     N_R   0.580981 0.487764 0.775357 -0.230455
N13   N     N_R   0.421390 0.462349 0.770974 -0.224379
N14   N     N_R   0.537488 0.959114 0.770996 -0.224464
N15   N     N_R   0.578020 0.041089 0.270992 -0.224415
N16   N     N_R   0.462427 0.421460 0.270978 -0.224385
N17   N     N_R   0.959182 0.537607 0.270998 -0.224458
N18   N     N_R   0.512080 0.093296 0.775358 -0.230480
N19   N     N_R   0.418502 0.906788 0.275342 -0.230570
N20   N     N_R   0.487813 0.581038 0.275355 -0.230461
N21   N     N_R   0.093375 0.512218 0.275377 -0.230457
N22   N     N_R   0.902053 0.412951 0.736832 -0.217968
N23   N     N_R   0.586543 0.488494 0.736855 -0.218045
N24   N     N_R   0.511330 0.098085 0.736855 -0.217977
O1    O     O_R   0.498680 0.159540 0.541860 -0.529883
O2    O     O_R   0.358060 0.532760 0.040030 -0.504491
O3    O     O_R   0.174700 0.641940 0.040030 -0.504431
O4    O     O_R   0.467240 0.825300 0.040030 -0.504473
O5    O     O_R   0.498590 0.161190 0.456930 -0.527999
O6    O     O_R   0.838810 0.337400 0.456930 -0.528284
O7    O     O_R   0.662600 0.501410 0.456930 -0.528097
O8    O     O_R   0.161190 0.498590 0.956930 -0.527962
O9    O     O_R   0.337400 0.838810 0.956930 -0.528295
O10   O     O_R   0.501410 0.662600 0.956930 -0.528135
O11   O     O_R   0.532680 0.359580 0.461300 -0.501698
O12   O     O_R   0.840460 0.339140 0.541860 -0.529884
O13   O     O_R   0.640420 0.173100 0.461300 -0.501920
O14   O     O_R   0.826900 0.467320 0.461300 -0.501710
O15   O     O_R   0.359580 0.532680 0.961300 -0.501665
O16   O     O_R   0.173100 0.640420 0.961300 -0.501940
O17   O     O_R   0.467320 0.826900 0.961300 -0.501733
O18   O     O_3   0.666667 0.333333 0.499990 -0.228222
O19   O     O_3   0.333333 0.666667 0.999990 -0.228222
O20   O     O_R   0.660860 0.501320 0.541860 -0.529889
O21   O     O_R   0.159540 0.498680 0.041860 -0.529889
O22   O     O_R   0.339140 0.840460 0.041860 -0.529879
O23   O     O_R   0.501320 0.660860 0.041860 -0.529883
O24   O     O_R   0.532760 0.358060 0.540030 -0.504483
O25   O     O_R   0.641940 0.174700 0.540030 -0.504434
O26   O     O_R   0.825300 0.467240 0.540030 -0.504482

loop_
_geom_bond_atom_site_label_1
_geom_bond_atom_site_label_2
_ccdc_geom_bond_type
C125  H2    S    
C48   C55   A    
C4    H22   S    
C14   H63   S    
C6    H34   S    
C90   C97   A    
C30   H6    S    
C41   H29   S    
C39   O25   A    
C89   H54   S    
C4    C115  S    
C22   C48   S    
C100  C116  S    
C32   C58   A    
C37   C64   A    
C14   C33   S    
Cr5   O19   S    
C53   C59   A    
N8    N15   A    
C41   C67   A    
C90   H65   S    
C106  C112  A    
C123  N17   A    
C104  H53   S    
C14   H66   S    
C25   H97   S    
C65   C76   S    
C21   H89   S    
C79   C112  A    
C74   O6    A    
C103  C110  A    
C116  N24   A    
C10   H47   S    
C20   H84   S    
Cr1   O18   S    
C83   O4    A    
C18   H78   S    
C86   H21   S    
C123  N21   A    
C106  H55   S    
C46   C66   A    
C80   C87   A    
C7    H39   S    
C118  N11   A    
C16   C35   S    
C122  N16   A    
C38   H27   S    
C8    H42   S    
C23   C49   S    
Cr6   O23   S    
Cr5   O3    S    
C96   C102  A    
C7    C92   S    
C125  H12   S    
C6    C91   S    
C55   C62   A    
C76   O8    A    
C110  H59   S    
C58   C118  S    
C11   H52   S    
C15   H67   S    
C17   H74   S    
C9    H44   S    
N2    N19   A    
C108  C114  A    
Cr4   O15   S    
C69   C71   S    
C35   C42   A    
C2    N8    A    
Cr2   O12   S    
C42   H30   S    
N12   N23   A    
C28   H106  S    
C24   N4    A    
C74   O14   A    
C84   C117  A    
C100  C107  A    
C21   H88   S    
C67   C77   S    
C81   C114  A    
C70   C74   S    
C71   O11   A    
C116  N7    A    
C12   H61   S    
C44   C70   A    
C78   C111  A    
C51   C57   A    
C51   C70   A    
Cr2   O18   S    
C50   O26   A    
C16   H71   S    
Cr1   O1    S    
C9    C95   S    
C15   C34   S    
C73   O5    A    
C118  N1    A    
C27   H103  S    
N3    N20   A    
C26   H102  S    
C101  C108  A    
C28   C54   S    
C87   H32   S    
N5    N11   A    
C88   C95   A    
C33   C59   A    
C49   C69   A    
C124  H76   S    
C34   C60   A    
C23   H93   S    
C11   H50   S    
C84   C90   A    
Cr4   O21   S    
C16   H70   S    
N7    N14   A    
C50   C78   S    
C110  C117  A    
C47   C67   A    
C15   H69   S    
C40   H28   S    
C29   H4    S    
C121  N15   A    
C126  H14   S    
C12   H60   S    
C6    H36   S    
C3    H17   S    
C33   C40   A    
C30   H8    S    
C76   O16   A    
C19   H80   S    
C20   H83   S    
C77   O9    A    
C17   H75   S    
C18   H77   S    
C11   H51   S    
C126  H16   S    
C8    H41   S    
Cr4   O8    S    
C54   C60   A    
C113  C126  S    
C29   C55   S    
C45   C52   A    
C26   H100  S    
C68   C73   S    
C30   C56   S    
C107  H56   S    
C31   H11   S    
C72   O3    A    
C39   O1    A    
C75   O15   A    
C35   C62   A    
C19   H81   S    
C104  C111  A    
C31   H9    S    
Cr3   O20   S    
C25   C51   S    
C34   C41   A    
Cr4   O19   S    
Cr3   O7    S    
C26   C52   S    
C28   H107  S    
Cr6   O4    S    
C22   H90   S    
Cr2   O6    S    
C32   C38   A    
C38   C65   A    
C10   C96   S    
C109  H58   S    
C105  N23   A    
C98   C104  A    
Cr6   O10   S    
C4    H23   S    
C19   C45   S    
C112  C125  S    
C56   C63   A    
Cr3   O14   S    
C63   C122  S    
C71   O7    A    
C72   C84   S    
C48   C68   A    
C4    H20   S    
C82   C89   A    
C93   C100  A    
Cr5   O16   S    
C97   C103  A    
C83   O22   A    
C52   C58   A    
C27   H104  S    
C121  N19   A    
C47   C54   A    
C78   C85   A    
C122  N20   A    
Cr2   O25   S    
C17   C36   S    
Cr3   O26   S    
C5    H25   S    
C21   H86   S    
C7    H37   S    
C75   O10   A    
C45   C65   A    
C1    C79   S    
C108  H57   S    
C20   C46   S    
Cr6   O17   S    
C12   C32   S    
C50   O12   A    
C64   C123  S    
C79   C86   A    
Cr2   O13   S    
C23   H94   S    
C9    H45   S    
C26   H101  S    
C57   C64   A    
C72   O21   A    
C2    N2    A    
C99   C106  A    
C14   H64   S    
C6    H35   S    
C25   H99   S    
C3    H18   S    
C59   C119  S    
C30   H7    S    
N10   N17   A    
C94   N22   A    
C111  C124  S    
C12   H62   S    
Cr1   O24   S    
C18   C37   S    
C36   C63   A    
N18   N24   A    
C8    C93   S    
Cr1   O11   S    
C102  C109  A    
C3    C114  S    
C81   C83   S    
Cr5   O22   S    
C23   H95   S    
C126  H15   S    
C27   C53   S    
Cr5   O9    S    
N6    N13   A    
C5    H24   S    
C29   H5    S    
C22   H91   S    
C25   H96   S    
C3    H19   S    
C13   N9    A    
C2    C101  S    
C27   H105  S    
C11   C97   S    
C82   C115  A    
C61   C82   S    
C24   C103  S    
C73   O13   A    
C39   C80   S    
C19   H82   S    
C31   H10   S    
C17   H73   S    
C18   H79   S    
C10   H48   S    
C20   H85   S    
C49   C56   A    
C125  H13   S    
C119  N12   A    
C28   H108  S    
C15   H68   S    
C62   C121  S    
C31   C57   S    
C13   N3    A    
C22   H92   S    
C37   C44   A    
C120  N18   A    
C66   C75   S    
C87   C93   A    
C46   C53   A    
C24   N10   A    
C40   C66   A    
C1    O20   A    
C94   N5    A    
C60   C120  S    
C29   H3    S    
C44   H33   S    
C61   O23   A    
C91   C98   A    
C42   C68   A    
Cr3   O18   S    
C99   C105  S    
C120  N14   A    
C105  N6    A    
C124  H87   S    
C81   C88   A    
C109  C115  A    
C88   H43   S    
Cr4   O2    S    
N1    N22   A    
C95   C101  A    
Cr6   O19   S    
C61   O2    A    
C80   C113  A    
N9    N16   A    
C43   C69   A    
C5    H26   S    
Cr1   O5    S    
C7    H38   S    
C5    C117  S    
C10   H49   S    
C94   C98   S    
C107  C113  A    
C119  N13   A    
C36   C43   A    
C86   C92   A    
N4    N21   A    
C77   O17   A    
C13   C102  S    
C16   H72   S    
C89   C96   A    
C85   C91   A    
C1    O24   A    
C124  H98   S    
C9    H46   S    
C8    H40   S    
C92   C99   A    
C85   H1    S    
C21   C47   S    
C43   H31   S    
