data_mof_unit_50649.cif
_audit_creation_date              2013-03-05T16:11:10-0500
_audit_creation_method            fapswitch 2.2
_symmetry_space_group_name_H-M    P1
_symmetry_Int_Tables_number       1
_space_group_crystal_system       triclinic
_cell_length_a                    9.897846
_cell_length_b                    10.663244
_cell_length_c                    13.62812
_cell_angle_alpha                 90.415806
_cell_angle_beta                  83.675205
_cell_angle_gamma                 90.147652
_cell_volume                      1429.56001341

loop_
_atom_site_label
_atom_site_type_symbol
_atom_site_description
_atom_site_fract_x
_atom_site_fract_y
_atom_site_fract_z
_atom_type_partial_charge
O1    O     O_R   0.385380 0.683250 0.500010 -0.632825
O2    O     O_R   0.614620 0.316750 0.499990 -0.632825
O3    O     O_R   0.614710 0.683220 0.500000 -0.545871
O4    O     O_R   0.385290 0.316780 0.500000 -0.545871
C1    C     C_R   0.500487 0.739627 0.497334 0.946736
C2    C     C_R   0.499513 0.260372 0.502666 0.946736
O5    O     O_R   0.368830 0.499990 0.640350 -0.607258
O6    O     O_R   0.631170 0.500010 0.359650 -0.607258
O7    O     O_R   0.598160 0.499960 0.640350 -0.581403
O8    O     O_R   0.401840 0.500040 0.359650 -0.581402
C3    C     C_R   0.476307 0.500325 0.685530 0.920539
C4    C     C_R   0.523693 0.499675 0.314470 0.920538
Zn1   Zn    Zn3+2 0.346870 0.500020 0.500000 1.062311
Zn2   Zn    Zn3+2 0.653130 0.499980 0.500000 1.062311
C5    C     C_R   0.938338 0.444221 0.425276 -0.161711
C6    C     C_R   0.061661 0.555778 0.574724 -0.161710
C7    C     C_R   0.081668 0.443226 0.425011 0.382701
C8    C     C_R   0.918332 0.556774 0.574989 0.382701
C9    C     C_1   0.541094 0.499872 0.210952 -0.059951
C10   C     C_1   0.458905 0.500128 0.789048 -0.059951
C11   C     C_2   0.558377 0.500501 0.019545 -0.126030
C12   C     C_2   0.441623 0.499498 0.980455 -0.126030
H1    H     H_    0.892095 0.398815 0.365997 0.187773
H2    H     H_    0.107905 0.601185 0.634003 0.187773
C13   C     C_1   0.446582 0.499844 0.876670 0.068873
C14   C     C_1   0.553418 0.500156 0.123330 0.068873
H3    H     H_    0.343902 0.498373 0.025574 0.198220
H4    H     H_    0.656098 0.501627 0.974426 0.198220
C15   C     C_R   0.601365 0.938104 0.436033 0.338098
C16   C     C_R   0.398635 0.061896 0.563967 0.338098
C17   C     C_R   0.601024 0.067017 0.442839 -0.252672
C18   C     C_R   0.398976 0.932983 0.557161 -0.252672
H5    H     H_    0.676189 0.120385 0.396409 0.200273
H6    H     H_    0.323811 0.879615 0.603591 0.200273
C19   C     C_R   0.499991 0.127881 0.505030 -0.184572
C20   C     C_R   0.500009 0.872119 0.494970 -0.184572
N1    N     N_R   0.142790 0.500030 0.500020 -0.157251
N2    N     N_R   0.857210 0.499970 0.499980 -0.157250
N3    N     N_R   0.161050 0.381087 0.345365 0.222582
O9    O     O_R   0.146686 0.412239 0.254984 -0.380580
O10   O     O_R   0.220029 0.275563 0.361259 -0.345100
N4    N     N_R   0.838950 0.618913 0.654635 0.222582
O11   O     O_R   0.853314 0.587761 0.745016 -0.380580
O12   O     O_R   0.779970 0.724437 0.638741 -0.345100
N5    N     N_R   0.700226 0.876701 0.366629 0.225439
O13   O     O_R   0.663674 0.785593 0.311197 -0.388846
O14   O     O_R   0.821882 0.923498 0.348302 -0.329475
N6    N     N_R   0.299774 0.123299 0.633371 0.225439
O15   O     O_R   0.336325 0.214407 0.688803 -0.388846
O16   O     O_R   0.178119 0.076502 0.651698 -0.329476

loop_
_geom_bond_atom_site_label_1
_geom_bond_atom_site_label_2
_geom_bond_distance
_ccdc_geom_bond_type
O5    C3    1.286482 A    
O7    Zn2   1.930075 S    
C17   H5    1.084920 S    
C5    N2    1.359492 A    
Zn2   N2    2.019922 S    
Zn1   N1    2.019924 S    
O6    C4    1.286483 A    
C6    N1    1.359491 A    
C11   C14   1.409871 S    
N6    O16   1.301449 A    
C8    N2    1.379580 A    
C6    H2    1.082229 S    
C7    N1    1.379580 A    
C11   C12   1.324697 D    
C16   C18   1.377073 A    
O7    C3    1.292339 A    
C15   C20   1.404871 A    
O2    C2    1.283902 A    
O3    Zn2   1.991554 S    
N4    O12   1.299470 A    
C16   C19   1.404872 A    
O1    C1    1.283901 A    
C18   C20   1.395768 A    
C4    C9    1.402279 S    
C5    H1    1.082228 S    
N6    O15   1.301205 A    
C11   H4    1.087551 S    
O8    C4    1.292339 A    
C12   H3    1.087551 S    
C8    N4    1.427889 S    
C7    N3    1.427889 S    
O2    Zn2   1.989698 S    
C17   C19   1.395768 A    
C3    C10   1.402279 S    
O4    C2    1.286134 A    
O1    Zn1   1.989696 S    
C10   C13   1.186916 T    
C1    C20   1.413423 S    
N5    O13   1.301206 A    
O5    Zn1   1.948666 S    
C2    C19   1.413423 S    
N3    O10   1.299469 A    
C6    C8    1.418323 A    
N4    O11   1.300949 A    
N5    O14   1.301454 A    
C16   N6    1.439167 S    
N3    O9    1.300950 A    
C5    C7    1.418323 A    
C9    C14   1.186916 T    
O6    Zn2   1.948667 S    
C15   C17   1.377074 A    
C12   C13   1.409871 S    
O4    Zn1   1.991555 S    
C15   N5    1.439167 S    
O3    C1    1.286135 A    
O8    Zn1   1.930076 S    
C18   H6    1.084920 S    
