data_mof_unit_21485.cif
_audit_creation_date              2012-12-10T17:37:48-0500
_audit_creation_method            fapswitch 2.2
_symmetry_space_group_name_H-M    P1
_symmetry_Int_Tables_number       1
_space_group_crystal_system       triclinic
_cell_length_a                    12.37491
_cell_length_b                    13.256125
_cell_length_c                    17.144203
_cell_angle_alpha                 106.276512
_cell_angle_beta                  74.472804
_cell_angle_gamma                 117.007929
_cell_volume                      2372.61447526

loop_
_atom_site_label
_atom_site_type_symbol
_atom_type_description
_atom_site_fract_x
_atom_site_fract_y
_atom_site_fract_z
_atom_type_partial_charge
C1    C     C_R   0.144531 0.713426 0.507031 0.755570
C2    C     C_R   0.939739 0.590085 0.802336 -0.001348
C3    C     C_R   0.014303 0.612277 0.168740 0.054823
C4    C     C_R   0.999755 0.596100 0.248686 -0.290206
C5    C     C_R   0.112358 0.474520 0.198401 0.466963
C6    C     C_R   0.118467 0.482886 0.118146 -0.230111
C7    C     C_R   0.066123 0.547473 0.102654 0.022690
C8    C     C_2   0.959624 0.518262 0.992326 -0.232820
C9    C     C_2   0.063345 0.540003 0.016494 -0.230641
C10   C     C_R   0.041449 0.522031 0.263592 -0.207244
C11   C     C_R   0.733203 0.972543 0.391242 -0.176291
C12   C     C_R   0.989327 0.507581 0.652826 0.763002
C13   C     C_R   0.774279 0.164225 0.470849 -0.058671
C14   C     C_R   0.180147 0.917713 0.558441 -0.187272
C15   C     C_R   0.257686 0.033735 0.573264 -0.141474
C16   C     C_R   0.383228 0.070006 0.544667 -0.187122
C17   C     C_R   0.433725 0.990346 0.497435 0.084816
C18   C     C_R   0.352169 0.874206 0.473923 0.097096
C19   C     C_R   0.562351 0.022340 0.471946 0.077949
C20   C     C_R   0.606476 0.941831 0.416906 0.164113
C21   C     C_R   0.523679 0.832497 0.386611 -0.240336
C22   C     C_R   0.398491 0.799698 0.413655 -0.200378
C23   C     C_R   0.855953 0.286295 0.487832 0.819132
C24   C     C_R   0.648808 0.131787 0.500337 -0.225111
C25   C     C_R   0.816868 0.083689 0.417627 -0.184488
C26   C     C_R   0.226263 0.836515 0.510675 -0.094799
C27   C     C_R   0.644581 0.677609 0.632618 -0.249835
C28   C     C_R   0.237052 0.336283 0.401013 0.077714
C29   C     C_R   0.314049 0.283731 0.396973 -0.295565
C30   C     C_R   0.410742 0.339688 0.441982 -0.158090
C31   C     C_R   0.436700 0.452455 0.487025 -0.004793
C32   C     C_R   0.344987 0.494553 0.499066 0.214616
C33   C     C_R   0.544966 0.520909 0.525240 -0.179668
C34   C     C_R   0.018041 0.503194 0.348072 0.817137
C35   C     C_R   0.544977 0.615463 0.589238 0.005057
C36   C     C_R   0.445058 0.646440 0.609512 0.389929
C37   C     C_R   0.350058 0.589566 0.562732 -0.262791
C38   C     C_R   0.655855 0.503062 0.500287 0.610249
C39   C     C_R   0.744530 0.648124 0.611855 -0.024832
C40   C     C_R   0.982693 0.513876 0.740365 -0.123514
C41   C     C_R   0.015455 0.438622 0.762466 -0.221119
C42   C     C_R   0.004902 0.437414 0.844789 -0.145131
C43   C     C_R   0.959270 0.509970 0.905961 0.129716
C44   C     C_R   0.924259 0.583844 0.884971 -0.154464
Cu1   Cu    Cu3+1 0.900140 0.524980 0.518800 0.962691
Cu2   Cu    Cu3+1 0.099860 0.475020 0.481200 0.928056
H1    H     H_    0.048693 0.380140 0.715915 0.161026
H2    H     H_    0.163126 0.437432 0.067489 0.146471
H3    H     H_    0.913968 0.107798 0.393998 0.156604
H4    H     H_    0.555806 0.771813 0.341904 0.148444
H5    H     H_    0.767310 0.911502 0.349022 0.165635
H6    H     H_    0.621098 0.194509 0.545172 0.149761
H7    H     H_    0.084064 0.891303 0.586023 0.154124
H8    H     H_    0.437568 0.161338 0.558972 0.130158
H9    H     H_    0.220789 0.095773 0.609390 0.144628
H10   H     H_    0.338942 0.716117 0.384793 0.161268
H11   H     H_    0.819955 0.695548 0.646169 0.150265
H12   H     H_    0.958117 0.643335 0.299963 0.198364
H13   H     H_    0.645364 0.748655 0.682992 0.195945
H14   H     H_    0.160343 0.291020 0.367641 0.145931
H15   H     H_    0.464548 0.293708 0.440468 0.194885
H16   H     H_    0.297730 0.198855 0.359942 0.159428
H17   H     H_    0.278976 0.619665 0.581590 0.212947
H18   H     H_    0.144391 0.541781 0.971142 0.161812
H19   H     H_    0.893320 0.642289 0.933483 0.170555
H20   H     H_    0.877300 0.514587 0.036788 0.159234
H21   H     H_    0.032532 0.380157 0.860938 0.141582
N1    N     N_R   0.749710 0.562810 0.547300 -0.216275
N2    N     N_R   0.249640 0.437820 0.453210 -0.205234
O1    O     O_R   0.025490 0.682370 0.523640 -0.590534
O2    O     O_R   0.194150 0.640180 0.491890 -0.607939
O3    O     O_R   0.905900 0.523560 0.631310 -0.585246
O4    O     O_R   0.074570 0.481370 0.599560 -0.593462
O5    O     O_R   0.805850 0.359820 0.508110 -0.544246
O6    O     O_R   0.974510 0.317630 0.476360 -0.590229
O7    O     O_R   0.925430 0.518630 0.400440 -0.579593
O8    O     O_R   0.094100 0.476440 0.368690 -0.564595
O9    O     O_3   0.445339 0.740363 0.670638 -0.606955
C45   C     C_3   0.363910 0.700350 0.741532 0.032525
H22   H     H_    0.391085 0.643956 0.762490 0.147870
H23   H     H_    0.267664 0.651521 0.729081 0.145389
C46   C     C_3   0.369108 0.803878 0.810379 -0.305618
H24   H     H_    0.464988 0.854452 0.822845 0.228330
H25   H     H_    0.340953 0.860160 0.790513 0.225573
C47   C     C_3   0.284481 0.766243 0.889425 -0.917511
H26   H     H_    0.187932 0.717074 0.878603 0.266871
H27   H     H_    0.290028 0.843296 0.938045 0.260749
H28   H     H_    0.312612 0.711767 0.911293 0.253133
O10   O     O_3   0.670176 0.426524 0.428105 -0.616708
C48   C     C_3   0.708804 0.479324 0.357633 0.090477
H29   H     H_    0.780953 0.452628 0.317640 0.205447
H30   H     H_    0.748088 0.575468 0.372209 0.126611
C49   C     C_3   0.610091 0.433258 0.303135 -0.404504
H31   H     H_    0.561017 0.338225 0.297412 0.245348
H32   H     H_    0.544377 0.474297 0.329997 0.225222
C50   C     C_3   0.666687 0.459551 0.216353 -0.917137
H33   H     H_    0.715740 0.553972 0.218915 0.288662
H34   H     H_    0.592977 0.424477 0.178515 0.264230
H35   H     H_    0.732206 0.418782 0.186033 0.262472
O11   O     O_3   0.175441 0.419043 0.211833 -0.605821
C51   C     C_3   0.293415 0.501958 0.229087 0.099996
H36   H     H_    0.316538 0.476375 0.276738 0.167247
H37   H     H_    0.297291 0.590568 0.255488 0.119821
C52   C     C_3   0.391858 0.504977 0.152317 -0.380127
H38   H     H_    0.401652 0.421860 0.134772 0.223425
H39   H     H_    0.364863 0.517082 0.100039 0.220708
C53   C     C_3   0.515335 0.603820 0.168226 -0.908209
H40   H     H_    0.510043 0.687859 0.177130 0.261794
H41   H     H_    0.587798 0.598155 0.114736 0.269962
H42   H     H_    0.540889 0.599839 0.224234 0.256952
C54   C     C_2   0.980373 0.699847 0.155736 0.325916
H43   H     H_    0.004097 0.723048 0.095646 0.095049
O12   O     O_2   0.927419 0.749024 0.212477 -0.573737
C55   C     C_2   0.920967 0.682792 0.782941 0.351642
H44   H     H_    0.964648 0.712083 0.724790 0.063539
O13   O     O_2   0.858567 0.729519 0.832601 -0.553557

loop_
_geom_bond_atom_site_label_1
_geom_bond_atom_site_label_2
_ccdc_geom_bond_type
C24   H6    S    
C2    C44   A    
C8    H20   S    
C51   H36   S    
C9    H18   S    
C41   C42   A    
C28   N2    A    
C18   C26   A    
C8    C43   S    
C52   H39   S    
C55   H44   S    
C47   H26   S    
C38   O10   S    
C49   H31   S    
C6    H2    S    
Cu1   O7    S    
C28   C29   A    
C3    C7    A    
C34   O8    A    
C30   C31   A    
C11   C25   A    
C15   C16   A    
C39   H11   S    
C50   H35   S    
C13   C23   S    
C39   N1    A    
C52   H38   S    
Cu2   N2    S    
C17   C19   A    
C35   C36   A    
C27   C39   A    
C8    C9    D    
C50   H34   S    
C53   H40   S    
C31   C33   A    
C47   H27   S    
C12   O3    A    
C51   H37   S    
C21   C22   A    
Cu1   O3    S    
C53   H41   S    
C13   C25   A    
C44   H19   S    
Cu2   O6    S    
C37   H17   S    
C16   H8    S    
C28   H14   S    
C11   C20   A    
C1    C26   S    
C54   O12   D    
C3    C54   S    
C45   H23   S    
O9    C45   S    
C16   C17   A    
C22   H10   S    
C27   C35   A    
Cu1   Cu2   S    
C13   C24   A    
Cu1   O5    S    
C15   H9    S    
C12   C40   S    
C43   C44   A    
C29   C30   A    
Cu2   O8    S    
C48   H30   S    
C31   C32   A    
C5    O11   S    
C50   H33   S    
Cu1   N1    S    
C17   C18   A    
C41   H1    S    
C10   C34   S    
C1    O2    A    
C32   C37   A    
C14   C26   A    
Cu2   O2    S    
C32   N2    A    
C40   C41   A    
C38   N1    A    
C49   C50   S    
C46   H25   S    
C42   H21   S    
C53   H42   S    
C42   C43   A    
C23   O5    A    
C4    C10   A    
C3    C4    A    
C48   C49   S    
C47   H28   S    
C7    C9    S    
C29   H16   S    
C36   C37   A    
C54   H43   S    
Cu1   O1    S    
C18   C22   A    
C1    O1    A    
C23   O6    A    
C45   C46   S    
C55   O13   D    
C6    C7    A    
C51   C52   S    
C46   C47   S    
C33   C38   A    
C19   C20   A    
C19   C24   A    
C5    C10   A    
C27   H13   S    
C2    C55   S    
C48   H29   S    
C5    C6    A    
O11   C51   S    
C33   C35   A    
C21   H4    S    
C52   C53   S    
C25   H3    S    
C11   H5    S    
C45   H22   S    
C2    C40   A    
C14   H7    S    
C20   C21   A    
C49   H32   S    
C46   H24   S    
C30   H15   S    
C4    H12   S    
C14   C15   A    
C36   O9    S    
O10   C48   S    
C12   O4    A    
Cu2   O4    S    
C34   O7    A    
