data_mof_unit_50727.cif
_audit_creation_date              2012-12-11T14:30:21-0500
_audit_creation_method            fapswitch 2.2
_symmetry_space_group_name_H-M    P1
_symmetry_Int_Tables_number       1
_space_group_crystal_system       triclinic
_cell_length_a                    12.838452
_cell_length_b                    12.80882
_cell_length_c                    27.0734
_cell_angle_alpha                 89.961384
_cell_angle_beta                  90.016786
_cell_angle_gamma                 120.038598
_cell_volume                      3854.12744273

loop_
_atom_site_label
_atom_site_type_symbol
_atom_type_description
_atom_site_fract_x
_atom_site_fract_y
_atom_site_fract_z
_atom_type_partial_charge
C1    C     C_R   0.557281 0.456913 0.821541 0.564089
C2    C     C_R   0.453840 0.556731 0.177740 0.554728
C3    C     C_R   0.059312 0.351660 0.478568 0.085242
C4    C     C_R   0.357336 0.056203 0.030657 0.089470
C5    C     C_R   0.648858 0.707534 0.478303 0.085064
C6    C     C_R   0.302766 0.950928 0.529938 0.075500
C7    C     C_R   0.939165 0.291319 0.978949 0.086492
C8    C     C_R   0.649230 0.697525 0.529715 0.075967
C9    C     C_R   0.356288 0.066065 0.979347 0.143598
C10   C     C_R   0.048679 0.351265 0.529968 0.076126
C11   C     C_R   0.709028 0.640048 0.979983 0.137258
C12   C     C_R   0.442736 0.899759 0.321498 0.560350
C13   C     C_R   0.103150 0.545921 0.177622 0.556247
C14   C     C_R   0.010523 0.507305 0.972200 0.006484
C15   C     C_R   0.518265 0.026234 0.524069 -0.009428
C16   C     C_R   0.493072 0.497634 0.972926 0.007935
C17   C     C_R   0.973501 0.491824 0.523996 -0.009906
C18   C     C_R   0.498676 0.992010 0.972796 -0.001089
C19   C     C_R   0.508155 0.481590 0.524029 -0.009714
C20   C     C_R   0.507916 0.013062 0.472108 -0.001925
C21   C     C_R   0.896632 0.442732 0.677590 0.552820
C22   C     C_R   0.023642 0.517702 0.024168 -0.012021
C23   C     C_R   0.505339 0.491779 0.472056 -0.001994
C24   C     C_R   0.496283 0.978826 0.024736 0.000888
C25   C     C_R   0.986582 0.494536 0.472033 -0.002099
C26   C     C_R   0.482422 0.499921 0.024942 0.001367
C27   C     C_R   0.089456 0.722693 0.966195 -0.082559
C28   C     C_R   0.732921 0.109618 0.517197 -0.130731
C29   C     C_R   0.278180 0.361696 0.966802 -0.088520
C30   C     C_R   0.890385 0.623560 0.517034 -0.130541
C31   C     C_R   0.631555 0.909395 0.966425 -0.089569
C32   C     C_R   0.543222 0.100734 0.821621 0.566087
C33   C     C_R   0.375878 0.266500 0.517336 -0.130613
C34   C     C_R   0.723426 0.098434 0.465788 -0.115199
C35   C     C_R   0.101438 0.732294 0.017528 -0.070343
C36   C     C_R   0.374059 0.275852 0.465922 -0.115149
C37   C     C_R   0.629178 0.896877 0.017760 -0.106256
C38   C     C_R   0.901476 0.625133 0.465622 -0.114805
C39   C     C_R   0.268230 0.364587 0.018112 -0.097891
C40   C     C_R   0.018888 0.595844 0.890382 0.229943
C41   C     C_R   0.636823 0.065987 0.599936 0.210736
C42   C     C_R   0.404750 0.419684 0.890917 0.251146
C43   C     C_R   0.557387 0.454053 0.677608 0.552176
C44   C     C_R   0.933915 0.570988 0.599799 0.210417
C45   C     C_R   0.576173 0.981450 0.890737 0.233103
C46   C     C_R   0.428991 0.363094 0.599980 0.210581
C47   C     C_R   0.595838 0.021531 0.390208 0.244674
C48   C     C_R   0.062776 0.635770 0.100105 0.211406
C49   C     C_R   0.425020 0.403535 0.390249 0.244491
C50   C     C_R   0.573838 0.936834 0.100575 0.210700
C51   C     C_R   0.978354 0.574299 0.390098 0.245056
C52   C     C_R   0.363379 0.423664 0.100853 0.213195
C53   C     C_R   0.051228 0.534669 0.127541 -0.023296
C54   C     C_R   0.899884 0.442862 0.821462 0.566094
C55   C     C_R   0.477236 0.957571 0.370735 -0.020276
C56   C     C_R   0.464486 0.513428 0.128117 -0.006011
C57   C     C_R   0.042126 0.519394 0.370671 -0.021320
C58   C     C_R   0.485686 0.950211 0.127982 -0.002509
C59   C     C_R   0.480342 0.522365 0.370686 -0.021279
C60   C     C_R   0.535211 0.052220 0.627464 -0.021757
C61   C     C_R   0.957588 0.477339 0.870673 -0.003531
C62   C     C_R   0.517141 0.464939 0.627444 -0.021804
C63   C     C_R   0.521004 0.044771 0.871171 -0.011702
C64   C     C_R   0.947691 0.483037 0.627404 -0.021713
C65   C     C_R   0.546039 0.103414 0.677616 0.552182
C66   C     C_R   0.522878 0.478995 0.870981 -0.002976
C67   C     C_R   0.040943 0.610049 0.942439 0.010940
C68   C     C_R   0.630557 0.067064 0.547381 -0.003860
C69   C     C_R   0.390623 0.425887 0.943081 0.038204
C70   C     C_R   0.932820 0.563566 0.547254 -0.004157
C71   C     C_R   0.569063 0.959813 0.942846 0.010312
C72   C     C_R   0.436232 0.369179 0.547429 -0.003964
C73   C     C_R   0.610492 0.045382 0.442199 0.019707
C74   C     C_R   0.062374 0.629784 0.047570 0.008691
C75   C     C_R   0.434428 0.388944 0.442238 0.019865
C76   C     C_R   0.456969 0.557091 0.321493 0.560133
C77   C     C_R   0.567805 0.937642 0.047995 -0.004015
C78   C     C_R   0.954397 0.565016 0.442079 0.019924
C79   C     C_R   0.370136 0.427889 0.048273 0.014118
C80   C     C_R   0.938352 0.380162 0.900422 -0.157242
C81   C     C_R   0.425455 0.011164 0.603622 -0.111481
C82   C     C_R   0.619731 0.556298 0.900861 -0.165350
C83   C     C_R   0.988668 0.414096 0.603616 -0.111208
C84   C     C_R   0.446431 0.067679 0.901284 -0.150379
C85   C     C_R   0.586208 0.574851 0.603524 -0.111080
C86   C     C_R   0.380141 0.936793 0.400680 -0.134034
C87   C     C_R   0.443075 0.897003 0.177738 0.553409
C88   C     C_R   0.011030 0.424972 0.103646 -0.120185
C89   C     C_R   0.557597 0.619590 0.400504 -0.133746
C90   C     C_R   0.419581 0.994231 0.104440 -0.149459
C91   C     C_R   0.062526 0.442621 0.400631 -0.134241
C92   C     C_R   0.574420 0.579764 0.104507 -0.158511
C93   C     C_R   0.964833 0.393047 0.950222 0.008795
C94   C     C_R   0.414907 0.994265 0.552706 0.020832
C95   C     C_R   0.607150 0.566793 0.950966 -0.013724
C96   C     C_R   0.005452 0.420312 0.552689 0.020788
C97   C     C_R   0.431724 0.039511 0.950962 0.014881
C98   C     C_R   0.100098 0.542882 0.321481 0.560626
C99   C     C_R   0.579959 0.585253 0.552585 0.020854
C100  C     C_R   0.393862 0.965664 0.450234 0.039854
C101  C     C_R   0.994112 0.414561 0.052747 0.008668
C102  C     C_R   0.572651 0.605941 0.450076 0.039524
C103  C     C_R   0.425582 0.011495 0.053457 -0.022042
C104  C     C_R   0.033762 0.427560 0.450200 0.039597
C105  C     C_R   0.585501 0.571828 0.053652 -0.036581
C106  C     C_R   0.952305 0.302599 0.029970 0.112251
C107  C     C_R   0.292528 0.940071 0.478545 0.085512
C108  C     C_R   0.698071 0.639097 0.030818 0.120797
Cr1   Cr    Cr6+3 0.487630 0.241180 0.750000 1.190005
Cr2   Cr    Cr6+3 0.753550 0.512370 0.750000 1.187437
Cr3   Cr    Cr6+3 0.758820 0.246450 0.750000 1.186567
Cr4   Cr    Cr6+3 0.241180 0.487630 0.250000 1.191159
Cr5   Cr    Cr6+3 0.512370 0.753550 0.250000 1.187435
Cr6   Cr    Cr6+3 0.246450 0.758820 0.250000 1.190370
H1    H     H_    0.145409 0.821628 0.033119 0.188986
H2    H     H_    0.686320 0.882369 0.946025 0.203014
H3    H     H_    0.844805 0.666896 0.532645 0.195339
H4    H     H_    0.196499 0.305534 0.946555 0.194798
H5    H     H_    0.996254 0.347325 0.125082 0.236204
H6    H     H_    0.289792 0.890155 0.385749 0.206485
H7    H     H_    0.651164 0.641248 0.126461 0.186110
H8    H     H_    0.108860 0.398566 0.385709 0.207391
H9    H     H_    0.359987 0.011474 0.126685 0.191145
H10   H     H_    0.602022 0.710092 0.385490 0.207619
H11   H     H_    0.347886 0.995816 0.625120 0.235909
H12   H     H_    0.805573 0.127028 0.445452 0.204298
H13   H     H_    0.895239 0.290626 0.884835 0.164155
H14   H     H_    0.648682 0.652613 0.624973 0.236146
H15   H     H_    0.403849 0.115417 0.886292 0.195422
H16   H     H_    0.004001 0.351754 0.625163 0.235708
H17   H     H_    0.708818 0.604328 0.885073 0.163225
H18   H     H_    0.010518 0.895164 0.112446 0.365343
H19   H     H_    0.891047 0.242677 0.341546 0.389017
H20   H     H_    0.101310 0.113429 0.114377 0.370729
H21   H     H_    0.758013 0.649051 0.341280 0.388835
H22   H     H_    0.884953 0.987649 0.112997 0.373994
H23   H     H_    0.179094 0.320007 0.033577 0.191594
H24   H     H_    0.346918 0.106389 0.342101 0.389087
H25   H     H_    0.901229 0.021296 0.611152 0.376495
H26   H     H_    0.234230 0.897745 0.845225 0.386241
H27   H     H_    0.119380 0.098695 0.611395 0.376648
H28   H     H_    0.650338 0.758985 0.843480 0.385381
H29   H     H_    0.978856 0.880809 0.610802 0.376378
H30   H     H_    0.104083 0.334359 0.845342 0.384221
H31   H     H_    0.964435 0.156363 0.046804 0.296835
H32   H     H_    0.825256 0.140682 0.051915 0.305061
H33   H     H_    0.151106 0.964491 0.463121 0.247631
H34   H     H_    0.872996 0.678856 0.445249 0.204453
H35   H     H_    0.116265 0.818244 0.468381 0.241206
H36   H     H_    0.799576 0.768749 0.079695 0.283390
H37   H     H_    0.809931 0.640983 0.082542 0.281803
H38   H     H_    0.034726 0.185358 0.463283 0.247673
H39   H     H_    0.180712 0.296746 0.468409 0.241191
H40   H     H_    0.228034 0.026080 0.080194 0.286265
H41   H     H_    0.354951 0.165444 0.082790 0.292951
H42   H     H_    0.704679 0.884410 0.467863 0.241246
H43   H     H_    0.815159 0.848669 0.462859 0.247467
H44   H     H_    0.142450 0.820823 0.552810 0.288310
H45   H     H_    0.672650 0.850981 0.033187 0.195082
H46   H     H_    0.155009 0.959371 0.547750 0.272758
H47   H     H_    0.814638 0.145810 0.940666 0.245773
H48   H     H_    0.960179 0.180748 0.931120 0.274187
H49   H     H_    0.679659 0.858221 0.552313 0.288236
H50   H     H_    0.805457 0.845928 0.547480 0.272061
H51   H     H_    0.228628 0.120862 0.980486 0.287693
H52   H     H_    0.217893 0.031807 0.933827 0.256761
H53   H     H_    0.178792 0.321304 0.552839 0.288222
H54   H     H_    0.040756 0.194964 0.547893 0.272423
H55   H     H_    0.852658 0.660709 0.940748 0.236047
H56   H     H_    0.320002 0.193501 0.445666 0.204053
H57   H     H_    0.821193 0.774562 0.933619 0.264505
H58   H     H_    0.821792 0.155460 0.532822 0.195418
H59   H     H_    0.114844 0.804514 0.945957 0.194124
H60   H     H_    0.332442 0.177481 0.533039 0.195398
N1    N     N_3   0.916672 0.197649 0.059146 -0.546985
N2    N     N_3   0.280008 0.103892 0.955411 -0.599348
N3    N     N_3   0.086921 0.284662 0.559515 -0.562966
N4    N     N_3   0.826027 0.715366 0.958892 -0.557783
N5    N     N_3   0.179171 0.902729 0.454791 -0.610774
N6    N     N_3   0.805007 0.703030 0.059021 -0.509373
N7    N     N_3   0.096409 0.275278 0.454866 -0.610035
N8    N     N_3   0.293061 0.097898 0.059488 -0.573717
N9    N     N_3   0.725557 0.820932 0.454447 -0.609991
N10   N     N_3   0.198050 0.912888 0.559438 -0.562599
N11   N     N_3   0.897791 0.174487 0.957479 -0.630400
N12   N     N_3   0.715966 0.802649 0.559120 -0.562594
O1    O     O_R   0.460870 0.120930 0.805240 -0.507872
O2    O     O_R   0.120930 0.460870 0.194760 -0.461971
O3    O     O_R   0.539130 0.660060 0.305240 -0.511627
O4    O     O_R   0.339940 0.879070 0.194760 -0.458722
O5    O     O_R   0.498910 0.350470 0.801870 -0.450349
O6    O     O_R   0.851560 0.501090 0.698130 -0.435231
O7    O     O_R   0.649530 0.148440 0.801870 -0.452639
O8    O     O_R   0.498910 0.350470 0.698130 -0.435635
O9    O     O_R   0.851560 0.501090 0.801870 -0.452722
O10   O     O_R   0.649530 0.148440 0.698130 -0.435414
O11   O     O_R   0.350470 0.498910 0.301870 -0.449636
O12   O     O_R   0.660060 0.539130 0.694760 -0.464614
O13   O     O_R   0.501090 0.851560 0.198130 -0.436557
O14   O     O_R   0.148440 0.649530 0.301870 -0.449972
O15   O     O_R   0.350470 0.498910 0.198130 -0.435144
O16   O     O_R   0.501090 0.851560 0.301870 -0.449560
O17   O     O_R   0.148440 0.649530 0.198130 -0.430519
O18   O     O_3   0.666667 0.333333 0.750000 -0.337187
O19   O     O_3   0.333333 0.666667 0.250000 -0.337354
O20   O     O_2   0.931853 0.685099 0.163015 -0.248272
O21   O     O_2   0.144953 0.831287 0.161553 -0.238757
O22   O     O_3   0.020811 0.838379 0.091030 -0.562860
O23   O     O_R   0.879070 0.339940 0.805240 -0.510043
O24   O     O_2   0.779477 0.998995 0.356064 -0.254259
O25   O     O_2   0.688070 0.075035 0.297028 -0.214219
O26   O     O_3   0.823710 0.219473 0.364981 -0.524025
O27   O     O_2   0.314076 0.242443 0.163443 -0.250428
O28   O     O_2   0.170235 0.312076 0.163735 -0.221907
O29   O     O_3   0.158342 0.179743 0.092689 -0.570400
O30   O     O_2   0.001104 0.781127 0.355979 -0.254447
O31   O     O_2   0.925571 0.613690 0.296880 -0.213445
O32   O     O_3   0.781057 0.604710 0.364736 -0.523993
O33   O     O_2   0.762613 0.082526 0.156779 -0.224156
O34   O     O_R   0.460870 0.120930 0.694760 -0.464194
O35   O     O_2   0.691193 0.869277 0.167842 -0.221575
O36   O     O_3   0.814883 0.968653 0.091775 -0.598962
O37   O     O_2   0.217883 0.220221 0.356326 -0.254655
O38   O     O_2   0.384945 0.310739 0.297142 -0.213001
O39   O     O_3   0.392625 0.174405 0.365141 -0.524192
O40   O     O_2   0.821214 0.130836 0.667255 -0.210948
O41   O     O_2   0.680116 0.918100 0.654774 -0.222182
O42   O     O_3   0.846331 0.035262 0.590089 -0.605697
O43   O     O_2   0.077203 0.689245 0.797574 -0.204779
O44   O     O_2   0.992349 0.776239 0.854452 -0.288821
O45   O     O_R   0.660060 0.539130 0.805240 -0.510679
O46   O     O_3   0.213834 0.827673 0.866842 -0.532632
O47   O     O_2   0.309558 0.177864 0.667149 -0.210707
O48   O     O_2   0.238796 0.319692 0.655248 -0.222205
O49   O     O_3   0.188248 0.153532 0.590285 -0.605744
O50   O     O_2   0.607955 0.921294 0.797807 -0.207899
O51   O     O_2   0.780445 0.003531 0.854309 -0.286581
O52   O     O_3   0.607134 0.783090 0.867023 -0.532813
O53   O     O_2   0.867623 0.690235 0.666568 -0.211975
O54   O     O_2   0.080203 0.761727 0.655160 -0.221052
O55   O     O_3   0.965438 0.811993 0.589763 -0.605885
O56   O     O_R   0.879070 0.339940 0.694760 -0.464765
O57   O     O_2   0.310708 0.385175 0.798222 -0.210869
O58   O     O_2   0.225403 0.212413 0.854899 -0.270677
O59   O     O_3   0.172744 0.381742 0.867841 -0.537638
O60   O     O_R   0.120930 0.460870 0.305240 -0.511470
O61   O     O_R   0.539130 0.660060 0.194760 -0.463822
O62   O     O_R   0.339940 0.879070 0.305240 -0.511880
S1    S     S_3+6 0.040608 0.748500 0.130258 -0.001446
S2    S     S_3+6 0.646200 0.924574 0.850535 0.038684
S3    S     S_3+6 0.960927 0.708883 0.629199 0.018511
S4    S     S_3+6 0.277424 0.346516 0.851032 0.044868
S5    S     S_3+6 0.722776 0.076339 0.350148 0.051064
S6    S     S_3+6 0.250603 0.289219 0.131471 0.008169
S7    S     S_3+6 0.923947 0.646894 0.349999 0.050930
S8    S     S_3+6 0.710702 0.963380 0.130572 0.007305
S9    S     S_3+6 0.351701 0.276234 0.350298 0.050922
S10   S     S_3+6 0.747118 0.038435 0.629395 0.018936
S11   S     S_3+6 0.073312 0.723282 0.850384 0.038782
S12   S     S_3+6 0.291277 0.252544 0.629542 0.018852

loop_
_geom_bond_atom_site_label_1
_geom_bond_atom_site_label_2
_ccdc_geom_bond_type
C3    C104  A    
C92   C105  A    
C39   H23   S    
C35   C74   A    
Cr6   O4    S    
C89   C102  A    
O28   S6    D    
C90   H9    S    
Cr4   O11   S    
O55   S3    S    
C2    C56   S    
C87   O13   A    
C91   C104  A    
C51   S7    S    
C58   C87   S    
C27   H59   S    
C15   C94   A    
C88   C101  A    
O27   S6    D    
H41   N8    S    
C64   C83   A    
C44   C64   A    
H51   N2    S    
Cr4   O60   S    
C54   O9    A    
C108  N6    S    
C22   C101  A    
C46   C62   A    
H49   N12   S    
C18   C24   A    
C84   C97   A    
H36   N6    S    
C28   C68   A    
C8    C99   A    
Cr4   O19   S    
C98   O60   A    
H50   N12   S    
C76   O11   A    
C59   C89   A    
O42   S10   S    
H46   N10   S    
C23   C102  A    
Cr2   O12   S    
C15   C68   A    
C61   C80   A    
H54   N3    S    
H53   N3    S    
C4    C103  A    
C84   H15   S    
O26   S5    S    
C33   C36   A    
C30   C38   A    
C9    N2    S    
Cr2   O18   S    
O31   S7    D    
C48   S1    S    
O20   S1    D    
C52   S6    S    
C21   C64   S    
H47   N11   S    
C76   O3    A    
O41   S10   D    
C52   C56   A    
C49   S9    S    
C28   H58   S    
C54   O23   A    
Cr6   O62   S    
H31   N1    S    
O49   S12   S    
C6    C94   A    
C40   C67   A    
O32   S7    S    
H29   O55   S    
H57   N4    S    
C44   C70   A    
C37   H45   S    
C51   C57   A    
C18   C97   A    
C12   O16   A    
C41   C68   A    
C52   C79   A    
C86   C100  A    
C14   C93   A    
C46   C72   A    
C33   C72   A    
C34   H12   S    
Cr3   O10   S    
C65   O10   A    
C81   H11   S    
C11   C108  A    
C31   C71   A    
O35   S8    D    
C42   S4    S    
C17   C70   A    
C13   O2    A    
Cr6   O14   S    
H30   O59   S    
O52   S2    S    
C16   C26   A    
C28   C34   A    
O40   S10   D    
C19   C72   A    
C15   C20   A    
C2    O15   A    
Cr4   O15   S    
O25   S5    D    
C26   C105  A    
C30   C70   A    
C40   S11   S    
O47   S12   D    
C29   C69   A    
C46   S12   S    
C48   C53   A    
C7    C93   A    
C62   C85   A    
O33   S8    D    
O48   S12   D    
O53   S3    D    
C25   C78   A    
C50   C58   A    
C48   C74   A    
C50   S8    S    
C47   C73   A    
C83   H16   S    
Cr5   O16   S    
Cr2   O45   S    
C23   C75   A    
C17   C96   A    
C19   C99   A    
C21   O6    A    
H55   N4    S    
C38   C78   A    
C27   C35   A    
Cr5   O61   S    
H21   O32   S    
C37   C77   A    
C91   H8    S    
O29   S6    S    
Cr1   O1    S    
C40   C61   A    
C31   C37   A    
C6    N10   S    
H25   O42   S    
C39   C79   A    
H24   O39   S    
C19   C23   A    
C2    O61   A    
Cr3   O23   S    
O24   S5    D    
O37   S9    D    
C85   C99   A    
C36   C75   A    
H33   N5    S    
C45   S2    S    
C66   C82   A    
C89   H10   S    
C58   C90   A    
C60   C81   A    
C1    O45   A    
C44   S3    S    
C20   C100  A    
C10   C96   A    
H27   O49   S    
C14   C67   A    
H32   N1    S    
C29   C39   A    
C49   C75   A    
C1    C66   S    
Cr5   O13   S    
C7    C106  A    
Cr1   O8    S    
C11   N4    S    
C105  C108  A    
C88   H5    S    
C35   H1    S    
C33   H60   S    
O21   S1    D    
C38   H34   S    
C53   C88   A    
Cr3   O7    S    
C87   O4    A    
O43   S11   D    
Cr3   O56   S    
C80   H13   S    
O59   S4    S    
H39   N7    S    
C60   C65   S    
H26   O46   S    
O30   S7    D    
C43   O8    A    
O58   S4    D    
C3    N7    S    
O51   S2    D    
C5    C8    A    
C22   C74   A    
H42   N9    S    
C50   C77   A    
C1    O5    A    
C31   H2    S    
C101  C106  A    
C106  N1    S    
C45   C71   A    
H18   O22   S    
C47   C55   A    
C11   C95   A    
C18   C71   A    
H28   O52   S    
C5    C102  A    
C100  C107  A    
C9    C97   A    
O57   S4    D    
C57   C91   A    
C32   O1    A    
C107  N5    S    
C10   N3    S    
H52   N2    S    
C7    N11   S    
Cr1   O18   S    
C42   C66   A    
C16   C69   A    
C41   C60   A    
O50   S2    D    
C32   O7    A    
C54   C61   S    
Cr3   O18   S    
Cr4   O2    S    
C65   O34   A    
C6    C107  A    
C25   C104  A    
C47   S5    S    
C30   H3    S    
O36   S8    S    
C82   C95   A    
C32   C63   S    
Cr5   O3    S    
C29   H4    S    
C36   H56   S    
C26   C79   A    
C49   C59   A    
Cr6   O19   S    
C98   O14   A    
C63   C84   A    
C24   C103  A    
C8    N12   S    
H35   N5    S    
C55   C86   A    
C80   C93   A    
C51   C78   A    
C17   C25   A    
C82   H17   S    
Cr1   O34   S    
C12   O62   A    
C92   H7    S    
C81   C94   A    
C16   C95   A    
C14   C22   A    
H37   N6    S    
C83   C96   A    
H38   N7    S    
Cr1   O5    S    
C57   C98   S    
H40   N8    S    
Cr2   O6    S    
C45   C63   A    
C20   C73   A    
C43   O12   A    
O22   S1    S    
C42   C69   A    
C41   S10   S    
C90   C103  A    
C12   C55   S    
C27   C67   A    
C13   C53   S    
H20   O29   S    
C34   C73   A    
O39   S9    S    
C13   O17   A    
C24   C77   A    
C56   C92   A    
H22   O36   S    
O44   S11   D    
O46   S11   S    
O54   S3    D    
Cr2   O9    S    
C3    C10   A    
H19   O26   S    
Cr6   O17   S    
O38   S9    D    
C85   H14   S    
C86   H6    S    
H43   N9    S    
C4    N8    S    
C4    C9    A    
H44   N10   S    
C59   C76   S    
C5    N9    S    
H48   N11   S    
C43   C62   S    
Cr5   O19   S    
C21   O56   A    
