data_mof_unit_68406.cif
_audit_creation_date              2012-12-10T17:36:50-0500
_audit_creation_method            fapswitch 2.2
_symmetry_space_group_name_H-M    P1
_symmetry_Int_Tables_number       1
_space_group_crystal_system       triclinic
_cell_length_a                    10.758653
_cell_length_b                    12.375066
_cell_length_c                    13.713677
_cell_angle_alpha                 117.036863
_cell_angle_beta                  77.182045
_cell_angle_gamma                 101.205148
_cell_volume                      1576.5506479

loop_
_atom_site_label
_atom_site_type_symbol
_atom_type_description
_atom_site_fract_x
_atom_site_fract_y
_atom_site_fract_z
_atom_type_partial_charge
C1    C     C_R   0.510700 0.853282 0.288392 0.837832
C2    C     C_3   0.011272 0.943059 0.557368 0.349558
C3    C     C_3   0.945230 0.884583 0.453479 0.345908
C4    C     C_3   0.877117 0.000057 0.498576 -0.273976
C5    C     C_R   0.476549 0.252764 0.016731 0.390942
C6    C     C_R   0.483420 0.225105 0.829330 -0.240458
C7    C     C_R   0.555801 0.814913 0.091781 -0.380138
C8    C     C_R   0.587047 0.739858 0.980264 0.571930
C9    C     C_R   0.576199 0.613953 0.942633 0.368346
C10   C     C_R   0.517749 0.559290 0.015750 -0.084057
C11   C     C_R   0.489163 0.636101 0.130894 -0.056721
C12   C     C_R   0.740055 0.999708 0.499599 0.890189
C13   C     C_R   0.492313 0.430211 0.978458 -0.024716
C14   C     C_R   0.472508 0.379367 0.055302 -0.155141
C15   C     C_R   0.442733 0.455277 0.167490 0.578285
C16   C     C_R   0.436900 0.578537 0.202133 -0.234920
C17   C     C_R   0.481949 0.350073 0.867626 -0.310447
C18   C     C_R   0.486608 0.177769 0.903762 0.461407
C19   C     C_R   0.514523 0.766303 0.169460 -0.133265
C20   C     C_R   0.710657 0.349526 0.337321 -0.375847
C21   C     C_R   0.333774 0.764440 0.651331 0.546524
C22   C     C_R   0.308250 0.670195 0.686830 0.301703
C23   C     C_R   0.485489 0.144936 0.711261 0.860465
C24   C     C_R   0.367907 0.563995 0.624884 -0.318584
C25   C     C_R   0.461418 0.551888 0.532939 -0.046869
C26   C     C_R   0.492778 0.652382 0.504265 0.170986
C27   C     C_R   0.528838 0.445540 0.472077 0.048543
C28   C     C_R   0.632632 0.445156 0.388248 0.181396
C29   C     C_R   0.662510 0.543535 0.360670 -0.184311
C30   C     C_R   0.594339 0.644867 0.417584 -0.074059
C31   C     C_R   0.500250 0.339995 0.492599 0.031457
C32   C     C_R   0.681012 0.251275 0.364868 0.065523
C33   C     C_R   0.259950 0.999779 0.499090 0.890594
C34   C     C_3   0.989285 0.057842 0.438985 0.346375
C35   C     C_3   0.056396 0.941787 0.393598 0.332753
C36   C     C_3   0.123184 0.000321 0.498096 -0.285264
C37   C     C_3   0.056024 0.118504 0.543730 -0.452881
C38   C     C_3   0.943828 0.058570 0.602196 0.403433
Cu1   Cu    Cu3+1 0.529830 0.098270 0.475420 0.957170
Cu2   Cu    Cu3+1 0.470170 0.901730 0.524580 1.001739
H1    H     H_    0.472039 0.383363 0.809832 0.224489
H2    H     H_    0.570652 0.912453 0.118052 0.202973
H3    H     H_    0.388948 0.624058 0.285231 0.204244
H4    H     H_    0.741365 0.177806 0.326522 0.162962
H5    H     H_    0.741623 0.543509 0.296006 0.162508
H6    H     H_    0.794356 0.351118 0.276953 0.145694
H7    H     H_    0.419367 0.329616 0.551110 0.113613
H8    H     H_    0.339214 0.492360 0.651605 0.159723
H9    H     H_    0.626854 0.716899 0.392815 0.214374
H10   H     H_    0.107995 0.211558 0.576001 0.165362
N1    N     N_R   0.575030 0.246270 0.438190 -0.191003
N2    N     N_R   0.425760 0.754330 0.561190 -0.269252
O1    O     O_R   0.537510 0.972500 0.318130 -0.591722
O2    O     O_R   0.487140 0.806530 0.359650 -0.638584
O3    O     O_R   0.708330 0.082950 0.479220 -0.559958
O4    O     O_R   0.657960 0.916980 0.520740 -0.579863
O5    O     O_R   0.512860 0.193470 0.640350 -0.610326
O6    O     O_R   0.462490 0.027500 0.681870 -0.508661
O7    O     O_R   0.342040 0.083020 0.479260 -0.600809
O8    O     O_R   0.291670 0.917050 0.520780 -0.540535
O9    O     O_3   0.123864 0.874513 0.287546 -0.606851
C39   C     C_3   0.062211 0.862192 0.201368 0.068824
H11   H     H_    0.130351 0.824844 0.123926 0.157893
H12   H     H_    0.045163 0.950679 0.208589 0.163029
C40   C     C_3   0.937772 0.774888 0.188857 -0.303788
H13   H     H_    0.954596 0.689372 0.189372 0.255401
H14   H     H_    0.861404 0.818600 0.258163 0.238574
C41   C     C_3   0.889371 0.743613 0.081758 -0.978819
H15   H     H_    0.863388 0.826692 0.082771 0.273642
H16   H     H_    0.802475 0.676899 0.073920 0.254994
H17   H     H_    0.963663 0.702835 0.009211 0.269316
O10   O     O_3   0.625701 0.547012 0.833457 -0.605470
C42   C     C_3   0.734123 0.493669 0.826896 0.062818
H18   H     H_    0.721499 0.395799 0.767678 0.189451
H19   H     H_    0.749120 0.496540 0.906085 0.114242
C43   C     C_3   0.852483 0.555409 0.781876 -0.307188
H20   H     H_    0.829364 0.563149 0.711831 0.257262
H21   H     H_    0.877773 0.648592 0.845243 0.233408
C44   C     C_3   0.963966 0.479832 0.741709 -0.969619
H22   H     H_    0.992887 0.478903 0.813921 0.262784
H23   H     H_    0.044753 0.518547 0.697450 0.303478
H24   H     H_    0.935228 0.385318 0.682575 0.248490
F1    F     F_    0.636839 0.790120 0.908340 -0.671713
O11   O     O_3   0.255907 0.858771 0.695579 -0.593595
C45   C     C_3   0.247573 0.926914 0.811950 0.203147
H25   H     H_    0.272790 0.024162 0.828455 0.181247
H26   H     H_    0.315626 0.904845 0.848734 0.172992
C46   C     C_3   0.109871 0.917806 0.871617 -0.386024
H27   H     H_    0.045152 0.948511 0.839214 0.245912
H28   H     H_    0.071929 0.823003 0.856879 0.263595
C47   C     C_3   0.103769 0.995986 0.996384 -0.959224
H29   H     H_    0.175544 0.972818 0.028896 0.260040
H30   H     H_    0.007565 0.979562 0.040074 0.261999
H31   H     H_    0.122897 0.094275 0.015051 0.271912
O12   O     O_3   0.965090 0.114733 0.377192 -0.611717
C48   C     C_3   0.076088 0.185670 0.352261 0.075924
H32   H     H_    0.086584 0.164958 0.263227 0.166019
H33   H     H_    0.166998 0.165912 0.364481 0.163524
C49   C     C_3   0.057576 0.320301 0.420662 -0.417285
H34   H     H_    0.967867 0.337426 0.405174 0.240940
H35   H     H_    0.048789 0.342892 0.509493 0.224215
C50   C     C_3   0.169512 0.402017 0.391535 -0.796261
H36   H     H_    0.260358 0.382081 0.402513 0.297772
H37   H     H_    0.156883 0.499347 0.446885 0.229971
H38   H     H_    0.174020 0.386754 0.304597 0.289760
O13   O     O_3   0.214824 0.675366 0.775295 -0.643825
C51   C     C_3   0.270760 0.694081 0.866833 0.059623
H39   H     H_    0.213717 0.757835 0.941557 0.168157
H40   H     H_    0.370959 0.740167 0.866907 0.158631
C52   C     C_3   0.266897 0.574129 0.875564 -0.377379
H41   H     H_    0.199708 0.502015 0.823901 0.228865
H42   H     H_    0.362996 0.541858 0.842503 0.214652
C53   C     C_3   0.228459 0.589690 0.994955 -0.886988
H43   H     H_    0.282872 0.671893 0.051414 0.269476
H44   H     H_    0.248739 0.509197 0.001706 0.271111
H45   H     H_    0.124351 0.598107 0.021336 0.259385
O14   O     O_3   0.871458 0.108920 0.709557 -0.582496
C54   C     C_3   0.941961 0.209703 0.784483 0.074812
H46   H     H_    0.872001 0.267346 0.852318 0.147063
H47   H     H_    0.000618 0.269014 0.747157 0.134021
C55   C     C_3   0.026435 0.169152 0.835160 -0.335184
H48   H     H_    0.964032 0.124039 0.884963 0.238321
H49   H     H_    0.091328 0.104575 0.768809 0.253843
C56   C     C_3   0.109391 0.277236 0.909082 -0.978233
H50   H     H_    0.176299 0.319212 0.858441 0.264852
H51   H     H_    0.167349 0.246034 0.947093 0.261529
H52   H     H_    0.048638 0.346035 0.976004 0.266230
O15   O     O_3   0.027341 0.893930 0.628135 -0.600397
C57   C     C_3   0.018281 0.765758 0.573372 0.146410
H53   H     H_    0.077930 0.733090 0.608460 0.177170
H54   H     H_    0.057284 0.730309 0.483229 0.171784
C58   C     C_3   0.880915 0.712116 0.595596 -0.288876
H55   H     H_    0.855686 0.734292 0.685177 0.227674
H56   H     H_    0.811498 0.752188 0.576069 0.284120
C59   C     C_3   0.869870 0.574981 0.526591 -0.929667
H57   H     H_    0.888974 0.553182 0.437067 0.291657
H58   H     H_    0.772769 0.534819 0.548668 0.277486
H59   H     H_    0.940907 0.534998 0.544159 0.245829
F2    F     F_    0.887267 0.766714 0.404871 -0.726397
F3    F     F_    0.498654 0.057968 0.867431 -0.684470
F4    F     F_    0.411728 0.409987 0.243975 -0.689137
O16   O     O_3   0.462164 0.198649 0.087832 -0.548492
C60   C     C_3   0.582703 0.203229 0.115499 0.093116
H60   H     H_    0.562080 0.184453 0.189423 0.198766
H61   H     H_    0.637963 0.295181 0.138055 0.132266
C61   C     C_3   0.663229 0.104916 0.023095 -0.305886
H62   H     H_    0.602432 0.016213 0.993867 0.310558
H63   H     H_    0.699606 0.129630 0.952685 0.245235
C62   C     C_3   0.778600 0.090782 0.061948 -0.956878
H64   H     H_    0.844187 0.176842 0.087443 0.251333
H65   H     H_    0.830672 0.016843 0.992409 0.294294
H66   H     H_    0.747916 0.065145 0.131976 0.254386

loop_
_geom_bond_atom_site_label_1
_geom_bond_atom_site_label_2
_ccdc_geom_bond_type
C59   H59   S    
Cu1   N1    S    
C24   C25   A    
Cu2   O8    S    
C23   O6    A    
C34   C37   S    
C51   H40   S    
C42   H18   S    
C35   C36   S    
C9    O10   S    
O15   C57   S    
C54   H47   S    
C62   H64   S    
C7    C8    A    
C45   H25   S    
C11   C19   A    
C39   H11   S    
C36   C37   S    
C43   H21   S    
C53   H43   S    
C62   H65   S    
O13   C51   S    
C15   C16   A    
Cu1   O5    S    
C48   C49   S    
C33   C36   S    
C50   H38   S    
C60   H61   S    
C34   C35   S    
C7    H2    S    
C1    O1    A    
C54   H46   S    
C55   C56   S    
C39   H12   S    
C52   H41   S    
C38   O14   S    
Cu1   O3    S    
O12   C48   S    
C8    C9    A    
C40   H14   S    
C48   H33   S    
C51   H39   S    
C46   C47   S    
C13   C14   A    
C4    C12   S    
C29   C30   A    
C9    C10   A    
C57   C58   S    
C33   O7    A    
C31   H7    S    
C21   C22   A    
C42   H19   S    
O9    C39   S    
C61   H63   S    
C43   H20   S    
C45   H26   S    
C6    C18   A    
C4    C34   S    
C1    C19   S    
C17   H1    S    
Cu2   O6    S    
C27   C31   A    
C24   H8    S    
C58   C59   S    
C59   H57   S    
O11   C45   S    
C62   H66   S    
Cu1   Cu2   S    
C44   H23   S    
C41   H15   S    
C5    C18   A    
C20   C28   A    
Cu2   O4    S    
C25   C26   A    
Cu2   N2    S    
C29   H5    S    
C54   C55   S    
C50   H37   S    
C1    O2    A    
C32   N1    A    
C37   C38   S    
C26   N2    A    
C47   H30   S    
C61   C62   S    
C11   C16   A    
C2    C38   S    
C49   H34   S    
C52   C53   S    
C21   O11   S    
C3    C35   S    
C40   C41   S    
Cu1   O7    S    
C48   H32   S    
C32   H4    S    
C35   O9    S    
C34   O12   S    
C18   F3    S    
C16   H3    S    
C5    C14   A    
C12   O4    A    
C56   H52   S    
C23   O5    A    
C41   H16   S    
C49   H35   S    
C30   H9    S    
C46   H28   S    
C26   C30   A    
C33   O8    A    
Cu2   O2    S    
C42   C43   S    
C22   C24   A    
C3    F2    S    
C60   C61   S    
C3    C4    S    
C47   H29   S    
C43   C44   S    
C56   H51   S    
C61   H62   S    
C20   C32   A    
C45   C46   S    
C2    C36   S    
C59   H58   S    
C6    C17   A    
C28   C29   A    
C39   C40   S    
O16   C60   S    
C8    F1    S    
C31   N1    A    
O10   C42   S    
C10   C13   A    
C44   H24   S    
C55   H48   S    
C25   C27   A    
C7    C19   A    
C13   C17   A    
C53   H45   S    
C2    C3    S    
C57   H53   S    
C22   O13   S    
O14   C54   S    
C47   H31   S    
C37   H10   S    
C5    O16   S    
Cu1   O1    S    
C41   H17   S    
C6    C23   S    
C51   C52   S    
C58   H55   S    
C50   H36   S    
C52   H42   S    
C55   H49   S    
C12   O3    A    
C10   C11   A    
C44   H22   S    
C49   C50   S    
C46   H27   S    
C58   H56   S    
C40   H13   S    
C27   C28   A    
C15   F4    S    
C14   C15   A    
C57   H54   S    
C4    C38   S    
C21   N2    A    
C20   H6    S    
C60   H60   S    
C56   H50   S    
C53   H44   S    
C2    O15   S    
