data_mof_unit_55601.cif
_audit_creation_date              2012-12-10T18:37:10-0500
_audit_creation_method            fapswitch 2.2
_symmetry_space_group_name_H-M    P1
_symmetry_Int_Tables_number       1
_space_group_crystal_system       triclinic
_cell_length_a                    14.979182
_cell_length_b                    15.481673
_cell_length_c                    23.439231
_cell_angle_alpha                 89.873649
_cell_angle_beta                  104.815208
_cell_angle_gamma                 82.490937
_cell_volume                      5206.25458878

loop_
_atom_site_label
_atom_site_type_symbol
_atom_type_description
_atom_site_fract_x
_atom_site_fract_y
_atom_site_fract_z
_atom_type_partial_charge
C1    C     C_R   0.442028 0.662183 0.493104 0.873144
C2    C     C_R   0.422305 0.471603 0.285126 -0.217423
C3    C     C_R   0.422699 0.498295 0.750277 -0.172641
C4    C     C_R   0.421053 0.472543 0.225651 -0.183020
C5    C     C_R   0.505532 0.507097 0.792387 0.223038
C6    C     C_R   0.494138 0.501940 0.207584 0.247518
C7    C     C_R   0.408596 0.754002 0.498560 -0.057888
C8    C     C_R   0.592820 0.245671 0.524571 -0.059513
C9    C     C_R   0.287050 0.871616 0.502281 -0.200340
C10   C     C_R   0.717351 0.127126 0.560546 -0.199308
C11   C     C_R   0.314253 0.784304 0.492772 -0.193453
C12   C     C_R   0.558136 0.337784 0.509794 0.870850
C13   C     C_R   0.688213 0.214903 0.543824 -0.190937
C14   C     C_R   0.475017 0.810699 0.515078 -0.262065
C15   C     C_R   0.527458 0.188922 0.523507 -0.257254
C16   C     C_R   0.500969 0.500577 0.610659 0.899616
C17   C     C_R   0.498913 0.499909 0.389323 0.901791
C18   C     C_R   0.450075 0.897016 0.527589 0.092460
C19   C     C_R   0.554794 0.101877 0.542379 0.093655
C20   C     C_R   0.354193 0.928554 0.518616 0.176539
C21   C     C_R   0.651274 0.070057 0.558888 0.177204
C22   C     C_R   0.517991 0.954016 0.544484 0.071222
C23   C     C_R   0.587296 0.515100 0.775192 0.523284
C24   C     C_R   0.488039 0.044560 0.540779 0.068798
C25   C     C_R   0.392384 0.074493 0.534497 -0.227431
C26   C     C_R   0.614644 0.923756 0.563892 -0.228021
C27   C     C_R   0.326786 0.016764 0.524780 -0.234600
C28   C     C_R   0.680154 0.981456 0.572093 -0.233870
C29   C     C_R   0.841412 0.642193 0.584074 -0.317515
C30   C     C_R   0.159252 0.356282 0.417227 -0.317157
C31   C     C_R   0.752800 0.617843 0.571003 0.014008
C32   C     C_R   0.247483 0.381411 0.429607 0.011284
C33   C     C_R   0.794207 0.508936 0.507715 -0.066940
C34   C     C_R   0.569372 0.529880 0.248721 0.525337
C35   C     C_R   0.205741 0.491286 0.492153 -0.064157
C36   C     C_R   0.885842 0.529959 0.519409 -0.004314
C37   C     C_R   0.114619 0.469173 0.481386 -0.004101
C38   C     C_R   0.908227 0.598644 0.558257 0.182646
C39   C     C_R   0.092605 0.399657 0.443228 0.182008
C40   C     C_R   0.541909 0.433705 0.126697 0.511323
C41   C     C_R   0.461781 0.577856 0.874080 0.484712
C42   C     C_R   0.955053 0.485951 0.493960 0.082903
C43   C     C_R   0.045626 0.512750 0.507201 0.080436
C44   C     C_R   0.064235 0.581976 0.545844 -0.239298
C45   C     C_R   0.585882 0.511962 0.715582 -0.307099
C46   C     C_R   0.936916 0.415769 0.456115 -0.235542
C47   C     C_R   0.996806 0.623633 0.570941 -0.208210
C48   C     C_R   0.004639 0.373519 0.431519 -0.220492
C49   C     C_R   0.447279 0.572724 0.111356 0.536598
C50   C     C_R   0.551484 0.436478 0.888803 0.556738
C51   C     C_R   0.451523 0.578005 0.052029 -0.068673
C52   C     C_R   0.555715 0.435643 0.949574 -0.082770
C53   C     C_R   0.501626 0.506680 0.030496 -0.028845
C54   C     C_R   0.505791 0.507020 0.971095 -0.031988
C55   C     C_R   0.547280 0.434534 0.068227 -0.019434
C56   C     C_R   0.569891 0.529920 0.308212 -0.314997
C57   C     C_R   0.459328 0.578647 0.933137 -0.014985
C58   C     C_R   0.407805 0.650863 0.013405 -0.019435
C59   C     C_R   0.605512 0.365829 0.989230 -0.012689
C60   C     C_R   0.411606 0.649744 0.954600 -0.215635
C61   C     C_R   0.599056 0.365517 0.047524 -0.221138
C62   C     C_R   0.359521 0.730841 0.032244 0.180077
C63   C     C_R   0.411214 0.792176 0.064595 -0.077544
C64   C     C_R   0.365417 0.868440 0.081655 -0.125585
C65   C     C_R   0.268031 0.884072 0.066177 -0.105113
C66   C     C_R   0.216276 0.823552 0.033496 -0.130682
C67   C     C_R   0.502778 0.502897 0.673179 -0.103911
C68   C     C_R   0.261799 0.747189 0.016359 -0.128693
C69   C     C_R   0.669435 0.294361 0.973250 0.175073
C70   C     C_R   0.752669 0.311762 0.961212 -0.067768
C71   C     C_R   0.813784 0.244010 0.947036 -0.122713
C72   C     C_R   0.792608 0.158592 0.945293 -0.109039
C73   C     C_R   0.710379 0.140747 0.957866 -0.128284
C74   C     C_R   0.649019 0.208314 0.972030 -0.134757
C75   C     C_3   0.679885 0.608784 0.826108 0.047975
C76   C     C_3   0.764899 0.614949 0.877592 -0.307183
C77   C     C_3   0.778911 0.709627 0.890015 -0.966037
C78   C     C_R   0.496843 0.500254 0.326738 -0.103322
C79   C     C_3   0.721794 0.502409 0.243985 0.090115
C80   C     C_3   0.800084 0.544314 0.284843 -0.354894
C81   C     C_3   0.893309 0.485611 0.295428 -0.938977
C82   C     C_R   0.421154 0.496300 0.690893 -0.218370
H1    H     H_    0.213683 0.894805 0.496330 0.136597
H2    H     H_    0.700229 0.651147 0.590398 0.126686
H3    H     H_    0.857478 0.694717 0.613878 0.140985
H4    H     H_    0.143406 0.303170 0.387910 0.145458
H5    H     H_    0.130549 0.605919 0.557986 0.138886
H6    H     H_    0.870983 0.391077 0.444586 0.138707
H7    H     H_    0.377252 0.705584 0.925593 0.191836
H8    H     H_    0.636799 0.311454 0.077196 0.189290
H9    H     H_    0.649771 0.516295 0.702793 0.177955
H10   H     H_    0.626992 0.553846 0.339580 0.173516
H11   H     H_    0.356145 0.489543 0.658977 0.172369
H12   H     H_    0.791306 0.103650 0.574035 0.136898
H13   H     H_    0.365281 0.448397 0.298476 0.170233
H14   H     H_    0.359737 0.492406 0.763778 0.160752
H15   H     H_    0.363528 0.450446 0.193536 0.154305
H16   H     H_    0.254000 0.041828 0.519526 0.147377
H17   H     H_    0.753633 0.956153 0.586274 0.144300
H18   H     H_    0.454703 0.213030 0.505790 0.160313
H19   H     H_    0.546441 0.787159 0.516238 0.161753
H20   H     H_    0.739947 0.258310 0.545693 0.158722
H21   H     H_    0.261852 0.740867 0.480873 0.156976
H22   H     H_    0.486681 0.780680 0.076656 0.127842
H23   H     H_    0.366772 0.142199 0.538172 0.152976
H24   H     H_    0.405398 0.915461 0.106801 0.133089
H25   H     H_    0.232686 0.943148 0.079393 0.127746
H26   H     H_    0.140898 0.835866 0.021392 0.129724
H27   H     H_    0.221140 0.700749 0.990961 0.127227
H28   H     H_    0.769826 0.377701 0.962620 0.122851
H29   H     H_    0.877614 0.257698 0.937488 0.130766
H30   H     H_    0.840013 0.106210 0.934343 0.127414
H31   H     H_    0.694237 0.074538 0.956692 0.133155
H32   H     H_    0.585553 0.193788 0.981771 0.130818
H33   H     H_    0.617457 0.644962 0.837255 0.163549
H34   H     H_    0.641286 0.855744 0.574191 0.141837
H35   H     H_    0.690426 0.639621 0.785736 0.141407
H36   H     H_    0.755442 0.583124 0.917839 0.223041
H37   H     H_    0.828128 0.580063 0.867042 0.228753
H38   H     H_    0.789662 0.742460 0.850563 0.265336
H39   H     H_    0.841331 0.711770 0.927435 0.264470
H40   H     H_    0.717277 0.745221 0.901988 0.269704
H41   H     H_    0.741223 0.486521 0.202146 0.177871
H42   H     H_    0.715460 0.439114 0.264741 0.143576
H43   H     H_    0.806031 0.607754 0.264793 0.241790
H44   H     H_    0.783567 0.556634 0.327936 0.217062
H45   H     H_    0.014184 0.676231 0.600482 0.145765
H46   H     H_    0.888175 0.420879 0.313870 0.263875
H47   H     H_    0.947854 0.515827 0.327288 0.276918
H48   H     H_    0.914121 0.476754 0.253383 0.262687
H49   H     H_    0.987766 0.319916 0.402803 0.143814
H50   H     H_    0.229939 0.542185 0.520781 0.125627
H51   H     H_    0.769577 0.459107 0.478229 0.127062
H52   H     H_    0.300048 0.348013 0.410256 0.132017
N1    N     N_R   0.493109 0.502175 0.146742 -0.335268
N2    N     N_R   0.506616 0.507335 0.853347 -0.341608
N3    N     N_R   0.731690 0.552740 0.533440 -0.098397
N4    N     N_R   0.268310 0.447260 0.466560 -0.099556
O1    O     O_R   0.383120 0.605620 0.483150 -0.618891
O2    O     O_2   0.419479 0.646831 0.837333 -0.582551
O3    O     O_2   0.397925 0.636595 0.134009 -0.549940
O4    O     O_2   0.589082 0.366673 0.864449 -0.534251
O5    O     O_3   0.669922 0.520100 0.817107 -0.635239
O6    O     O_3   0.638888 0.562661 0.229764 -0.651926
O7    O     O_R   0.616880 0.394380 0.516850 -0.618660
O8    O     O_R   0.531890 0.639510 0.504600 -0.623083
O9    O     O_R   0.468110 0.360490 0.495400 -0.623861
O10   O     O_R   0.425590 0.483070 0.573110 -0.621061
O11   O     O_R   0.574410 0.516930 0.426890 -0.621529
O12   O     O_R   0.574360 0.516970 0.594570 -0.622389
O13   O     O_R   0.425640 0.483030 0.405430 -0.619317
O14   O     O_2   0.585241 0.365166 0.163587 -0.596747
Zn1   Zn    Zn3+2 0.400660 0.477370 0.485670 0.943593
Zn2   Zn    Zn3+2 0.599340 0.522630 0.514330 0.942697

loop_
_geom_bond_atom_site_label_1
_geom_bond_atom_site_label_2
_ccdc_geom_bond_type
C58   C62   S    
C5    N2    S    
C66   C68   A    
C72   H30   S    
C27   H16   S    
C34   C56   A    
C8    C13   A    
C23   C45   A    
C73   C74   A    
C14   C18   A    
C36   C42   A    
C5    C23   A    
C75   H35   S    
C15   H18   S    
O11   Zn2   S    
C77   H38   S    
C25   H23   S    
C60   H7    S    
C7    C11   A    
C32   H52   S    
C34   O6    S    
C62   C63   A    
C12   O9    A    
C2    H13   S    
C35   C37   A    
C35   N4    A    
C80   H43   S    
O1    Zn1   S    
C58   C60   A    
C74   H32   S    
C33   C36   A    
C73   H31   S    
C40   O14   S    
C42   C46   A    
C41   O2    S    
C77   H40   S    
C70   H28   S    
C15   C19   A    
C7    C14   A    
C33   N3    A    
C49   C51   A    
C49   O3    S    
C29   C38   A    
C45   C67   A    
C50   C52   A    
C48   H49   S    
C70   C71   A    
C31   N3    A    
C44   H5    S    
C29   H3    S    
C56   C78   A    
C44   C47   A    
C49   N1    A    
C82   H11   S    
C1    C7    S    
C4    H15   S    
C29   C31   A    
C23   O5    S    
C1    O8    A    
C17   O13   A    
O9    Zn1   S    
C52   C54   A    
C46   H6    S    
C53   C55   A    
C10   C21   A    
C40   N1    A    
C46   C48   A    
C59   C61   A    
C76   H37   S    
C63   C64   A    
C76   C77   S    
C4    C6    A    
C51   C58   A    
C80   C81   S    
C14   H19   S    
C3    C5    A    
C53   C54   A    
C79   H41   S    
C76   H36   S    
C31   H2    S    
C6    C34   A    
C71   H29   S    
C51   C53   A    
C12   O7    A    
C37   C43   A    
C2    C4    A    
C75   C76   S    
C32   N4    A    
C6    N1    S    
C2    C78   A    
C52   C59   A    
C9    C20   A    
C81   H47   S    
C79   O6    S    
O8    Zn2   S    
C8    C12   S    
C40   C55   A    
C3    C82   A    
C69   C74   A    
C16   C67   S    
C24   C25   A    
C47   H45   S    
C9    C11   A    
C38   C47   A    
C3    H14   S    
C75   O5    S    
C59   C69   S    
O7    Zn2   S    
N4    Zn1   S    
C21   C28   A    
C9    H1    S    
C8    C15   A    
C43   C44   A    
C22   C26   A    
C22   C24   A    
C30   H4    S    
C42   C43   A    
C61   H8    S    
C28   H17   S    
C30   C39   A    
C19   C21   A    
C18   C22   A    
C17   O11   A    
C66   H26   S    
C72   C73   A    
C57   C60   A    
C10   C13   A    
C1    O1    A    
C16   O12   A    
C64   H24   S    
C20   C27   A    
C25   C27   A    
C79   H42   S    
C26   C28   A    
C62   C68   A    
C16   O10   A    
C64   C65   A    
C36   C38   A    
C19   C24   A    
C13   H20   S    
C41   C57   A    
C71   C72   A    
C81   H46   S    
C50   N2    A    
C30   C32   A    
C81   H48   S    
C80   H44   S    
C55   C61   A    
C17   C78   S    
N3    Zn2   S    
C63   H22   S    
C18   C20   A    
C68   H27   S    
O13   Zn1   S    
C69   C70   A    
C45   H9    S    
C26   H34   S    
C77   H39   S    
C79   C80   S    
C33   H51   S    
C56   H10   S    
C75   H33   S    
C67   C82   A    
C37   C39   A    
C65   C66   A    
O12   Zn2   S    
C10   H12   S    
C11   H21   S    
O10   Zn1   S    
C35   H50   S    
C65   H25   S    
C41   N2    A    
C50   O4    S    
C39   C48   A    
C54   C57   A    
