data_mof_unit_43949.cif
_audit_creation_date              2013-03-05T15:56:41-0500
_audit_creation_method            fapswitch 2.2
_symmetry_space_group_name_H-M    P1
_symmetry_Int_Tables_number       1
_space_group_crystal_system       triclinic
_cell_length_a                    21.148258
_cell_length_b                    21.739784
_cell_length_c                    13.890107
_cell_angle_alpha                 90.077017
_cell_angle_beta                  89.882824
_cell_angle_gamma                 89.531279
_cell_volume                      6385.86264535

loop_
_atom_site_label
_atom_site_type_symbol
_atom_site_description
_atom_site_fract_x
_atom_site_fract_y
_atom_site_fract_z
_atom_type_partial_charge
O1    O     O_R   0.064880 0.435140 0.582280 -0.529146
O2    O     O_R   0.935120 0.564860 0.417720 -0.540099
O3    O     O_R   0.935120 0.564860 0.582280 -0.529677
O4    O     O_R   0.064880 0.435140 0.417720 -0.540000
O5    O     O_R   0.935120 0.435140 0.417720 -0.528365
O6    O     O_R   0.064880 0.564860 0.582280 -0.521587
O7    O     O_R   0.064880 0.564860 0.417720 -0.529580
O8    O     O_R   0.935120 0.435140 0.582280 -0.522004
O9    O     O_R   0.564880 0.935140 0.582280 -0.541818
O10   O     O_R   0.435120 0.064860 0.417720 -0.511491
O11   O     O_R   0.435120 0.064860 0.582280 -0.545173
O12   O     O_R   0.564880 0.935140 0.417720 -0.490698
O13   O     O_R   0.435120 0.935140 0.417720 -0.487355
O14   O     O_R   0.564880 0.064860 0.582280 -0.571230
O15   O     O_R   0.564880 0.064860 0.417720 -0.508595
O16   O     O_R   0.435120 0.935140 0.582280 -0.549743
C1    C     C_R   0.085943 0.414338 0.499642 0.940752
C2    C     C_R   0.913471 0.585110 0.499662 0.938296
C3    C     C_R   0.914170 0.414652 0.501251 0.950029
C4    C     C_R   0.085411 0.585538 0.501004 0.957628
C5    C     C_R   0.584712 0.913443 0.499723 0.924663
C6    C     C_R   0.414528 0.085748 0.499811 0.925807
C7    C     C_R   0.413778 0.914459 0.499518 0.915336
C8    C     C_R   0.586130 0.085631 0.499769 0.915396
Cu1   Cu    Cu3+1 1.000000 0.500000 0.597420 1.128738
Cu2   Cu    Cu3+1 1.000000 0.500000 0.402580 1.130250
Cu3   Cu    Cu3+1 0.500000 0.000000 0.597420 1.095292
Cu4   Cu    Cu3+1 0.500000 0.000000 0.402580 1.166152
C9    C     C_R   0.130972 0.680938 0.574812 0.322850
C10   C     C_R   0.863242 0.324000 0.582267 0.327154
C11   C     C_R   0.871496 0.687761 0.547277 0.287440
C12   C     C_R   0.126019 0.311119 0.549104 0.285617
C13   C     C_R   0.632576 0.183728 0.433633 0.284629
C14   C     C_R   0.364018 0.819361 0.426820 0.301540
C15   C     C_R   0.379130 0.191356 0.451867 0.261580
C16   C     C_R   0.616898 0.805681 0.453987 0.269845
C17   C     C_R   0.134733 0.632933 0.506244 -0.214696
C18   C     C_R   0.863187 0.368613 0.508054 -0.218367
C19   C     C_R   0.862287 0.632053 0.499800 -0.206062
C20   C     C_R   0.136051 0.366335 0.500186 -0.206600
C21   C     C_R   0.635273 0.134801 0.500285 -0.215519
C22   C     C_R   0.363678 0.866367 0.497677 -0.218472
C23   C     C_R   0.367327 0.135861 0.500310 -0.222150
C24   C     C_R   0.630349 0.861702 0.500401 -0.209474
C25   C     C_R   0.189760 0.625578 0.451902 0.376312
C26   C     C_R   0.808716 0.375840 0.452486 0.379646
C27   C     C_R   0.805523 0.623112 0.449810 0.396085
C28   C     C_R   0.193480 0.374998 0.451993 0.387977
C29   C     C_R   0.683974 0.133634 0.570005 0.337360
C30   C     C_R   0.314439 0.867245 0.566479 0.361823
C31   C     C_R   0.310991 0.127967 0.551365 0.393049
C32   C     C_R   0.686886 0.868653 0.550486 0.395679
C33   C     C_R   0.232002 0.674485 0.442299 -0.076645
C34   C     C_R   0.764608 0.328109 0.446866 -0.076129
C35   C     C_R   0.752916 0.661755 0.467723 -0.066241
C36   C     C_R   0.245293 0.335772 0.470237 -0.067588
C37   C     C_R   0.727830 0.182431 0.577808 -0.077478
C38   C     C_R   0.265518 0.823810 0.562945 -0.071034
C39   C     C_R   0.270831 0.178561 0.569436 -0.075438
C40   C     C_R   0.725622 0.817738 0.570010 -0.074369
C41   C     C_R   0.227566 0.724289 0.507389 -0.076971
C42   C     C_R   0.766139 0.281199 0.517109 -0.077347
C43   C     C_R   0.761425 0.715871 0.522021 -0.076645
C44   C     C_R   0.235641 0.281162 0.522788 -0.079733
C45   C     C_R   0.721222 0.233268 0.514404 -0.072347
C46   C     C_R   0.272606 0.771938 0.502780 -0.075042
C47   C     C_R   0.282782 0.234910 0.522179 -0.081990
C48   C     C_R   0.713813 0.761664 0.522192 -0.078765
C49   C     C_R   0.179602 0.725428 0.579342 -0.037482
C50   C     C_R   0.811814 0.282995 0.591187 -0.039726
C51   C     C_R   0.820006 0.726989 0.568225 -0.008027
C52   C     C_R   0.176872 0.270578 0.568916 -0.010039
C53   C     C_R   0.671439 0.235782 0.446114 -0.036690
C54   C     C_R   0.324229 0.767752 0.437846 -0.040325
C55   C     C_R   0.339453 0.243418 0.468395 -0.017458
C56   C     C_R   0.657176 0.753378 0.468318 -0.015211
C57   C     C_R   0.281407 0.672651 0.374283 0.418479
C58   C     C_R   0.715932 0.328834 0.378125 0.418216
C59   C     C_R   0.691935 0.647491 0.433840 0.401460
C60   C     C_R   0.306737 0.350052 0.438395 0.402275
C61   C     C_R   0.775718 0.185114 0.650251 0.407362
C62   C     C_R   0.212496 0.827467 0.624699 0.429813
C63   C     C_R   0.219674 0.174949 0.634895 0.408552
C64   C     C_R   0.776478 0.821670 0.635492 0.410667
C65   C     C_R   0.806528 0.240740 0.667840 0.098440
C66   C     C_R   0.179730 0.774021 0.647758 0.089828
C67   C     C_R   0.171529 0.220369 0.634036 0.063212
C68   C     C_R   0.825108 0.777014 0.633649 0.062738
C69   C     C_R   0.332461 0.712884 0.383516 0.100003
C70   C     C_R   0.664142 0.289830 0.389591 0.097194
C71   C     C_R   0.643721 0.692957 0.433077 0.067132
C72   C     C_R   0.354093 0.303997 0.435663 0.066168
C73   C     C_R   0.056451 0.502493 0.792933 0.465125
C74   C     C_R   0.944590 0.494314 0.203587 0.469690
C75   C     C_R   0.943936 0.496664 0.793668 0.464475
C76   C     C_R   0.055481 0.505283 0.203572 0.452184
C77   C     C_R   0.555342 0.998959 0.797478 0.453830
C78   C     C_R   0.443183 0.003109 0.207592 0.500661
C79   C     C_R   0.444323 0.004495 0.796548 0.455823
C80   C     C_R   0.555580 0.006258 0.205106 0.481059
N1    N     N_R   1.000000 0.500000 0.743810 -0.229860
N2    N     N_R   0.000000 0.500000 0.256190 -0.257792
N3    N     N_R   0.500000 0.000000 0.743810 -0.258369
N4    N     N_R   0.500000 1.000000 0.256190 -0.227895
C81   C     C_R   0.943167 0.491923 0.896121 -0.117980
C82   C     C_R   0.057086 0.497456 0.101397 -0.118296
C83   C     C_R   0.058078 0.505370 0.895808 -0.094043
C84   C     C_R   0.943135 0.500895 0.101262 -0.102387
C85   C     C_R   0.443314 0.998284 0.899101 -0.120051
C86   C     C_R   0.555255 0.019159 0.103847 -0.098820
C87   C     C_R   0.555701 0.014388 0.898539 -0.087457
C88   C     C_R   0.441063 0.007594 0.104635 -0.099046
C89   C     C_R   0.000563 0.498617 0.946951 -0.033958
C90   C     C_R   0.000272 0.498886 0.049920 -0.032242
C91   C     C_R   0.499289 0.007791 0.950351 -0.023925
C92   C     C_R   0.498698 0.010245 0.053079 -0.032030
C93   C     C_R   0.886616 0.484974 0.950608 0.141779
C94   C     C_R   0.114281 0.493164 0.048292 0.122124
C95   C     C_R   0.114808 0.511800 0.950892 0.176031
C96   C     C_R   0.886098 0.504777 0.047378 0.176681
C97   C     C_R   0.386634 0.990566 0.952295 0.129082
C98   C     C_R   0.607186 0.045123 0.051903 0.143752
C99   C     C_R   0.608430 0.040491 0.948242 0.147229
C100  C     C_R   0.384089 0.009377 0.049608 0.176138
Cl1   Cl    Cl    0.062677 0.686729 0.648437 -0.599938
Cl2   Cl    Cl    0.930215 0.316292 0.657978 -0.577712
Cl3   Cl    Cl    0.946183 0.720615 0.530156 -0.559051
Cl4   Cl    Cl    0.049031 0.281982 0.541290 -0.565106
Cl5   Cl    Cl    0.590742 0.174049 0.324139 -0.610258
Cl6   Cl    Cl    0.403251 0.830559 0.315165 -0.514713
Cl7   Cl    Cl    0.433219 0.188233 0.354291 -0.609306
Cl8   Cl    Cl    0.558406 0.808674 0.362976 -0.574539
Cl9   Cl    Cl    0.217734 0.549864 0.434838 -0.399880
Cl10  Cl    Cl    0.782509 0.451596 0.431809 -0.404342
Cl11  Cl    Cl    0.808974 0.582585 0.340262 -0.474496
Cl12  Cl    Cl    0.192613 0.417612 0.344605 -0.470509
Cl13  Cl    Cl    0.689344 0.069039 0.644443 -0.442650
Cl14  Cl    Cl    0.317630 0.917597 0.664544 -0.487397
Cl15  Cl    Cl    0.281858 0.052041 0.560209 -0.378222
Cl16  Cl    Cl    0.720090 0.942598 0.552266 -0.381562
Cl17  Cl    Cl    0.278313 0.624404 0.271207 -0.495822
Cl18  Cl    Cl    0.720643 0.373993 0.272025 -0.521216
Cl19  Cl    Cl    0.672795 0.569728 0.407250 -0.509818
Cl20  Cl    Cl    0.327451 0.428161 0.418006 -0.507906
Cl21  Cl    Cl    0.807650 0.120967 0.712992 -0.491806
Cl22  Cl    Cl    0.177384 0.898466 0.659676 -0.456957
Cl23  Cl    Cl    0.222186 0.120491 0.730147 -0.501253
Cl24  Cl    Cl    0.773397 0.876374 0.730563 -0.473697
C101  C     C_3   0.826928 0.256461 0.770402 -0.289271
C102  C     C_3   0.774376 0.246691 0.844694 -0.866313
H1    H     H_    0.730066 0.270086 0.821503 0.249364
H2    H     H_    0.765374 0.197161 0.856249 0.287947
H3    H     H_    0.789101 0.266118 0.915023 0.255687
H4    H     H_    0.869249 0.228816 0.790706 0.265486
H5    H     H_    0.838300 0.306005 0.776475 0.236138
C103  C     C_3   0.154019 0.767831 0.749924 -0.313910
C104  C     C_3   0.201619 0.787355 0.826817 -0.835484
H6    H     H_    0.247763 0.763642 0.815230 0.253603
H7    H     H_    0.208646 0.837762 0.825759 0.300077
H8    H     H_    0.183510 0.774800 0.899239 0.254319
H9    H     H_    0.109633 0.795072 0.758004 0.261598
H10   H     H_    0.144885 0.719162 0.767054 0.240245
C105  C     C_3   0.120223 0.219075 0.711462 -0.351613
C106  C     C_3   0.072410 0.167503 0.695209 -0.558621
H11   H     H_    0.056160 0.166269 0.619397 0.289284
H12   H     H_    0.093248 0.121979 0.712857 0.272549
H13   H     H_    0.030714 0.175003 0.742647 0.242332
H14   H     H_    0.142194 0.213329 0.783486 0.219522
H15   H     H_    0.094758 0.263727 0.716874 0.246328
C107  C     C_3   0.877405 0.779232 0.709169 -0.349787
C108  C     C_3   0.923678 0.832036 0.692101 -0.563809
H16   H     H_    0.938715 0.834223 0.615683 0.290879
H17   H     H_    0.902086 0.876939 0.711731 0.274324
H18   H     H_    0.966286 0.825142 0.737566 0.236012
H19   H     H_    0.856211 0.784085 0.782055 0.222774
H20   H     H_    0.904283 0.735269 0.712440 0.246259
C109  C     C_3   0.397186 0.689716 0.351016 -0.347743
C110  C     C_3   0.414721 0.629151 0.401502 -0.779972
H21   H     H_    0.419518 0.636964 0.480197 0.245928
H22   H     H_    0.378938 0.592996 0.389400 0.322570
H23   H     H_    0.460150 0.611052 0.373181 0.246672
H24   H     H_    0.397852 0.683280 0.271679 0.259683
H25   H     H_    0.435135 0.722098 0.370264 0.253017
C111  C     C_3   0.599868 0.313500 0.356561 -0.352348
C112  C     C_3   0.583739 0.375870 0.402831 -0.773191
H26   H     H_    0.581471 0.371116 0.482390 0.246401
H27   H     H_    0.619018 0.411428 0.384453 0.324790
H28   H     H_    0.537292 0.392713 0.376741 0.246063
H29   H     H_    0.598886 0.317407 0.276850 0.255819
H30   H     H_    0.561488 0.282580 0.379303 0.251883
C113  C     C_3   0.578047 0.673389 0.401892 -0.344879
C114  C     C_3   0.573700 0.668546 0.291831 -0.635021
H31   H     H_    0.597964 0.707489 0.256211 0.286606
H32   H     H_    0.596002 0.625172 0.266128 0.266516
H33   H     H_    0.523612 0.668923 0.268635 0.234618
H34   H     H_    0.565837 0.628427 0.434384 0.220876
H35   H     H_    0.540771 0.703577 0.432206 0.224919
C115  C     C_3   0.420413 0.322904 0.406269 -0.335624
C116  C     C_3   0.425335 0.331497 0.296812 -0.648655
H36   H     H_    0.399387 0.295048 0.257643 0.279681
H37   H     H_    0.405250 0.376669 0.275149 0.268337
H38   H     H_    0.475448 0.329694 0.273579 0.234562
H39   H     H_    0.433731 0.366267 0.442940 0.218051
H40   H     H_    0.456590 0.290387 0.433311 0.225749
Cl25  Cl    Cl    0.127142 0.494289 0.726824 -0.605847
Cl26  Cl    Cl    0.877437 0.461800 0.254868 -0.476136
Cl27  Cl    Cl    0.872503 0.507991 0.730194 -0.612236
Cl28  Cl    Cl    0.123427 0.536827 0.255010 -0.470365
Cl29  Cl    Cl    0.621587 0.958728 0.753926 -0.459453
Cl30  Cl    Cl    0.372853 0.993448 0.273562 -0.539600
Cl31  Cl    Cl    0.375887 0.037029 0.746482 -0.468369
Cl32  Cl    Cl    0.627337 0.984170 0.260458 -0.522406
C117  C     C_3   0.830095 0.448946 0.913033 -0.389977
C118  C     C_3   0.805308 0.401877 0.985546 -0.770900
H41   H     H_    0.843977 0.370121 0.007953 0.268582
H42   H     H_    0.784945 0.424724 0.050074 0.289710
H43   H     H_    0.767208 0.374607 0.951569 0.245382
H44   H     H_    0.791188 0.480843 0.892319 0.238177
H45   H     H_    0.844057 0.421285 0.849138 0.253266
C119  C     C_3   0.171742 0.459447 0.089239 -0.316343
C120  C     C_3   0.195446 0.407840 0.023040 -0.816022
H46   H     H_    0.156058 0.376482 0.004475 0.262728
H47   H     H_    0.216112 0.426655 0.955946 0.254325
H48   H     H_    0.232814 0.380838 0.060420 0.268054
H49   H     H_    0.210738 0.491797 0.104882 0.259599
H50   H     H_    0.158678 0.436381 0.157259 0.278961
C121  C     C_3   0.173145 0.546508 0.916419 -0.349514
C122  C     C_3   0.156512 0.611166 0.881002 -0.748953
H51   H     H_    0.124980 0.609819 0.817463 0.288036
H52   H     H_    0.132682 0.637770 0.939204 0.253662
H53   H     H_    0.200519 0.635387 0.860309 0.244603
H54   H     H_    0.206799 0.553419 0.976525 0.211659
H55   H     H_    0.200975 0.520454 0.862520 0.249315
C123  C     C_3   0.828982 0.542160 0.081818 -0.355478
C124  C     C_3   0.847456 0.608418 0.104483 -0.698656
H56   H     H_    0.882255 0.609954 0.164123 0.275162
H57   H     H_    0.868408 0.630321 0.039743 0.236396
H58   H     H_    0.804806 0.635163 0.126299 0.269117
H59   H     H_    0.792389 0.544815 0.024778 0.198677
H60   H     H_    0.804655 0.521459 0.143996 0.299264
C125  C     C_3   0.333033 0.952064 0.912318 -0.333368
C126  C     C_3   0.314526 0.899975 0.980650 -0.785250
H61   H     H_    0.357027 0.872878 0.001901 0.273892
H62   H     H_    0.290883 0.918240 0.046145 0.264348
H63   H     H_    0.281105 0.868736 0.944164 0.254595
H64   H     H_    0.291079 0.980993 0.895134 0.265495
H65   H     H_    0.349103 0.929095 0.845700 0.273989
C127  C     C_3   0.653752 0.087090 0.105146 -0.347867
C128  C     C_3   0.643439 0.155701 0.083740 -0.756508
H66   H     H_    0.669196 0.170646 0.018668 0.237731
H67   H     H_    0.592238 0.166556 0.076508 0.271011
H68   H     H_    0.662608 0.183764 0.143704 0.283757
H69   H     H_    0.647846 0.084834 0.183625 0.280764
H70   H     H_    0.703418 0.072835 0.090931 0.216444
C129  C     C_3   0.659036 0.073590 0.890114 -0.290454
C130  C     C_3   0.630594 0.129333 0.837441 -0.780104
H71   H     H_    0.597723 0.114638 0.779936 0.270388
H72   H     H_    0.603723 0.159466 0.887643 0.236900
H73   H     H_    0.668648 0.156624 0.803651 0.261723
H74   H     H_    0.699123 0.089184 0.934243 0.200768
H75   H     H_    0.682734 0.042381 0.838985 0.306265
C131  C     C_3   0.323170 0.041094 0.083106 -0.371674
C132  C     C_3   0.334937 0.106939 0.117466 -0.692543
H76   H     H_    0.366428 0.108000 0.181114 0.291240
H77   H     H_    0.356882 0.134155 0.058767 0.245697
H78   H     H_    0.289259 0.129026 0.137619 0.251281
H79   H     H_    0.289296 0.045468 0.022553 0.214469
H80   H     H_    0.297199 0.014058 0.137350 0.256168

loop_
_geom_bond_atom_site_label_1
_geom_bond_atom_site_label_2
_geom_bond_distance
_ccdc_geom_bond_type
C132  H78   1.110420 S    
C79   N3    1.388172 A    
C108  H16   1.108633 S    
C10   Cl2   1.772781 S    
C80   C86   1.434582 A    
C104  H6    1.111245 S    
C8    C21   1.496984 S    
C29   Cl13  1.748085 S    
O5    Cu2   1.986549 S    
O2    C2    1.300806 A    
C84   C96   1.422851 A    
C67   C105  1.526595 S    
C105  C106  1.532718 S    
C74   Cl26  1.742853 S    
C16   Cl8   1.771383 S    
C11   Cl3   1.754684 S    
C2    C19   1.481592 S    
Cu1   N1    2.033373 S    
C122  H52   1.111006 S    
C110  H21   1.110951 S    
C117  H45   1.109529 S    
C95   C121  1.527880 S    
C132  H76   1.108275 S    
C12   C52   1.412608 A    
C79   Cl31  1.751357 S    
C117  C118  1.531573 S    
O10   C6    1.299765 A    
C97   C125  1.520111 S    
C108  H17   1.107840 S    
C74   C84   1.429035 A    
C128  H66   1.104947 S    
C7    C22   1.494820 S    
C77   Cl29  1.751778 S    
C82   C90   1.399579 A    
C54   C69   1.419949 A    
C81   C89   1.413923 A    
C103  C104  1.531145 S    
C39   C63   1.414527 A    
C53   C70   1.421565 A    
C88   C100  1.428483 A    
C120  H48   1.110675 S    
C9    Cl1   1.771552 S    
C38   C62   1.412048 A    
C131  H80   1.104350 S    
C77   C87   1.442880 A    
C127  H70   1.109906 S    
C112  H27   1.108405 S    
O6    Cu1   1.986546 S    
C107  C108  1.532904 S    
C13   Cl5   1.774192 S    
C109  H24   1.110703 S    
C46   C54   1.416971 A    
C130  H73   1.107692 S    
C80   N4    1.379510 A    
C45   C53   1.419313 A    
C111  C112  1.535289 S    
C42   C50   1.413474 A    
O3    C2    1.311697 A    
C132  H77   1.111075 S    
C125  C126  1.531345 S    
C130  H72   1.108764 S    
O14   C8    1.312248 A    
C27   C35   1.410113 A    
C66   C103  1.525177 S    
C94   C95   1.412834 A    
C83   C89   1.416099 A    
C97   C100  1.412446 A    
C16   C56   1.429540 A    
C96   C123  1.526072 S    
C113  H34   1.109340 S    
C33   C41   1.412049 A    
C41   C46   1.414393 A    
C38   C46   1.409498 A    
C59   Cl19  1.779987 S    
C112  H26   1.111019 S    
C129  H75   1.098897 S    
C11   C19   1.393480 A    
C60   Cl20  1.780022 S    
C102  H3    1.109921 S    
C14   C22   1.417804 A    
C119  H49   1.109821 S    
C116  H38   1.107582 S    
C126  H62   1.108709 S    
C124  H56   1.109859 S    
C36   C44   1.410549 A    
O13   Cu4   1.986549 S    
C115  C116  1.535471 S    
C69   C109  1.522081 S    
O14   Cu3   1.986546 S    
C15   C23   1.406062 A    
C59   C71   1.414325 A    
C28   C36   1.406601 A    
Cu3   Cu4   2.706347 S    
C39   C47   1.414924 A    
C24   C32   1.393714 A    
O16   Cu3   1.986742 S    
C12   C20   1.397631 A    
C121  H54   1.109049 S    
C98   C127  1.537850 S    
C25   C33   1.400621 A    
C116  H36   1.110042 S    
C104  H7    1.107190 S    
C125  H65   1.102607 S    
C82   C94   1.417809 A    
O1    Cu1   1.970144 S    
O8    Cu1   1.986742 S    
C124  H57   1.111162 S    
C81   C93   1.423201 A    
C72   C115  1.519981 S    
C83   C95   1.431976 A    
C122  H51   1.107748 S    
C10   C50   1.417226 A    
O13   C7    1.303607 A    
Cu3   N3    2.033373 S    
C9    C49   1.418971 A    
C107  H19   1.110877 S    
C64   Cl24  1.776682 S    
C75   Cl27  1.766371 S    
C121  H55   1.104238 S    
C108  H18   1.110674 S    
C128  H67   1.111114 S    
O8    C3    1.290481 A    
C78   C88   1.434310 A    
C87   C99   1.433397 A    
C125  H64   1.109895 S    
C126  H63   1.107263 S    
C114  H33   1.107775 S    
C64   C68   1.408670 A    
O3    Cu1   1.971147 S    
C68   C107  1.526888 S    
C13   C21   1.411946 A    
C89   C90   1.430255 A    
C93   C96   1.410854 A    
C73   N1    1.377706 A    
C131  H79   1.109614 S    
C127  H69   1.098181 S    
C122  H53   1.110574 S    
C112  H28   1.107333 S    
C107  H20   1.109037 S    
C100  C131  1.527706 S    
C34   C42   1.412566 A    
Cu1   Cu2   2.706347 S    
C109  H25   1.104874 S    
C71   C113  1.519605 S    
O12   C5    1.302280 A    
C80   Cl32  1.765928 S    
C58   C70   1.399573 A    
C113  C114  1.535238 S    
C35   C43   1.409596 A    
C1    C20   1.481231 S    
C114  H32   1.109125 S    
C60   C72   1.410758 A    
C33   C57   1.407496 A    
C101  H4    1.111085 S    
C44   C47   1.410172 A    
C120  H46   1.111199 S    
C3    C18   1.480110 S    
C26   Cl10  1.757546 S    
C5    C24   1.476201 S    
C35   C59   1.410490 A    
Cu4   N4    2.033373 S    
C110  H22   1.108442 S    
C121  C122  1.528434 S    
O11   Cu3   1.971147 S    
C15   C55   1.421529 A    
C130  H71   1.108386 S    
C26   C34   1.403161 A    
C126  H61   1.111260 S    
C30   C38   1.407313 A    
C119  H50   1.105855 S    
O2    Cu2   1.970144 S    
C123  H60   1.102779 S    
C48   C56   1.426142 A    
C76   N2    1.386710 A    
C93   C117  1.526902 S    
O7    Cu2   1.986739 S    
C74   N2    1.388511 A    
C77   N3    1.388948 A    
C55   C72   1.429920 A    
C22   C30   1.411925 A    
C63   Cl23  1.777206 S    
O4    C1    1.303050 A    
C13   C53   1.414720 A    
O15   C8    1.307196 A    
C14   C54   1.416235 A    
C103  H9    1.111181 S    
O7    C4    1.316326 A    
O16   C7    1.315835 A    
C61   Cl21  1.774965 S    
C115  H40   1.104173 S    
C124  H58   1.110537 S    
C102  H2    1.106861 S    
C16   C24   1.408591 A    
C47   C55   1.424435 A    
C123  C124  1.528113 S    
C62   Cl22  1.774136 S    
C17   C25   1.393771 A    
C129  C130  1.535547 S    
C73   C83   1.430721 A    
C15   Cl7   1.772624 S    
C88   C92   1.414040 A    
C52   C67   1.423614 A    
C127  C128  1.535231 S    
O9    Cu3   1.970144 S    
C19   C27   1.402813 A    
C73   Cl25  1.760563 S    
O10   Cu4   1.970144 S    
C20   C28   1.399796 A    
C76   C82   1.429466 A    
C129  H74   1.102559 S    
C106  H11   1.108720 S    
C128  H68   1.111024 S    
C42   C45   1.416234 A    
C27   Cl11  1.758355 S    
C118  H41   1.111138 S    
C57   C69   1.401046 A    
C99   C129  1.525022 S    
C28   Cl12  1.757010 S    
C106  H13   1.110558 S    
C113  H35   1.104036 S    
C86   C92   1.404378 A    
C37   C45   1.420271 A    
C84   C90   1.402181 A    
C118  H43   1.109982 S    
C63   C67   1.412605 A    
C29   C37   1.418998 A    
O4    Cu2   1.971147 S    
C117  H44   1.110345 S    
C30   Cl14  1.748083 S    
C131  C132  1.530781 S    
O5    C3    1.320372 A    
C25   Cl9   1.760089 S    
C104  H8    1.110847 S    
C21   C29   1.415261 A    
O6    C4    1.291379 A    
C43   C48   1.410146 A    
O11   C6    1.306992 A    
O1    C1    1.309084 A    
C36   C60   1.408950 A    
C40   C48   1.411762 A    
C41   C49   1.422600 A    
C114  H31   1.109990 S    
C12   Cl4   1.755368 S    
C79   C85   1.431166 A    
C58   Cl18  1.774977 S    
C105  H14   1.110692 S    
C101  H5    1.108664 S    
C118  H42   1.108712 S    
C70   C111  1.521417 S    
C120  H47   1.108667 S    
C62   C66   1.395010 A    
C101  C102  1.531312 S    
Cu2   N2    2.033373 S    
C94   C119  1.525398 S    
C4    C17   1.473969 S    
C40   C64   1.413017 A    
O9    C5    1.306417 A    
O15   Cu4   1.986739 S    
C23   C31   1.397146 A    
C78   N4    1.380627 A    
C106  H12   1.108016 S    
C32   Cl16  1.759657 S    
C75   C81   1.427016 A    
C119  C120  1.530255 S    
C111  H30   1.104028 S    
C123  H59   1.109871 S    
C44   C52   1.417735 A    
C105  H15   1.108619 S    
C37   C61   1.430574 A    
C65   C101  1.528403 S    
C86   C98   1.432960 A    
C18   C26   1.395876 A    
C110  H23   1.106555 S    
C76   Cl28  1.750592 S    
C85   C91   1.399236 A    
C56   C71   1.432111 A    
C103  H10   1.103289 S    
C51   C68   1.421201 A    
C75   N1    1.374339 A    
C31   C39   1.406130 A    
C14   Cl6   1.775401 S    
C57   Cl17  1.775311 S    
C32   C40   1.398825 A    
C109  C110  1.535720 S    
C78   Cl30  1.759566 S    
C9    C17   1.413587 A    
C115  H39   1.109566 S    
C116  H37   1.108994 S    
C102  H1    1.111054 S    
C87   C91   1.400478 A    
C85   C97   1.418080 A    
C10   C18   1.416313 A    
O12   Cu4   1.971147 S    
C98   C99   1.443409 A    
C50   C65   1.412009 A    
C43   C51   1.418767 A    
C111  H29   1.110783 S    
C6    C23   1.471581 S    
C61   C65   1.399796 A    
C49   C66   1.420010 A    
C91   C92   1.427849 A    
C11   C51   1.407318 A    
C34   C58   1.405492 A    
C31   Cl15  1.770891 S    
