data_mof_unit_59474.cif
_audit_creation_date              2012-12-11T15:13:50-0500
_audit_creation_method            fapswitch 2.2
_symmetry_space_group_name_H-M    P1
_symmetry_Int_Tables_number       1
_space_group_crystal_system       triclinic
_cell_length_a                    6.949542
_cell_length_b                    13.605601
_cell_length_c                    20.059691
_cell_angle_alpha                 104.228087
_cell_angle_beta                  90.341403
_cell_angle_gamma                 90.482625
_cell_volume                      1838.3883187

loop_
_atom_site_label
_atom_site_type_symbol
_atom_type_description
_atom_site_fract_x
_atom_site_fract_y
_atom_site_fract_z
_atom_type_partial_charge
O1    O     O_R   0.506780 0.600060 0.449950 -0.543088
O2    O     O_R   0.179840 0.597110 0.589410 -0.540109
O3    O     O_R   0.004570 0.399940 0.550050 -0.543089
C1    C     C_R   0.348791 0.617800 0.617264 0.731045
O4    O     O_R   0.177380 0.612160 0.452890 -0.535193
O5    O     O_R   0.002100 0.415100 0.412560 -0.539538
C2    C     C_R   0.345941 0.637379 0.435381 0.734990
O6    O     O_R   0.509250 0.584900 0.587440 -0.542508
O7    O     O_3   0.337570 0.435330 0.486930 -0.370608
V1    V     V_3+5 0.064650 0.512000 0.502430 1.531958
O8    O     O_R   0.672090 0.402890 0.410590 -0.541158
C3    C     C_R   0.839612 0.382899 0.382530 0.759521
O9    O     O_R   0.674540 0.387840 0.547110 -0.538469
C4    C     C_R   0.843182 0.361389 0.563527 0.765564
V2    V     V_3+5 0.564040 0.488000 0.497570 1.525338
O10   O     O_3   0.840990 0.564670 0.513070 -0.370596
C5    C     C_R   0.853525 0.106663 0.604109 -0.090307
H1    H     H_    0.853700 0.028083 0.575596 0.217801
C6    C     C_R   0.850991 0.282608 0.601268 -0.115353
C7    C     C_R   0.862241 0.316098 0.931667 -0.084703
C8    C     C_R   0.859195 0.392276 0.896691 -0.068806
C9    C     C_R   0.856545 0.368205 0.825067 -0.154546
C10   C     C_R   0.856622 0.265885 0.786070 0.098374
C11   C     C_R   0.858674 0.188068 0.822360 0.003307
C12   C     C_R   0.855211 0.238460 0.712495 0.030977
C13   C     C_R   0.855010 0.134065 0.676663 -0.006717
C14   C     C_R   0.855981 0.058811 0.713700 0.428307
C15   C     C_R   0.858314 0.085783 0.785290 -0.245027
C16   C     C_R   0.853541 0.311452 0.673054 -0.256768
C17   C     C_R   0.851166 0.180105 0.566598 0.347326
C18   C     C_R   0.861775 0.214385 0.895382 -0.072066
H2    H     H_    0.859526 0.470910 0.925349 0.143822
C19   C     C_3   0.846282 0.157805 0.253912 0.480747
C20   C     C_3   0.003636 0.235072 0.287465 -0.126669
H3    H     H_    0.124367 0.224641 0.321058 0.204857
C21   C     C_3   0.846160 0.314411 0.311390 -0.123352
C22   C     C_3   0.688410 0.237126 0.278694 -0.121151
C23   C     C_3   0.706993 0.271538 0.210793 -0.206620
C24   C     C_3   0.864089 0.350011 0.244513 -0.077872
C25   C     C_3   0.021824 0.269555 0.219593 -0.142732
C26   C     C_3   0.864546 0.191638 0.186698 -0.133952
H4    H     H_    0.550719 0.227048 0.303714 0.196713
H5    H     H_    0.584832 0.286394 0.178830 0.168942
H6    H     H_    0.867530 0.430328 0.241613 0.191027
C27   C     C_3   0.344138 0.802625 0.704704 0.485113
C28   C     C_3   0.192177 0.801696 0.760308 -0.135231
H7    H     H_    0.057462 0.845900 0.769322 0.165359
C29   C     C_3   0.355956 0.809184 0.813342 -0.107887
C30   C     C_3   0.507760 0.811651 0.758114 -0.128262
C31   C     C_3   0.520187 0.694431 0.741648 -0.168183
C32   C     C_3   0.368918 0.692866 0.797966 -0.145655
C33   C     C_3   0.205010 0.684351 0.743936 -0.181581
C34   C     C_3   0.356599 0.686756 0.688318 -0.083921
H8    H     H_    0.631299 0.865254 0.766427 0.168913
H9    H     H_    0.378295 0.648070 0.837238 0.123301
C35   C     C_R   0.313849 0.888749 0.392913 -0.025372
H10   H     H_    0.295324 0.966614 0.421301 0.210216
C36   C     C_R   0.352171 0.714909 0.396689 -0.075282
C37   C     C_R   0.351558 0.682219 0.065792 -0.289478
C38   C     C_R   0.321665 0.605121 0.098983 0.436106
C39   C     C_R   0.303519 0.627580 0.170952 0.341128
C40   C     C_R   0.334909 0.729181 0.211236 -0.056073
C41   C     C_R   0.349544 0.807769 0.175569 -0.044605
C42   C     C_R   0.343126 0.757323 0.285064 0.067950
C43   C     C_R   0.330236 0.861433 0.320684 0.037813
C44   C     C_R   0.338143 0.936460 0.283921 0.458824
C45   C     C_R   0.352919 0.909860 0.212833 -0.119105
C46   C     C_R   0.373411 0.686819 0.325259 -0.128599
C47   C     C_R   0.317835 0.815379 0.430164 -0.148838
C48   C     C_R   0.357507 0.783139 0.102873 -0.104945
H11   H     H_    0.418025 0.610335 0.302669 0.163657
H12   H     H_    0.360440 0.663647 0.010149 0.147897
O11   O     O_R   0.203580 0.914920 0.912610 -0.545201
O12   O     O_R   0.535710 0.887810 0.047120 -0.536718
O13   O     O_R   0.710730 0.084950 0.087430 -0.537095
C49   C     C_R   0.367051 0.861540 0.064061 0.722787
O14   O     O_R   0.533010 0.902850 0.910600 -0.548812
O15   O     O_R   0.708010 0.100090 0.949930 -0.539950
C50   C     C_R   0.363816 0.880183 0.883500 0.701877
O16   O     O_R   0.206300 0.899780 0.050100 -0.537858
O17   O     O_3   0.375170 0.064580 0.013100 -0.368077
V3    V     V_3+5 0.648200 0.988020 0.997570 1.471306
O18   O     O_R   0.038030 0.112330 0.952840 -0.535768
C51   C     C_R   0.869494 0.137360 0.935122 0.689983
O19   O     O_R   0.040730 0.097300 0.089360 -0.541034
C52   C     C_R   0.872641 0.120052 0.116529 0.760777
V4    V     V_3+5 0.148780 0.012220 0.002360 1.485464
O20   O     O_3   0.871930 0.935430 0.986900 -0.376482
Cl1   Cl    Cl    0.848210 0.141397 0.475995 -0.569431
Cl2   Cl    Cl    0.836509 0.029531 0.260131 -0.585057
H13   H     H_    0.159333 0.282618 0.195066 0.177688
Cl3   Cl    Cl    0.334609 0.875938 0.642498 -0.590603
H14   H     H_    0.655434 0.650356 0.733630 0.124755
Cl4   Cl    Cl    0.853451 0.928547 0.671967 -0.639435
H15   H     H_    0.080311 0.631220 0.737762 0.119990
H16   H     H_    0.298418 0.837279 0.485360 0.186392
Cl5   Cl    Cl    0.344087 0.065977 0.325729 -0.636107
Cl6   Cl    Cl    0.201206 0.530481 0.204495 -0.686331
Cl7   Cl    Cl    0.296154 0.480275 0.047635 -0.620524
H17   H     H_    0.364076 0.970682 0.186885 0.141240
H18   H     H_    0.852864 0.391740 0.696222 0.102872
H19   H     H_    0.865424 0.336514 0.987413 0.149737
H20   H     H_    0.854722 0.431890 0.802171 0.102229
H21   H     H_    0.859597 0.025366 0.811761 0.124508

loop_
_geom_bond_atom_site_label_1
_geom_bond_atom_site_label_2
_ccdc_geom_bond_type
O18   V4    S    
V4    O20   S    
C1    C34   S    
C39   Cl6   S    
C1    O6    A    
C38   Cl7   S    
O17   V3    S    
C27   C28   S    
C26   C52   S    
C35   C47   A    
C13   C14   A    
C40   C41   A    
O12   C49   A    
C20   C25   S    
C5    C13   A    
C42   C46   A    
C44   Cl5   S    
C21   C22   S    
O16   V4    S    
O5    C3    A    
C23   C24   S    
C7    H19   S    
C30   H8    S    
C28   C33   S    
C35   H10   S    
C33   H15   S    
C20   H3    S    
C22   H4    S    
C27   Cl3   S    
C15   H21   S    
O11   V4    S    
C40   C42   A    
O8    V2    S    
C29   C32   S    
C10   C11   A    
O1    V2    S    
C3    C21   S    
O7    V1    S    
C2    C36   S    
C20   C21   S    
C37   H12   S    
C47   H16   S    
O19   V4    S    
C44   C45   A    
C27   C34   S    
C37   C38   A    
C8    C9    A    
C5    C17   A    
O12   V3    S    
C17   Cl1   S    
C5    H1    S    
C28   C29   S    
O14   C50   A    
C12   C16   A    
C8    H2    S    
C41   C45   A    
C31   C34   S    
C32   C33   S    
C49   O16   A    
C23   C26   S    
C24   C25   S    
O4    C2    A    
C31   C32   S    
C12   C13   A    
O19   C52   A    
C19   C22   S    
C9    H20   S    
C38   C39   A    
O2    C1    A    
C22   C23   S    
C35   C43   A    
O15   V3    S    
O13   C52   A    
O18   C51   A    
C41   C48   A    
C27   C30   S    
C19   C20   S    
O11   C50   A    
C16   H18   S    
C36   C47   A    
O17   V4    S    
O3    C4    A    
C45   H17   S    
C31   H14   S    
C36   C46   A    
C29   C30   S    
C43   C44   A    
O6    V2    S    
O9    V2    S    
C48   C49   S    
O2    V1    S    
C33   C34   S    
C29   C50   S    
C28   H7    S    
C25   C26   S    
O1    C2    A    
C4    C6    S    
C21   C24   S    
C11   C15   A    
O5    V1    S    
O8    C3    A    
O13   V3    S    
C24   H6    S    
C19   C26   S    
C42   C43   A    
O7    V2    S    
C11   C18   A    
O4    V1    S    
O3    V1    S    
V1    O10   S    
C19   Cl2   S    
O14   V3    S    
C46   H11   S    
V3    O20   S    
C32   H9    S    
C10   C12   A    
C25   H13   S    
C39   C40   A    
C18   C51   S    
C37   C48   A    
O15   C51   A    
C23   H5    S    
C7    C8    A    
C30   C31   S    
C14   C15   A    
C9    C10   A    
C14   Cl4   S    
O9    C4    A    
C6    C17   A    
V2    O10   S    
C7    C18   A    
C6    C16   A    
