data_mof_unit_59476.cif
_audit_creation_date              2012-10-26T19:07:15-0400
_audit_creation_method            fapswitch 2.2
_symmetry_space_group_name_H-M    P1
_symmetry_Int_Tables_number       1
_space_group_crystal_system       triclinic
_cell_length_a                    15.013199
_cell_length_b                    13.935882
_cell_length_c                    10.655902
_cell_angle_alpha                 89.549423
_cell_angle_beta                  84.651201
_cell_angle_gamma                 90.409782
_cell_volume                      2219.60490861

loop_
_atom_site_label
_atom_site_type_symbol
_atom_type_description
_atom_site_fract_x
_atom_site_fract_y
_atom_site_fract_z
_atom_type_partial_charge
C1    C     C_R   0.328910 0.499479 0.501003 0.534851
C2    C     C_R   0.961495 0.360226 0.362129 -0.138266
C3    C     C_R   0.441734 0.797292 0.579195 0.144450
C4    C     C_R   0.563372 0.206894 0.422009 0.144191
C5    C     C_R   0.561857 0.794935 0.417003 0.138643
C6    C     C_R   0.443938 0.202557 0.587849 0.141355
C7    C     C_R   0.562857 0.899374 0.413968 -0.017149
C8    C     C_R   0.459209 0.100721 0.608247 -0.014659
C9    C     C_R   0.460347 0.895768 0.603275 -0.005777
C10   C     C_R   0.571038 0.104407 0.430692 -0.017809
C11   C     C_R   0.513241 0.948648 0.512330 -0.015999
C12   C     C_R   0.670969 0.500135 0.499440 0.536944
C13   C     C_R   0.513713 0.051473 0.516570 -0.020508
C14   C     C_R   0.617292 0.957838 0.324644 0.026541
C15   C     C_R   0.425716 0.045814 0.718641 0.026548
C16   C     C_R   0.428273 0.942536 0.716317 0.012777
C17   C     C_R   0.638566 0.052389 0.359624 0.035671
C18   C     C_R   0.499998 0.500452 0.259514 0.539017
C19   C     C_R   0.500448 0.499854 0.740466 0.541617
C20   C     C_3   0.485076 0.590728 0.041624 -0.112062
C21   C     C_3   0.516045 0.411624 0.958593 -0.124813
C22   C     C_3   0.565360 0.560386 0.949263 -0.116973
C23   C     C_R   0.952835 0.496959 0.503924 0.058439
C24   C     C_3   0.435612 0.441796 0.050553 -0.127278
C25   C     C_3   0.420795 0.530752 0.967585 -0.127909
C26   C     C_3   0.580219 0.471571 0.032420 -0.132561
C27   C     C_3   0.501051 0.500227 0.877609 0.047184
C28   C     C_3   0.499916 0.501604 0.122377 0.047801
C29   C     C_R   0.817665 0.430014 0.431572 -0.141084
C30   C     C_R   0.180937 0.562406 0.578805 -0.149380
C31   C     C_R   0.767557 0.499737 0.500138 -0.007171
C32   C     C_R   0.231925 0.497342 0.503765 -0.012705
C33   C     C_R   0.809434 0.567303 0.571732 -0.144679
C34   C     C_R   0.046105 0.496058 0.505176 0.059939
C35   C     C_R   0.190137 0.428874 0.433054 -0.143067
C36   C     C_R   0.902012 0.566201 0.574615 0.010076
C37   C     C_R   0.097163 0.427662 0.433335 0.011641
C38   C     C_3   0.345106 0.766032 0.605478 -0.237428
C39   C     C_3   0.297335 0.774708 0.484837 -0.406001
C40   C     C_3   0.613228 0.255550 0.307664 -0.216907
C41   C     C_3   0.564290 0.238881 0.190044 -0.440520
C42   C     C_3   0.636588 0.742462 0.338883 -0.213790
C43   C     C_3   0.727567 0.759215 0.389377 -0.434508
C44   C     C_3   0.349088 0.237482 0.627200 -0.208428
C45   C     C_R   0.910439 0.428589 0.432116 0.013367
C46   C     C_3   0.337718 0.306588 0.739802 -0.380837
C47   C     C_3   0.639912 0.928519 0.187812 -0.268105
C48   C     C_3   0.640261 0.009180 0.090233 -0.454528
C49   C     C_3   0.403261 0.095879 0.843852 -0.263499
C50   C     C_3   0.486218 0.145363 0.886189 -0.449841
C51   C     C_3   0.409824 0.880898 0.836537 -0.272933
C52   C     C_3   0.484916 0.887974 0.923637 -0.433646
C53   C     C_3   0.733693 0.069108 0.394854 -0.268929
C54   C     C_3   0.806308 0.071276 0.284372 -0.450610
C55   C     C_R   0.088277 0.563520 0.578452 0.012949
C56   C     C_R   0.944560 0.632782 0.647279 -0.138912
C57   C     C_R   0.054431 0.359983 0.362392 -0.139609
C58   C     C_R   0.037226 0.631175 0.649632 -0.139912
Cu1   Cu    Cu3+1 0.500000 0.597420 0.500000 0.892218
Cu2   Cu    Cu3+1 0.500000 0.402580 0.500000 0.897839
H1    H     H_    0.355598 0.555007 0.937950 0.093252
H2    H     H_    0.230135 0.377723 0.376526 0.109240
H3    H     H_    0.906182 0.686004 0.702193 0.102044
H4    H     H_    0.092872 0.307023 0.307102 0.101454
H5    H     H_    0.069065 0.683293 0.706178 0.101396
H6    H     H_    0.929578 0.307310 0.306836 0.102522
H7    H     H_    0.331603 0.733765 0.405843 0.192426
H8    H     H_    0.227091 0.749380 0.502347 0.131494
H9    H     H_    0.296071 0.851231 0.454918 0.125075
H10   H     H_    0.340810 0.694830 0.651413 0.164699
H11   H     H_    0.306711 0.813501 0.673395 0.098234
H12   H     H_    0.645411 0.447221 0.061966 0.096461
H13   H     H_    0.502211 0.280924 0.190815 0.180877
H14   H     H_    0.608820 0.257212 0.103963 0.120524
H15   H     H_    0.542729 0.163495 0.186160 0.140566
H16   H     H_    0.626597 0.331876 0.318819 0.195308
H17   H     H_    0.681457 0.227327 0.289731 0.101676
H18   H     H_    0.722805 0.745926 0.492552 0.166550
H19   H     H_    0.777788 0.709861 0.342510 0.134839
H20   H     H_    0.751436 0.833890 0.371232 0.135478
H21   H     H_    0.625468 0.666585 0.330482 0.214472
H22   H     H_    0.640232 0.757326 0.237859 0.073936
H23   H     H_    0.472159 0.663821 0.079245 0.108323
H24   H     H_    0.392990 0.300901 0.800906 0.157371
H25   H     H_    0.331982 0.382321 0.711690 0.175429
H26   H     H_    0.274241 0.289497 0.798032 0.093672
H27   H     H_    0.318596 0.266168 0.544470 0.161608
H28   H     H_    0.304594 0.174510 0.650412 0.090414
H29   H     H_    0.571253 0.034420 0.086182 0.137435
H30   H     H_    0.684031 0.069963 0.110600 0.165965
H31   H     H_    0.664220 0.981086 0.995959 0.126475
H32   H     H_    0.706280 0.893669 0.176418 0.138978
H33   H     H_    0.586981 0.878771 0.160826 0.135989
H34   H     H_    0.531156 0.339116 0.922104 0.109082
H35   H     H_    0.540180 0.092505 0.893808 0.152877
H36   H     H_    0.512434 0.200471 0.816733 0.160580
H37   H     H_    0.469373 0.179452 0.978972 0.120973
H38   H     H_    0.347370 0.145336 0.840909 0.132971
H39   H     H_    0.376601 0.047403 0.920493 0.138163
H40   H     H_    0.550844 0.898953 0.868708 0.159233
H41   H     H_    0.471923 0.946362 0.992023 0.142212
H42   H     H_    0.487974 0.820769 0.979603 0.123466
H43   H     H_    0.343803 0.897838 0.886871 0.118650
H44   H     H_    0.406028 0.803441 0.815816 0.140527
H45   H     H_    0.618435 0.608916 0.904917 0.106816
H46   H     H_    0.809954 0.001800 0.234623 0.151764
H47   H     H_    0.795544 0.130307 0.217357 0.134666
H48   H     H_    0.872167 0.084017 0.321111 0.131454
H49   H     H_    0.738444 0.137160 0.447777 0.136554
H50   H     H_    0.750062 0.011164 0.461103 0.138281
H51   H     H_    0.382464 0.393136 0.094406 0.100681
H52   H     H_    0.784473 0.377785 0.376665 0.097174
H53   H     H_    0.213110 0.611420 0.638639 0.096994
H54   H     H_    0.769699 0.619271 0.627121 0.111025
N1    N     N_R   0.500000 0.743810 0.500000 -0.226477
N2    N     N_R   0.500000 0.256190 0.500000 -0.224737
O1    O     O_R   0.370260 0.582280 0.500030 -0.508863
O2    O     O_R   0.629740 0.417720 0.499970 -0.514398
O3    O     O_R   0.629740 0.582280 0.499970 -0.520329
O4    O     O_R   0.370260 0.417720 0.500030 -0.514981
O5    O     O_R   0.499980 0.582260 0.316850 -0.528776
O6    O     O_R   0.500020 0.417740 0.683150 -0.503458
O7    O     O_R   0.500020 0.582260 0.683150 -0.502111
O8    O     O_R   0.499980 0.417740 0.316850 -0.519461

loop_
_geom_bond_atom_site_label_1
_geom_bond_atom_site_label_2
_ccdc_geom_bond_type
C53   H50   S    
Cu1   O5    S    
C5    C42   S    
C38   H10   S    
C19   O6    A    
C8    C13   A    
C23   C45   A    
C34   C37   A    
C26   H12   S    
C39   H8    S    
C29   H52   S    
C42   H22   S    
C16   C51   S    
C21   C26   S    
C2    C57   A    
C53   C54   S    
C43   H18   S    
C7    C11   A    
C42   H21   S    
C19   O7    A    
C33   H54   S    
C54   H47   S    
C36   C56   A    
C35   C37   A    
C9    C16   A    
C38   C39   S    
C50   H35   S    
C41   H15   S    
C21   H34   S    
C10   C17   A    
C43   H19   S    
C15   C16   A    
C49   H38   S    
C33   C36   A    
C47   H32   S    
Cu2   O8    S    
C41   H14   S    
C7    C14   A    
C4    C40   S    
C3    C38   S    
C48   H31   S    
C31   C33   A    
Cu2   O2    S    
C44   H27   S    
C19   C27   S    
C46   H25   S    
C21   C27   S    
C34   C55   A    
Cu1   O1    S    
C6    C44   S    
C5    N1    A    
C14   C17   A    
C24   H51   S    
C44   C46   S    
C2    C45   A    
Cu1   O7    S    
C52   H41   S    
C54   H46   S    
C51   C52   S    
C32   C35   A    
C18   C28   S    
C24   C25   S    
C5    C7    A    
C1    O1    A    
C20   C28   S    
C43   H20   S    
C52   H40   S    
C1    C32   S    
C40   H16   S    
C29   C45   A    
C1    O4    A    
C3    C9    A    
C49   H39   S    
C12   O3    A    
C58   H5    S    
C47   C48   S    
C23   C34   A    
C52   H42   S    
C39   H9    S    
C56   H3    S    
C25   H1    S    
Cu2   O6    S    
C9    C11   A    
C6    N2    A    
C12   O2    A    
C40   C41   S    
C20   C22   S    
C23   C36   A    
C8    C15   A    
C48   H29   S    
C12   C31   S    
C22   C26   S    
C46   H24   S    
C21   C24   S    
C42   C43   S    
C4    C10   A    
C17   C53   S    
C57   H4    S    
C53   H49   S    
C38   H11   S    
C50   H37   S    
Cu1   O3    S    
C47   H33   S    
C39   H7    S    
C4    N2    A    
C24   C28   S    
C2    H6    S    
C10   C13   A    
C20   H23   S    
C6    C8    A    
C14   C47   S    
C25   C27   S    
C22   H45   S    
C30   C55   A    
C26   C28   S    
C54   H48   S    
C22   C27   S    
C51   H44   S    
C29   C31   A    
C3    N1    A    
C30   C32   A    
C11   C13   A    
C50   H36   S    
C56   C58   A    
Cu2   O4    S    
C35   H2    S    
C15   C49   S    
Cu2   N2    S    
C18   O5    A    
C41   H13   S    
Cu1   Cu2   S    
Cu1   N1    S    
C49   C50   S    
C20   C25   S    
C55   C58   A    
C40   H17   S    
C48   H30   S    
C44   H28   S    
C51   H43   S    
C37   C57   A    
C18   O8    A    
C46   H26   S    
C30   H53   S    
