data_mof_unit_43334.cif
_audit_creation_date              2013-03-05T15:52:02-0500
_audit_creation_method            fapswitch 2.2
_symmetry_space_group_name_H-M    P1
_symmetry_Int_Tables_number       1
_space_group_crystal_system       triclinic
_cell_length_a                    12.021387
_cell_length_b                    12.817324
_cell_length_c                    27.61787
_cell_angle_alpha                 90.514503
_cell_angle_beta                  85.21931
_cell_angle_gamma                 94.251434
_cell_volume                      4228.92683491

loop_
_atom_site_label
_atom_site_type_symbol
_atom_site_description
_atom_site_fract_x
_atom_site_fract_y
_atom_site_fract_z
_atom_type_partial_charge
O1    O     O_R   0.421700 0.658820 0.502400 -0.582728
O2    O     O_R   0.578300 0.341180 0.497600 -0.588705
O3    O     O_R   0.609310 0.646410 0.496630 -0.641914
O4    O     O_R   0.390690 0.353590 0.503370 -0.634320
C1    C     C_R   0.522755 0.700269 0.500597 0.917411
C2    C     C_R   0.477146 0.299756 0.499292 0.917078
O5    O     O_R   0.406200 0.506190 0.574130 -0.649253
O6    O     O_R   0.593800 0.493810 0.425870 -0.642961
O7    O     O_R   0.593820 0.493770 0.568360 -0.531440
O8    O     O_R   0.406180 0.506230 0.431640 -0.544989
C3    C     C_R   0.500206 0.504466 0.593965 0.896619
C4    C     C_R   0.500509 0.498685 0.405927 0.888098
Zn1   Zn    Zn3+2 0.374730 0.508290 0.503850 0.979113
Zn2   Zn    Zn3+2 0.625270 0.491710 0.496150 0.984231
C5    C     C_R   0.459350 0.640154 0.824641 0.505909
C6    C     C_R   0.588483 0.460353 0.171634 0.520856
O9    O     O_2   0.407724 0.714494 0.802720 -0.538438
O10   O     O_2   0.640115 0.384803 0.192729 -0.528201
N1    N     N_R   0.502259 0.561108 0.797420 -0.341163
N2    N     N_R   0.525334 0.524774 0.200152 -0.343661
C7    C     C_R   0.551555 0.481354 0.817498 0.592457
C8    C     C_R   0.470584 0.602244 0.181148 0.593541
C9    C     C_R   0.401114 0.527227 0.725661 -0.165984
C10   C     C_R   0.612678 0.533952 0.276443 -0.169278
C11   C     C_R   0.401951 0.509168 0.676052 -0.312363
C12   C     C_R   0.606176 0.527060 0.326521 -0.301310
C13   C     C_R   0.600735 0.565884 0.666210 0.440135
C14   C     C_R   0.407429 0.471372 0.327906 0.411144
C15   C     C_R   0.599276 0.585599 0.716140 0.415515
C16   C     C_R   0.414573 0.477587 0.277087 0.428876
C17   C     C_R   0.499599 0.562559 0.745931 0.120428
C18   C     C_R   0.517425 0.511238 0.251648 0.117043
C19   C     C_R   0.521843 0.562811 0.896587 -0.187094
C20   C     C_R   0.536692 0.547656 0.100168 -0.193354
C21   C     C_R   0.470589 0.644456 0.874887 -0.120129
C22   C     C_R   0.597798 0.471385 0.120876 -0.100591
C23   C     C_R   0.435344 0.729098 0.903733 0.515180
C24   C     C_R   0.665660 0.408146 0.090594 0.542339
C25   C     C_R   0.563331 0.480370 0.867568 -0.121594
C26   C     C_R   0.472658 0.614209 0.130561 -0.139988
C27   C     C_R   0.501863 0.524863 0.646163 -0.229940
C28   C     C_R   0.503813 0.498201 0.352840 -0.244551
C29   C     C_R   0.478226 0.633014 0.028196 0.028991
C30   C     C_R   0.586682 0.483995 0.968579 0.029623
C31   C     C_R   0.598525 0.486419 0.019032 0.024641
C32   C     C_R   0.482012 0.641431 0.976877 0.020739
C33   C     C_R   0.538067 0.556023 0.049053 0.077420
C34   C     C_R   0.530788 0.563124 0.947404 0.072869
C35   C     C_R   0.413289 0.696796 0.059327 -0.325861
C36   C     C_R   0.624423 0.401374 0.939117 -0.328959
C37   C     C_R   0.411460 0.689450 0.109740 0.504859
C38   C     C_R   0.615515 0.399856 0.889251 0.499580
O11   O     O_2   0.414491 0.666960 0.211476 -0.510738
O12   O     O_2   0.588855 0.403597 0.788627 -0.517781
C39   C     C_R   0.438775 0.725731 0.953985 -0.323521
C40   C     C_R   0.669393 0.420802 0.040269 -0.348314
H1    H     H_    0.681114 0.547740 0.344732 0.186318
H2    H     H_    0.325013 0.479620 0.661289 0.185019
H3    H     H_    0.691582 0.559439 0.256760 0.180187
H4    H     H_    0.324927 0.509386 0.748779 0.174584
H5    H     H_    0.358274 0.750162 0.045623 0.159043
H6    H     H_    0.657150 0.333678 0.954204 0.154636
H7    H     H_    0.410298 0.792671 0.974031 0.156258
H8    H     H_    0.731071 0.381260 0.017980 0.146796
C41   C     C_R   0.461186 0.188214 0.498593 -0.258837
C42   C     C_R   0.538110 0.811849 0.500985 -0.259462
C43   C     C_R   0.632229 0.966520 0.463731 0.602113
C44   C     C_R   0.365949 0.033333 0.535199 0.603446
C45   C     C_R   0.628654 0.860234 0.473231 -0.407917
C46   C     C_R   0.370413 0.139891 0.526235 -0.404666
C47   C     C_R   0.455532 0.869001 0.525116 0.503259
C48   C     C_R   0.542702 0.130882 0.473868 0.507332
C49   C     C_R   0.454273 0.975265 0.514937 -0.210920
C50   C     C_R   0.543820 0.024545 0.483917 -0.202454
H9    H     H_    0.304853 0.185898 0.542353 0.190875
H10   H     H_    0.694612 0.814421 0.457319 0.191529
N3    N     N_R   0.207800 0.519340 0.508990 -0.139801
N4    N     N_R   0.792200 0.480660 0.491010 -0.132627
C51   C     C_R   0.958712 0.533029 0.439646 -0.296266
C52   C     C_R   0.041393 0.471344 0.561021 -0.310482
C53   C     C_R   0.842576 0.516011 0.447500 -0.082372
C54   C     C_R   0.157443 0.488399 0.553147 -0.072146
C55   C     C_R   0.855397 0.457518 0.527993 0.614619
C56   C     C_R   0.144373 0.539307 0.471703 0.578692
C57   C     C_R   0.973998 0.481118 0.522557 -0.077811
C58   C     C_R   0.026050 0.517887 0.477474 -0.054531
H11   H     H_    0.207244 0.472708 0.582563 0.164287
H12   H     H_    0.792589 0.535600 0.418741 0.164107
H13   H     H_    0.994785 0.561397 0.404544 0.198739
H14   H     H_    0.005717 0.447848 0.596882 0.185924
O13   O     O_3   0.701484 0.580156 0.638135 -0.522986
C59   C     C_3   0.713857 0.683432 0.620204 -0.233988
H15   H     H_    0.699902 0.742732 0.649317 0.117215
H16   H     H_    0.656850 0.693288 0.591284 0.143152
H17   H     H_    0.800745 0.698803 0.603652 0.193556
O14   O     O_3   0.304235 0.445717 0.352536 -0.525936
C60   C     C_3   0.295381 0.338000 0.363577 -0.221162
H18   H     H_    0.344508 0.322241 0.394629 0.144472
H19   H     H_    0.321651 0.288669 0.331870 0.098709
H20   H     H_    0.206450 0.314034 0.374731 0.194812
O15   O     O_3   0.725027 0.015148 0.437535 -0.547831
C61   C     C_3   0.735996 0.973735 0.389929 -0.275416
H21   H     H_    0.654101 0.961123 0.373760 0.137067
H22   H     H_    0.778886 0.899874 0.389303 0.150120
H23   H     H_    0.789173 0.030660 0.366491 0.195073
O16   O     O_3   0.272557 0.984507 0.560945 -0.548832
C62   C     C_3   0.259513 0.026049 0.608477 -0.282346
H24   H     H_    0.215275 0.099111 0.608740 0.150341
H25   H     H_    0.340698 0.040020 0.625113 0.137828
H26   H     H_    0.206631 0.968555 0.631727 0.194958
O17   O     O_3   0.196461 0.576030 0.428106 -0.595443
C63   C     C_3   0.212193 0.686221 0.431036 0.086055
H27   H     H_    0.246350 0.712785 0.465777 0.178330
H28   H     H_    0.130836 0.721078 0.428263 0.122518
C64   C     C_3   0.294636 0.726391 0.389004 -0.254785
H29   H     H_    0.375260 0.690091 0.390709 0.229547
H30   H     H_    0.260380 0.703995 0.353902 0.244821
C65   C     C_3   0.316845 0.845093 0.391129 -0.991296
H31   H     H_    0.237785 0.883828 0.388913 0.271674
H32   H     H_    0.376622 0.871643 0.360096 0.265042
H33   H     H_    0.353948 0.868745 0.425437 0.272420
O18   O     O_3   0.801540 0.422175 0.571712 -0.584831
C66   C     C_3   0.824315 0.317232 0.580565 0.030575
H34   H     H_    0.829828 0.309385 0.620312 0.184041
H35   H     H_    0.905289 0.293902 0.562545 0.115607
C67   C     C_3   0.729615 0.241176 0.565144 -0.291748
H36   H     H_    0.647736 0.267144 0.580483 0.237713
H37   H     H_    0.732212 0.240443 0.524906 0.264284
C68   C     C_3   0.741556 0.130066 0.582385 -0.958018
H38   H     H_    0.821801 0.101443 0.566639 0.278579
H39   H     H_    0.671548 0.077207 0.570485 0.264149
H40   H     H_    0.738807 0.127743 0.622664 0.259974
O19   O     O_3   0.699159 0.617483 0.735511 -0.608785
C69   C     C_3   0.693578 0.718819 0.756037 0.068968
H41   H     H_    0.668275 0.711741 0.795496 0.146349
H42   H     H_    0.633764 0.766891 0.738843 0.126442
C70   C     C_3   0.809686 0.776636 0.750226 -0.302056
H43   H     H_    0.869665 0.731847 0.768642 0.234859
H44   H     H_    0.838797 0.782698 0.711029 0.225364
C71   C     C_3   0.808266 0.886433 0.772123 -0.992067
H45   H     H_    0.750866 0.933499 0.753399 0.263241
H46   H     H_    0.893762 0.926137 0.767706 0.273012
H47   H     H_    0.780490 0.882292 0.811493 0.261442
O20   O     O_3   0.318088 0.461197 0.253094 -0.586066
C72   C     C_3   0.318089 0.365145 0.227360 0.054806
H48   H     H_    0.269855 0.303619 0.250138 0.150611
H49   H     H_    0.403267 0.338102 0.217688 0.135781
C73   C     C_3   0.260333 0.376794 0.180626 -0.274849
H50   H     H_    0.171955 0.394517 0.189923 0.241342
H51   H     H_    0.303084 0.442840 0.158951 0.228673
C74   C     C_3   0.262797 0.277666 0.149744 -0.987316
H52   H     H_    0.350685 0.260664 0.138844 0.263429
H53   H     H_    0.219543 0.288715 0.116379 0.275548
H54   H     H_    0.219313 0.210367 0.170343 0.272915
O21   O     O_3   0.394391 0.815216 0.883452 -0.593128
C75   C     C_3   0.483648 0.892716 0.874924 0.103548
H55   H     H_    0.554350 0.861444 0.851803 0.131536
H56   H     H_    0.514303 0.921464 0.909991 0.117477
C76   C     C_3   0.442281 0.984640 0.848435 -0.313482
H57   H     H_    0.410621 0.956770 0.813541 0.247652
H58   H     H_    0.372343 0.017400 0.871127 0.226121
C77   C     C_3   0.535753 0.070615 0.837962 -0.918240
H59   H     H_    0.567990 0.100263 0.872430 0.281181
H60   H     H_    0.503021 0.136585 0.819084 0.298276
H61   H     H_    0.605406 0.040177 0.814268 0.250770
O22   O     O_3   0.734433 0.340755 0.111021 -0.595784
C78   C     C_3   0.723330 0.237680 0.091859 0.127504
H62   H     H_    0.780331 0.190455 0.110729 0.175469
H63   H     H_    0.753095 0.234565 0.052782 0.108030
C79   C     C_3   0.603925 0.185642 0.100937 -0.376042
H64   H     H_    0.577137 0.187489 0.140413 0.249782
H65   H     H_    0.544542 0.228516 0.081281 0.209743
C80   C     C_3   0.598612 0.072502 0.083092 -0.982846
H66   H     H_    0.629949 0.068727 0.044167 0.266261
H67   H     H_    0.510690 0.039055 0.086731 0.263274
H68   H     H_    0.649505 0.024840 0.104901 0.266888
O23   O     O_3   0.340118 0.748787 0.138500 -0.595686
C81   C     C_3   0.385613 0.853555 0.139212 0.107601
H69   H     H_    0.373424 0.892411 0.104381 0.119249
H70   H     H_    0.476692 0.858341 0.145061 0.137501
C82   C     C_3   0.324580 0.911364 0.180899 -0.262536
H71   H     H_    0.233898 0.909059 0.175344 0.222530
H72   H     H_    0.334200 0.871746 0.215788 0.255427
C83   C     C_3   0.370734 0.025112 0.184079 -1.024079
H73   H     H_    0.461116 0.029385 0.190216 0.279238
H74   H     H_    0.325167 0.064556 0.214835 0.267275
H75   H     H_    0.359354 0.066786 0.150003 0.275715
O24   O     O_3   0.649851 0.314210 0.862716 -0.615240
C84   C     C_3   0.767526 0.324633 0.853640 0.119242
H76   H     H_    0.808788 0.322607 0.888246 0.112486
H77   H     H_    0.794768 0.399422 0.834299 0.161748
C85   C     C_3   0.804519 0.233538 0.821622 -0.299925
H78   H     H_    0.780717 0.158656 0.841097 0.215094
H79   H     H_    0.761288 0.232441 0.787546 0.254248
C86   C     C_3   0.930790 0.242476 0.808819 -0.972908
H80   H     H_    0.956357 0.315715 0.788315 0.272503
H81   H     H_    0.954694 0.174876 0.785824 0.266478
H82   H     H_    0.975764 0.242238 0.842357 0.266095
O25   O     O_3   0.625710 0.180741 0.442548 -0.548741
C87   C     C_3   0.581991 0.196363 0.397536 -0.233859
H83   H     H_    0.651946 0.223320 0.370790 0.194892
H84   H     H_    0.522010 0.258269 0.400451 0.117338
H85   H     H_    0.541585 0.122778 0.383134 0.130237
O26   O     O_3   0.371751 0.819050 0.556039 -0.542829
C88   C     C_3   0.413586 0.804646 0.601567 -0.235201
H86   H     H_    0.472284 0.741723 0.599632 0.116254
H87   H     H_    0.342459 0.779614 0.628103 0.195842
H88   H     H_    0.454743 0.878219 0.615645 0.127319

loop_
_geom_bond_atom_site_label_1
_geom_bond_atom_site_label_2
_geom_bond_distance
_ccdc_geom_bond_type
C15   O19   1.387585 S    
C67   H36   1.111585 S    
C13   C15   1.398596 A    
C49   C50   1.430700 A    
C23   O21   1.382798 S    
O17   C63   1.413489 S    
C71   H47   1.111072 S    
N1    C17   1.425359 S    
C72   C73   1.529197 S    
C69   C70   1.527927 S    
C63   H28   1.113501 S    
C60   H18   1.109162 S    
C66   H34   1.111127 S    
C78   H63   1.109658 S    
C57   C58   1.414515 A    
O5    C3    1.297984 A    
C70   H44   1.111181 S    
C43   O15   1.388099 S    
C29   C32   1.419095 A    
C19   C25   1.415605 A    
C45   H10   1.083026 S    
O1    C1    1.286551 A    
C75   H55   1.116344 S    
N1    C7    1.363232 A    
C71   H46   1.110348 S    
C77   H59   1.110825 S    
C87   H85   1.114111 S    
C7    O12   1.350004 S    
C19   C21   1.415025 A    
C66   H35   1.115523 S    
C42   C45   1.387914 A    
O16   C62   1.413126 S    
C41   C46   1.388019 A    
Zn2   N4    2.015311 S    
C16   O20   1.384925 S    
C83   H73   1.110834 S    
C61   H23   1.109230 S    
C24   O22   1.392924 S    
C74   H54   1.110549 S    
C14   C28   1.415853 A    
O4    Zn1   2.006028 S    
C84   H77   1.115771 S    
C65   H31   1.110718 S    
C4    C28   1.463325 S    
C60   H19   1.113507 S    
N4    C55   1.369889 A    
C2    C41   1.428497 S    
C42   C47   1.398212 A    
C31   C40   1.405519 A    
C87   H83   1.109135 S    
C64   H30   1.111659 S    
C39   H7    1.078555 S    
C32   C39   1.409844 A    
C36   C38   1.390059 A    
C62   H24   1.110361 S    
C73   C74   1.524636 S    
C13   O13   1.383725 S    
C78   C79   1.539222 S    
C6    N2    1.363816 A    
C68   H40   1.110775 S    
C9    C11   1.386808 A    
C25   C38   1.409552 A    
C74   H52   1.110999 S    
O25   C87   1.410922 S    
C80   H66   1.110932 S    
C62   H25   1.114884 S    
O2    C2    1.287637 A    
C44   O16   1.388678 S    
C5    C21   1.405619 A    
C63   H27   1.115442 S    
C72   H49   1.115963 S    
C72   H48   1.110923 S    
C8    O11   1.349317 S    
C77   H60   1.110427 S    
C80   H67   1.107657 S    
C9    H4    1.082984 S    
C70   C71   1.527423 S    
Zn1   N3    2.015311 S    
C47   O26   1.387244 S    
O21   C75   1.413347 S    
C56   O17   1.379929 S    
C35   H5    1.077942 S    
C53   H12   1.077259 S    
O15   C61   1.413049 S    
C81   H69   1.112556 S    
C63   C64   1.529112 S    
C71   H45   1.110970 S    
C48   C50   1.394632 A    
C40   H8    1.076835 S    
C82   H72   1.111634 S    
C11   C27   1.402261 A    
O13   C59   1.410639 S    
C51   C53   1.396061 A    
C29   C35   1.409612 A    
C66   C67   1.528573 S    
C69   H42   1.118035 S    
O6    Zn2   2.009009 S    
C67   C68   1.526224 S    
C35   C37   1.394573 A    
C44   C49   1.416031 A    
C82   H71   1.111667 S    
C59   H17   1.109206 S    
O24   C84   1.412551 S    
C43   C45   1.386512 A    
C65   H33   1.110801 S    
C9    C17   1.395202 A    
C84   C85   1.528345 S    
C5    N1    1.362682 A    
O7    Zn2   1.998915 S    
C85   C86   1.525722 S    
C52   C57   1.400532 A    
C77   H61   1.110871 S    
C13   C27   1.416860 A    
C76   H57   1.111736 S    
C7    C25   1.402005 A    
O6    C4    1.295753 A    
C64   C65   1.526538 S    
C8    C26   1.404810 A    
O14   C60   1.410978 S    
C59   H16   1.108792 S    
C76   C77   1.525965 S    
C24   C40   1.397384 A    
C43   C50   1.415791 A    
C73   H50   1.111554 S    
C61   H22   1.110398 S    
O7    C3    1.293748 A    
O3    Zn2   2.006029 S    
O8    C4    1.296278 A    
C73   H51   1.110116 S    
C44   C46   1.386558 A    
C55   C57   1.431084 A    
N2    C8    1.363254 A    
O19   C69   1.416414 S    
C36   H6    1.079677 S    
C62   H26   1.109269 S    
C20   C26   1.414778 A    
O4    C2    1.286238 A    
O1    Zn1   1.969536 S    
C11   H2    1.083165 S    
C41   C48   1.397412 A    
C78   H62   1.110950 S    
C60   H20   1.109175 S    
C30   C31   1.412257 A    
C12   C28   1.402738 A    
C47   C49   1.394629 A    
C68   H38   1.110833 S    
N2    C18   1.428739 S    
C88   H88   1.114236 S    
C30   C36   1.408402 A    
C84   H76   1.114246 S    
C5    O9    1.349167 S    
C88   H86   1.108391 S    
C67   H37   1.109078 S    
C82   C83   1.525462 S    
C21   C23   1.409803 A    
C75   C76   1.527648 S    
C10   C12   1.381988 A    
C1    C42   1.428440 S    
O3    C1    1.287387 A    
O8    Zn1   1.998920 S    
C6    O10   1.349769 S    
C81   H70   1.117133 S    
C69   H41   1.109419 S    
C26   C37   1.409831 A    
C70   H43   1.111698 S    
N3    C56   1.368164 A    
C83   H75   1.109522 S    
C14   O14   1.382987 S    
O20   C72   1.416017 S    
C85   H78   1.111430 S    
C86   H82   1.110864 S    
C75   H56   1.114663 S    
C76   H58   1.111635 S    
C14   C16   1.401613 A    
C15   C17   1.409789 A    
C6    C22   1.404549 A    
C48   O25   1.387018 S    
C16   C18   1.410657 A    
N4    C53   1.365209 A    
C10   C18   1.393746 A    
O22   C78   1.419986 S    
C79   H65   1.111027 S    
N3    C54   1.364196 A    
C10   H3    1.083157 S    
C22   C24   1.412117 A    
C59   H15   1.112552 S    
C80   H68   1.110749 S    
C52   C54   1.395133 A    
C83   H74   1.110396 S    
C3    C27   1.464329 S    
C20   C22   1.417349 A    
C74   H53   1.110253 S    
C55   O18   1.385008 S    
C52   H14   1.082081 S    
C61   H21   1.114965 S    
O2    Zn2   1.969536 S    
C12   H1    1.082815 S    
C65   H32   1.110426 S    
C51   H13   1.083025 S    
C81   C82   1.528837 S    
C86   H80   1.110909 S    
C23   C39   1.393030 A    
C32   C34   1.416607 A    
C30   C34   1.413969 A    
C68   H39   1.110346 S    
O5    Zn1   2.009004 S    
C31   C33   1.412079 A    
O26   C88   1.411173 S    
C87   H84   1.109048 S    
O23   C81   1.412510 S    
C79   H64   1.111345 S    
C46   H9    1.082941 S    
C19   C34   1.416426 A    
C56   C58   1.424470 A    
C20   C33   1.415362 A    
C38   O24   1.383760 S    
C64   H29   1.110373 S    
O18   C66   1.419748 S    
C37   O23   1.384602 S    
C88   H87   1.109157 S    
C29   C33   1.416906 A    
C51   C58   1.397254 A    
C54   H11   1.077372 S    
C85   H79   1.111837 S    
C86   H81   1.110522 S    
C79   C80   1.525975 S    
