data_mof_unit_26183.cif
_audit_creation_date              2013-03-05T16:09:57-0500
_audit_creation_method            fapswitch 2.2
_symmetry_space_group_name_H-M    P1
_symmetry_Int_Tables_number       1
_space_group_crystal_system       triclinic
_cell_length_a                    10.668228
_cell_length_b                    9.868825
_cell_length_c                    10.648717
_cell_angle_alpha                 89.692496
_cell_angle_beta                  89.900665
_cell_angle_gamma                 90.05256
_cell_volume                      1121.10923003

loop_
_atom_site_label
_atom_site_type_symbol
_atom_site_description
_atom_site_fract_x
_atom_site_fract_y
_atom_site_fract_z
_atom_type_partial_charge
O1    O     O_R   0.316770 0.614620 0.499990 -0.574465
O2    O     O_R   0.683230 0.614620 0.500010 -0.562990
O3    O     O_R   0.316800 0.385290 0.500000 -0.612628
O4    O     O_R   0.683200 0.385290 0.500000 -0.612664
C1    C     C_R   0.260331 0.500022 0.505249 0.983440
C2    C     C_R   0.739776 0.499539 0.502784 0.938840
O5    O     O_R   0.500010 0.614690 0.316770 -0.581782
O6    O     O_R   0.499990 0.614690 0.683230 -0.592200
O7    O     O_R   0.500040 0.385360 0.316770 -0.638403
O8    O     O_R   0.499960 0.385360 0.683230 -0.605129
C3    C     C_R   0.489712 0.500788 0.259530 0.904864
C4    C     C_R   0.515572 0.500114 0.739155 0.954607
Zn1   Zn    Zn3+2 0.500000 0.653120 0.500000 1.122180
Zn2   Zn    Zn3+2 0.500000 0.346880 0.500000 1.031705
H1    H     H_    0.493390 0.282876 0.112245 0.174724
H2    H     H_    0.520933 0.281641 0.888639 0.181038
C5    C     C_R   0.434640 0.751755 0.100933 0.390760
C6    C     C_R   0.592615 0.747677 0.889569 0.351780
C7    C     C_R   0.474744 0.873201 0.044979 -0.205305
C8    C     C_R   0.558006 0.871070 0.944325 -0.203965
H3    H     H_    0.441237 0.969850 0.078964 0.190796
H4    H     H_    0.593546 0.966153 0.907568 0.201107
C9    C     C_R   0.541002 0.625016 0.938539 -0.052679
C10   C     C_R   0.483870 0.626825 0.056553 -0.034915
C11   C     C_R   0.481308 0.502750 0.124523 -0.046225
C12   C     C_R   0.535773 0.500942 0.872631 -0.035282
C13   C     C_R   0.497986 0.379190 0.063077 -0.169756
C14   C     C_R   0.519598 0.378273 0.936513 -0.098139
C15   C     C_R   0.064593 0.408293 0.592934 0.234340
C16   C     C_R   0.934290 0.406065 0.589081 0.254039
C17   C     C_R   0.872190 0.498051 0.509279 -0.192683
C18   C     C_R   0.127931 0.501121 0.514468 -0.202409
C19   C     C_R   0.936635 0.591663 0.435775 -0.113734
C20   C     C_R   0.064413 0.594633 0.439801 -0.091146
H5    H     H_    0.888169 0.660215 0.373013 0.237657
H6    H     H_    0.113681 0.667867 0.382118 0.248266
C21   C     C_R   0.595515 0.073438 0.446023 -0.077616
C22   C     C_R   0.404383 0.072245 0.554052 -0.105513
H7    H     H_    0.671286 0.129322 0.402146 0.190212
H8    H     H_    0.328669 0.127133 0.598060 0.216605
C23   C     C_R   0.596059 0.930107 0.444945 0.362709
C24   C     C_R   0.403983 0.928768 0.555162 0.324452
N1    N     N_R   0.500000 0.857200 0.500000 -0.181058
N2    N     N_R   0.500000 0.142810 0.500000 -0.137234
N3    N     N_R   0.332385 0.755052 0.188990 0.218530
O9    O     O_R   0.310588 0.863155 0.254979 -0.388806
O10   O     O_R   0.251163 0.656653 0.191219 -0.408552
N4    N     N_R   0.688222 0.747302 0.793893 0.221965
O11   O     O_R   0.709811 0.855536 0.726888 -0.335974
O12   O     O_R   0.764039 0.644735 0.783750 -0.357325
N5    N     N_R   0.131314 0.322366 0.679598 0.221367
O13   O     O_R   0.217845 0.372968 0.751486 -0.370381
O14   O     O_R   0.100374 0.195558 0.693075 -0.274054
N6    N     N_R   0.865413 0.317851 0.671459 0.234648
O15   O     O_R   0.831829 0.198137 0.633386 -0.293560
O16   O     O_R   0.850295 0.350275 0.788775 -0.310814
N7    N     N_R   0.699319 0.863857 0.386108 0.214607
O17   O     O_R   0.680691 0.794807 0.284298 -0.404989
O18   O     O_R   0.812650 0.903560 0.412129 -0.326114
N8    N     N_R   0.301739 0.860433 0.614752 0.234059
O19   O     O_R   0.319967 0.797241 0.720512 -0.349639
O20   O     O_R   0.187605 0.889373 0.581251 -0.291170

loop_
_geom_bond_atom_site_label_1
_geom_bond_atom_site_label_2
_geom_bond_distance
_ccdc_geom_bond_type
H2    C14   1.083859 S    
O5    C3    1.286280 A    
O7    Zn2   1.985775 S    
C17   C19   1.388533 A    
C22   N2    1.359833 A    
C15   C16   1.390939 A    
C11   C13   1.398312 A    
C16   N6    1.433786 S    
C12   C14   1.395870 A    
C7    C8    1.391135 A    
O6    C4    1.286197 A    
Zn1   N1    2.014030 S    
C9    C10   1.395952 A    
C1    C18   1.415774 S    
C21   N2    1.356788 A    
N4    O12   1.301091 A    
C19   C20   1.364210 A    
C23   N7    1.427194 S    
C21   H7    1.082129 S    
O4    Zn2   1.990498 S    
N3    O9    1.301516 A    
N8    O20   1.300938 A    
C22   H8    1.080595 S    
C23   N1    1.379713 A    
N7    O17   1.299097 A    
O2    C2    1.286691 A    
O3    Zn2   1.991182 S    
O8    C4    1.293124 A    
O1    C1    1.281659 A    
O4    C2    1.278910 A    
N4    O11   1.301495 A    
C7    H3    1.082771 S    
C4    C12   1.438024 S    
C8    H4    1.082752 S    
C2    C17   1.414525 S    
C15   C18   1.408075 A    
C20   H6    1.081350 S    
O7    C3    1.293952 A    
C21   C23   1.414630 A    
C16   C17   1.407084 A    
N6    O16   1.301052 A    
N7    O18   1.301363 A    
C5    C10   1.423318 A    
O1    Zn1   1.990981 S    
C24   N1    1.377255 A    
C3    C11   1.440623 S    
C15   N5    1.439585 S    
N5    O13   1.301263 A    
O6    Zn1   1.985683 S    
O3    C1    1.284480 A    
O5    Zn1   1.989680 S    
C10   C11   1.419268 A    
C6    C8    1.402459 A    
Zn2   N2    2.013932 S    
O8    Zn2   1.989775 S    
N3    O10   1.300965 A    
C24   N8    1.427897 S    
C13   C14   1.367009 A    
C9    C12   1.415707 A    
O2    Zn1   1.991664 S    
N6    O15   1.301305 A    
C5    C7    1.401800 A    
C19   H5    1.081062 S    
C18   C20   1.392178 A    
H1    C13   1.083738 S    
C22   C24   1.415941 A    
C6    C9    1.425300 A    
C5    N3    1.437783 S    
N8    O19   1.299423 A    
N5    O14   1.301082 A    
C6    N4    1.440408 S    
