data_mof_unit_19097.cif
_audit_creation_date              2012-12-11T14:52:26-0500
_audit_creation_method            fapswitch 2.2
_symmetry_space_group_name_H-M    P1
_symmetry_Int_Tables_number       1
_space_group_crystal_system       triclinic
_cell_length_a                    8.241437
_cell_length_b                    15.108722
_cell_length_c                    26.995025
_cell_angle_alpha                 97.442123
_cell_angle_beta                  92.279886
_cell_angle_gamma                 80.528858
_cell_volume                      3287.01974198

loop_
_atom_site_label
_atom_site_type_symbol
_atom_type_description
_atom_site_fract_x
_atom_site_fract_y
_atom_site_fract_z
_atom_type_partial_charge
Ba1   Ba    Ba6+2 0.860900 0.457020 0.523210 1.659143
Ba2   Ba    Ba6+2 0.328940 0.542910 0.476780 1.682422
C1    C     C_3   0.716125 0.138445 0.656150 -0.275344
C2    C     C_R   0.874987 0.573323 0.176737 0.587386
C3    C     C_2   0.743210 0.522862 0.270544 -0.043533
C4    C     C_3   0.209361 0.253815 0.655835 0.289523
C5    C     C_3   0.700830 0.519744 0.324570 -0.072399
C6    C     C_1   0.991122 0.486878 0.343412 0.060140
C7    C     C_2   0.033320 0.485258 0.296107 -0.108106
C8    C     C_2   0.903201 0.505244 0.256203 0.181654
C9    C     C_R   0.035202 0.503881 0.103133 -0.122617
C10   C     C_R   0.119565 0.437892 0.131935 -0.125949
C11   C     C_R   0.255362 0.376561 0.109984 0.452697
C12   C     C_3   0.704545 0.228565 0.635910 0.288841
C13   C     C_R   0.912713 0.571643 0.125943 -0.004255
C14   C     C_2   0.847043 0.530164 0.358798 -0.279073
C15   C     C_2   0.362646 0.486925 0.640436 -0.265215
C16   C     C_3   0.197075 0.230261 0.708443 -0.330056
C17   C     C_R   0.227208 0.430009 0.976383 0.039365
C18   C     C_R   0.031072 0.570905 0.972419 0.019871
C19   C     C_R   0.147638 0.499466 0.948832 0.055214
C20   C     C_R   0.334707 0.357636 0.950303 -0.093842
C21   C     C_R   0.369319 0.356149 0.899989 -0.056721
C22   C     C_R   0.297476 0.426212 0.872907 -0.034364
C23   C     C_3   0.475458 0.685202 0.628727 0.307394
C24   C     C_R   0.185455 0.497645 0.897194 -0.081335
C25   C     C_R   0.111731 0.567520 0.869895 -0.026615
C26   C     C_R   0.152676 0.566046 0.819262 0.589042
C27   C     C_R   0.334399 0.425636 0.821908 0.580643
C28   C     C_3   0.141039 0.248104 0.397462 0.307508
C29   C     C_2   0.464163 0.485912 0.729349 -0.067893
C30   C     C_3   0.508677 0.491968 0.675851 -0.048127
C31   C     C_1   0.213190 0.519036 0.656467 -0.013245
C32   C     C_2   0.173530 0.511465 0.703058 -0.147181
C33   C     C_2   0.304722 0.495892 0.742997 0.215162
C34   C     C_3   0.448274 0.720858 0.683680 -0.366295
C35   C     C_R   0.195716 0.434425 0.028595 -0.043388
C36   C     C_R   0.073675 0.503001 0.051590 0.055223
C37   C     C_R   0.989840 0.570967 0.023512 0.036447
C38   C     C_R   0.287710 0.374446 0.059185 -0.137947
C39   C     C_R   0.830286 0.637456 0.097680 -0.048532
C40   C     C_3   0.024486 0.187216 0.370765 -0.286147
C41   C     C_R   0.960102 0.640260 0.943797 -0.099982
C42   C     C_R   0.999790 0.638513 0.893935 -0.060647
C43   C     C_R   0.866999 0.637029 0.047788 -0.098244
C44   C     C_R   0.756112 0.766455 0.480279 -0.199020
C45   C     C_3   0.011676 0.738389 0.341011 0.284733
C46   C     C_R   0.843265 0.826369 0.462040 0.038119
C47   C     C_R   0.782515 0.919562 0.468204 -0.096087
C48   C     C_R   0.634481 0.954341 0.494451 0.037832
C49   C     C_R   0.553884 0.891089 0.514245 -0.036963
C50   C     C_R   0.614072 0.798811 0.507018 0.068036
C51   C     C_R   0.415482 0.087217 0.527485 -0.126831
C52   C     C_3   0.929223 0.740791 0.651306 0.671277
C53   C     C_R   0.353517 0.179451 0.535326 0.004920
C54   C     C_R   0.585919 0.212483 0.494146 0.080555
C55   C     C_R   0.650432 0.119970 0.486295 -0.111027
C56   C     C_3   0.039811 0.756790 0.288258 -0.329363
C57   C     C_R   0.567694 0.054696 0.503331 0.002629
C58   C     C_R   0.440829 0.241891 0.519983 -0.275118
C59   C     C_3   0.005661 0.746528 0.704662 -0.246792
C60   C     C_3   0.653506 0.340868 0.370490 0.259815
C61   C     C_3   0.589507 0.315585 0.317627 -0.294548
C62   C     C_3   0.876148 0.777461 0.745328 -0.362364
C63   C     C_3   0.303429 0.188585 0.406458 -0.355741
C64   C     C_3   0.512019 0.771990 0.366391 0.364564
C65   C     C_3   0.508015 0.863105 0.347767 -0.359475
C66   C     C_R   0.064165 0.436011 0.181301 0.663213
H1    H     H_    0.823101 0.230260 0.618152 0.113858
H2    H     H_    0.818254 0.131222 0.684595 0.153856
H3    H     H_    0.682598 0.264858 0.296369 0.123168
H4    H     H_    0.560754 0.375837 0.297520 0.104135
H5    H     H_    0.474845 0.286413 0.319126 0.163749
H6    H     H_    0.603789 0.233242 0.607434 -0.019447
H7    H     H_    0.741557 0.082334 0.624851 0.149394
H8    H     H_    0.357650 0.667666 0.612125 0.043186
H9    H     H_    0.572035 0.624025 0.625402 0.005095
H10   H     H_    0.369805 0.788742 0.687009 0.159956
H11   H     H_    0.386465 0.674518 0.702247 0.049897
H12   H     H_    0.089841 0.133170 0.343328 0.102293
H13   H     H_    0.568056 0.727439 0.702982 0.104054
H14   H     H_    0.597815 0.134149 0.673840 0.123120
H15   H     H_    0.253920 0.278513 0.735386 0.130592
H16   H     H_    0.076549 0.669283 0.345288 0.081047
H17   H     H_    0.877455 0.741881 0.345905 -0.022100
H18   H     H_    0.995390 0.704322 0.260922 0.117398
H19   H     H_    0.971987 0.824309 0.281747 0.124368
H20   H     H_    0.173367 0.754748 0.282617 0.150913
H21   H     H_    0.630076 0.755432 0.386947 -0.080284
H22   H     H_    0.407453 0.777763 0.392048 0.092837
H23   H     H_    0.965699 0.154568 0.398249 0.098689
H24   H     H_    0.519169 0.915673 0.380007 0.058547
H25   H     H_    0.389886 0.882101 0.327486 0.137671
H26   H     H_    0.146830 0.324668 0.654973 0.072389
H27   H     H_    0.611979 0.859797 0.322207 0.129089
H28   H     H_    0.161449 0.467919 0.285908 0.155096
H29   H     H_    0.562256 0.478958 0.757298 0.100045
H30   H     H_    0.453183 0.299078 0.882231 0.127414
H31   H     H_    0.391583 0.299354 0.967419 0.081740
H32   H     H_    0.391951 0.326971 0.044651 0.138007
H33   H     H_    0.643968 0.532459 0.243134 0.136893
H34   H     H_    0.930636 0.226389 0.348670 0.128600
H35   H     H_    0.734794 0.689968 0.114064 0.126034
H36   H     H_    0.874574 0.698303 0.958930 0.072834
H37   H     H_    0.341591 0.248409 0.647029 -0.014353
H38   H     H_    0.941630 0.693769 0.874137 0.115032
H39   H     H_    0.045357 0.521451 0.713248 0.129945
H40   H     H_    0.794376 0.689414 0.029176 0.071754
H41   H     H_    0.834348 0.571125 0.395014 0.063369
H42   H     H_    0.382548 0.462295 0.600910 0.076854
H43   H     H_    0.338199 0.043228 0.539129 0.087639
H44   H     H_    0.855327 0.962733 0.453468 0.060452
H45   H     H_    0.816876 0.708785 0.649630 -0.008570
H46   H     H_    0.761452 0.101007 0.465132 0.076298
H47   H     H_    0.447835 0.910967 0.537421 0.072539
H48   H     H_    0.389670 0.313071 0.524793 0.071823
H49   H     H_    0.065731 0.234787 0.718056 0.133684
H50   H     H_    0.804143 0.694850 0.476458 0.057754
H51   H     H_    0.262439 0.160521 0.711213 0.139245
H52   H     H_    0.092777 0.281804 0.433912 0.081410
H53   H     H_    0.021925 0.840248 0.568307 0.352584
H54   H     H_    0.785783 0.837148 0.735720 0.173765
H55   H     H_    0.810081 0.720317 0.750048 0.119408
H56   H     H_    0.097103 0.793448 0.708853 0.148016
H57   H     H_    0.937632 0.797542 0.781988 0.168809
H58   H     H_    0.619197 0.208963 0.122619 0.365381
H59   H     H_    0.354218 0.149552 0.371159 0.131326
H60   H     H_    0.390237 0.233565 0.420624 0.089597
H61   H     H_    0.289132 0.141073 0.433419 0.061265
H62   H     H_    0.073713 0.680019 0.711652 0.096390
H63   H     H_    0.774899 0.362515 0.369107 -0.046786
H64   H     H_    0.567320 0.398553 0.388345 0.095535
N1    N     N_R   0.947957 0.504969 0.203937 -0.432021
N2    N     N_R   0.262364 0.495330 0.795335 -0.422586
O1    O     O_2   0.905540 0.548000 0.618290 -0.497345
O2    O     O_2   0.182188 0.820763 0.467465 -0.486363
O3    O     O_3   0.074069 0.803250 0.375223 -0.608123
O4    O     O_3   0.137550 0.547930 0.558110 -0.442719
O5    O     O_3   0.574690 0.391440 0.474610 -0.493948
O6    O     O_2   0.341330 0.720570 0.525000 -0.452409
O7    O     O_3   0.526718 0.752846 0.605376 -0.581877
O8    O     O_2   0.355822 0.565920 0.326657 -0.495364
O9    O     O_3   0.498714 0.705779 0.325470 -0.585239
O10   O     O_2   0.113913 0.371003 0.203376 -0.498673
O11   O     O_2   0.430374 0.362635 0.801191 -0.594237
O12   O     O_3   0.669983 0.264126 0.395547 -0.647452
O13   O     O_2   0.777298 0.636300 0.196784 -0.598712
O14   O     O_2   0.092511 0.629060 0.796830 -0.630164
O15   O     O_3   0.688580 0.383890 0.587540 -0.488076
O16   O     O_2   0.850968 0.424341 0.671805 -0.497619
O17   O     O_3   0.044438 0.694118 0.615467 -0.647530
O18   O     O_3   0.670922 0.299348 0.675185 -0.589716
O19   O     O_2   0.848360 0.279400 0.474970 -0.472801
O20   O     O_3   0.104690 0.337720 0.562900 -0.488379
O21   O     O_2   0.015368 0.177749 0.530771 -0.483700
O22   O     O_2   0.694672 0.890134 0.645787 -0.286938
O23   O     O_3   0.132688 0.193765 0.622293 -0.590503
O24   O     O_2   0.977150 0.918814 0.661201 -0.318534
O25   O     O_3   0.900342 0.849450 0.572199 -0.535461
O26   O     O_2   0.445038 0.360411 0.193157 -0.277519
O27   O     O_2   0.326462 0.227041 0.155825 -0.249538
O28   O     O_3   0.574883 0.269423 0.112119 -0.526006
O29   O     O_2   0.284150 0.451970 0.381680 -0.469782
O30   O     O_3   0.052160 0.451990 0.441880 -0.494925
O31   O     O_3   0.501140 0.616030 0.412450 -0.493981
O32   O     O_3   0.171063 0.309576 0.365661 -0.615318
O33   O     O_3   0.615020 0.608480 0.525380 -0.484035
O34   O     O_3   0.085020 0.662210 0.437090 -0.482774
P1    P     P_3+3 0.070480 0.574800 0.610950 0.978358
P2    P     P_3+3 0.668430 0.292880 0.460530 0.970220
P3    P     P_3+3 0.150554 0.220704 0.561915 0.954709
P4    P     P_3+3 0.119230 0.425130 0.389040 0.995919
P5    P     P_3+3 0.046209 0.779490 0.435782 0.963934
P6    P     P_3+3 0.680989 0.402214 0.652752 0.973492
P7    P     P_3+3 0.526501 0.721623 0.540900 1.023929
P8    P     P_3+3 0.514815 0.600190 0.347245 0.962088
S1    S     S_3+6 0.872283 0.854121 0.634203 -0.079774
S2    S     S_3+6 0.400981 0.307036 0.144821 -0.039794

loop_
_geom_bond_atom_site_label_1
_geom_bond_atom_site_label_2
_ccdc_geom_bond_type
C19   C24   A    
O32   P4    S    
Ba2   O34   S    
C9    C36   A    
C8    N1    S    
C31   P1    S    
C15   H42   S    
C4    O23   S    
C51   C57   A    
C64   H22   S    
O31   P8    S    
C40   H12   S    
C10   C11   A    
C10   C66   A    
C24   C25   A    
C60   C61   S    
C59   H56   S    
C23   H9    S    
C48   C57   S    
C12   H6    S    
C66   N1    Am   
C17   C19   A    
O24   S1    D    
C22   C24   A    
C32   C33   S    
C35   C38   A    
C27   O11   D    
C36   C37   A    
C55   C57   A    
Ba1   O33   S    
C11   S2    S    
C52   H45   S    
C44   C50   A    
Ba1   P2    S    
O7    P7    S    
C54   C55   A    
C44   H50   S    
O5    P2    S    
O15   P6    S    
C41   H36   S    
C11   C38   A    
C17   C35   A    
C22   C27   A    
C9    C13   A    
C25   C42   A    
Ba1   O30   S    
C6    C7    D    
C4    H26   S    
O19   P2    D    
C21   C22   A    
Ba1   O15   S    
C1    H7    S    
C7    C8    S    
C34   H13   S    
Ba1   O5    S    
C43   H40   S    
C37   C43   A    
O18   P6    S    
C51   H43   S    
O1    P1    D    
C27   N2    Am   
C6    P4    S    
C6    C14   D    
C53   C58   A    
C56   H19   S    
O4    P1    S    
C65   H27   S    
C45   O3    S    
C15   C31   D    
O9    P8    S    
O25   S1    S    
C40   H34   S    
C33   N2    S    
C53   P3    S    
C14   H41   S    
C48   C49   A    
C64   H21   S    
C3    H33   S    
C51   C53   A    
O34   P5    S    
C4    C16   S    
C44   C46   A    
C26   O14   D    
C49   C50   A    
Ba2   O4    S    
C63   H60   S    
C60   H64   S    
C17   C20   A    
C13   C39   A    
Ba2   O30   S    
C3    C5    S    
C18   C37   A    
O8    P8    D    
C64   O9    S    
C61   H5    S    
C2    O13   D    
C30   P6    S    
C49   H47   S    
C39   H35   S    
C16   H51   S    
C59   C62   S    
C41   C42   A    
O3    P5    S    
C35   C36   A    
C56   H18   S    
O22   S1    D    
C29   C30   S    
C16   H49   S    
C50   P7    S    
O26   S2    D    
C5    P8    S    
C1    H2    S    
C1    H14   S    
C16   H15   S    
C45   H16   S    
C18   C19   A    
Ba1   O19   S    
O29   P4    D    
C7    H28   S    
C28   O32   S    
C52   O17   S    
C1    C12   S    
C59   H62   S    
C47   H44   S    
C32   H39   S    
C46   C47   A    
O16   P6    D    
C61   H3    S    
C47   C48   A    
O12   P2    S    
H53   O25   S    
C12   H1    S    
C26   N2    Am   
C58   H48   S    
Ba2   O5    S    
C45   H17   S    
C18   C41   A    
O33   P7    S    
C46   P5    S    
O2    P5    D    
C5    C14   S    
C20   H31   S    
C54   P2    S    
C20   C21   A    
C60   H63   S    
C63   H59   S    
C23   O7    S    
C34   H11   S    
C56   H20   S    
Ba2   O29   S    
C38   H32   S    
C66   O10   D    
C63   H61   S    
C9    C10   A    
C55   H46   S    
C52   C59   S    
C42   H38   S    
C62   H55   S    
O17   P1    S    
C52   S1    S    
C23   H8    S    
Ba2   O6    S    
C2    C13   A    
Ba1   O1    S    
C3    C8    D    
C34   H10   S    
O23   P3    S    
C45   C56   S    
C28   H52   S    
O6    P7    D    
C62   H54   S    
Ba1   Ba2   S    
Ba1   P1    S    
C65   H24   S    
C4    H37   S    
C31   C32   D    
O20   P3    S    
C64   C65   S    
C29   C33   D    
C29   H29   S    
Ba1   O20   S    
O28   S2    S    
C28   C63   S    
O30   P4    S    
C23   C34   S    
O21   P3    D    
C21   H30   S    
C54   C58   A    
C61   H4    S    
C62   H57   S    
C60   O12   S    
C12   O18   S    
C25   C26   A    
C65   H25   S    
C15   C30   S    
C39   C43   A    
Ba2   O31   S    
C28   C40   S    
O27   S2    D    
H58   O28   S    
Ba2   O33   S    
Ba1   O4    S    
C40   H23   S    
Ba2   P4    S    
C2    N1    Am   
