data_mof_unit_67594.cif
_audit_creation_date              2012-12-10T17:55:06-0500
_audit_creation_method            fapswitch 2.2
_symmetry_space_group_name_H-M    P1
_symmetry_Int_Tables_number       1
_space_group_crystal_system       triclinic
_cell_length_a                    8.993404
_cell_length_b                    10.936224
_cell_length_c                    9.640549
_cell_angle_alpha                 88.883022
_cell_angle_beta                  97.351208
_cell_angle_gamma                 92.087479
_cell_volume                      939.662464848

loop_
_atom_site_label
_atom_site_type_symbol
_atom_type_description
_atom_site_fract_x
_atom_site_fract_y
_atom_site_fract_z
_atom_type_partial_charge
C1    C     C_R   0.498613 0.261494 0.501119 0.812910
C2    C     C_R   0.497438 0.736981 0.499174 0.866650
C3    C     C_R   0.204156 0.503811 0.464142 0.767648
C4    C     C_R   0.794815 0.498491 0.534841 0.826617
C5    C     C_2   0.038571 0.518153 0.446167 0.181415
C6    C     C_2   0.957371 0.478659 0.550153 0.201700
C7    C     C_R   0.527795 0.060180 0.387050 -0.181577
C8    C     C_R   0.419676 0.930334 0.599690 -0.192588
C9    C     C_R   0.577501 0.940933 0.416380 0.419399
C10   C     C_R   0.452961 0.055547 0.618148 0.426370
C11   C     C_R   0.489021 0.869926 0.498411 -0.222338
C12   C     C_R   0.495381 0.125674 0.503382 -0.238604
C13   C     C_R   0.404577 0.424061 0.064583 -0.013645
C14   C     C_R   0.591149 0.579883 0.934444 0.011400
C15   C     C_R   0.407208 0.422297 0.916447 -0.015306
C16   C     C_R   0.588220 0.581411 0.082137 -0.004297
Cu1   Cu    Cu3+1 0.500000 0.500020 0.640660 0.996182
Cu2   Cu    Cu3+1 0.500000 0.499980 0.359340 0.975670
N1    N     N_R   0.500040 0.500030 0.852080 -0.208418
N2    N     N_R   0.499960 0.499970 0.147920 -0.201659
O1    O     O_R   0.499990 0.319660 0.618740 -0.566228
O2    O     O_R   0.500010 0.680340 0.381260 -0.583396
O3    O     O_R   0.499990 0.319630 0.381170 -0.577715
O4    O     O_R   0.500010 0.680370 0.618830 -0.579078
O5    O     O_R   0.274840 0.500010 0.591370 -0.538845
O6    O     O_R   0.725160 0.499990 0.408630 -0.556310
O7    O     O_R   0.274830 0.499980 0.353800 -0.606278
O8    O     O_R   0.725170 0.500020 0.646200 -0.591137
O9    O     O_3   0.964325 0.590008 0.338316 -0.611286
C17   C     C_3   0.023740 0.593314 0.209442 0.110786
H1    H     H_    0.928998 0.596908 0.124386 0.136972
H2    H     H_    0.076591 0.507983 0.185512 0.152720
C18   C     C_3   0.120385 0.710605 0.197809 -0.346827
H3    H     H_    0.051002 0.791199 0.207358 0.219052
H4    H     H_    0.214500 0.715106 0.283883 0.225988
C19   C     C_3   0.182094 0.719640 0.058212 -0.817111
H5    H     H_    0.250300 0.639628 0.044076 0.255026
H6    H     H_    0.254225 0.803999 0.055283 0.269101
H7    H     H_    0.088474 0.723656 0.971315 0.272844
O10   O     O_3   0.027840 0.426461 0.672923 -0.611594
C20   C     C_3   0.950312 0.319767 0.716828 0.077342
H8    H     H_    0.003126 0.238477 0.681517 0.174846
H9    H     H_    0.831727 0.306328 0.670826 0.084406
C21   C     C_3   0.958285 0.319017 0.876667 -0.305772
H10   H     H_    0.048697 0.383205 0.923106 0.223836
H11   H     H_    0.852591 0.354490 0.904813 0.187001
C22   C     C_3   0.986179 0.191376 0.941264 -0.866267
H12   H     H_    0.929031 0.118227 0.874664 0.230847
H13   H     H_    0.947670 0.186027 0.045990 0.260791
H14   H     H_    0.107065 0.172073 0.953966 0.287784
C23   C     C_1   0.416997 0.063566 0.265356 0.242099
N3    N     N_1   0.326384 0.060305 0.168715 -0.307122
C24   C     C_1   0.332135 0.865872 0.695092 0.347229
N4    N     N_1   0.261167 0.813937 0.770551 -0.287489
O11   O     O_3   0.728093 0.910461 0.428757 -0.586122
C25   C     C_3   0.819937 0.991159 0.357611 0.135783
H15   H     H_    0.759957 0.030180 0.260518 0.125184
H16   H     H_    0.910484 0.936781 0.324093 0.173591
C26   C     C_3   0.894972 0.090038 0.455210 -0.425120
H17   H     H_    0.809088 0.147637 0.491353 0.196081
H18   H     H_    0.958695 0.045743 0.548038 0.235402
C27   C     C_3   0.002143 0.171181 0.380688 -0.875199
H19   H     H_    0.085118 0.114474 0.337994 0.279044
H20   H     H_    0.064485 0.236991 0.454539 0.252038
H21   H     H_    0.938203 0.223599 0.294484 0.257615
O12   O     O_3   0.473691 0.099014 0.752568 -0.563299
C28   C     C_3   0.622962 0.075511 0.810106 0.082107
H22   H     H_    0.696417 0.152093 0.779566 0.144551
H23   H     H_    0.665982 0.988885 0.772965 0.123227
C29   C     C_3   0.635238 0.063606 0.969071 -0.355004
H24   H     H_    0.553683 0.991923 0.998542 0.230088
H25   H     H_    0.748818 0.033197 0.010577 0.168672
C30   C     C_3   0.606709 0.184606 0.034446 -0.726213
H26   H     H_    0.658340 0.262996 0.982302 0.232336
H27   H     H_    0.650959 0.186735 0.146784 0.220354
H28   H     H_    0.484786 0.195500 0.023478 0.265848
C31   C     C_1   0.296199 0.350224 0.128193 0.283286
N5    N     N_1   0.208236 0.293065 0.181281 -0.309834
C32   C     C_1   0.692023 0.663431 0.871195 0.279324
N6    N     N_1   0.773416 0.730711 0.821799 -0.293603
C33   C     C_1   0.324272 0.329924 0.834021 0.410135
N7    N     N_1   0.261717 0.253636 0.766624 -0.241121
C34   C     C_1   0.670918 0.676484 0.160473 0.323318
N8    N     N_1   0.738941 0.754603 0.220086 -0.256213

loop_
_geom_bond_atom_site_label_1
_geom_bond_atom_site_label_2
_ccdc_geom_bond_type
O11   C25   S    
C15   C33   S    
C1    O1    A    
C30   H27   S    
C30   H26   S    
Cu2   O6    S    
C33   N7    T    
C22   H13   S    
C31   N5    T    
C15   N1    A    
C27   H19   S    
C19   H5    S    
C5    C6    D    
C18   C19   S    
C25   H15   S    
C20   H8    S    
C27   H20   S    
C18   H4    S    
C34   N8    T    
C2    O2    A    
C29   H24   S    
C9    O11   S    
Cu2   N2    S    
C17   C18   S    
C21   C22   S    
O12   C28   S    
C26   H17   S    
C20   H9    S    
C1    C12   S    
C2    C11   S    
C4    O8    A    
C21   H11   S    
C18   H3    S    
C22   H14   S    
C5    O9    S    
C10   O12   S    
C7    C12   A    
C13   C31   S    
C26   H18   S    
Cu1   O4    S    
C23   N3    T    
C3    O5    A    
C4    C6    S    
C24   N4    T    
C16   C34   S    
Cu1   O1    S    
Cu2   O3    S    
C28   H23   S    
C28   H22   S    
O9    C17   S    
C22   H12   S    
C16   N2    A    
C20   C21   S    
C29   C30   S    
Cu1   Cu2   S    
C14   C32   S    
C9    C11   A    
C10   C12   A    
O10   C20   S    
C1    O3    A    
C13   C15   A    
C2    O4    A    
C30   H28   S    
C14   C16   A    
C21   H10   S    
C7    C9    A    
C26   C27   S    
C27   H21   S    
Cu2   O2    S    
Cu1   O8    S    
C14   N1    A    
C13   N2    A    
C19   H7    S    
Cu2   O7    S    
C3    C5    S    
C8    C24   S    
C4    O6    A    
C25   C26   S    
C28   C29   S    
Cu1   O5    S    
C19   H6    S    
C7    C23   S    
C17   H2    S    
C17   H1    S    
C8    C11   A    
C3    O7    A    
Cu1   N1    S    
C25   H16   S    
C6    O10   S    
C32   N6    T    
C8    C10   A    
C29   H25   S    
