data_mof_unit_58404.cif
_audit_creation_date              2012-12-10T17:19:00-0500
_audit_creation_method            fapswitch 2.2
_symmetry_space_group_name_H-M    P1
_symmetry_Int_Tables_number       1
_space_group_crystal_system       triclinic
_cell_length_a                    10.240281
_cell_length_b                    10.818875
_cell_length_c                    13.357614
_cell_angle_alpha                 92.614974
_cell_angle_beta                  98.845489
_cell_angle_gamma                 95.952611
_cell_volume                      1451.52540791

loop_
_atom_site_label
_atom_site_type_symbol
_atom_type_description
_atom_site_fract_x
_atom_site_fract_y
_atom_site_fract_z
_atom_type_partial_charge
Br1   Br    Br    0.262528 0.684478 0.201179 -0.537991
Br2   Br    Br    0.737442 0.315628 0.798857 -0.535335
C1    C     C_R   0.052074 0.732125 0.490764 0.951320
C2    C     C_2   0.998369 0.063046 0.466882 -0.134841
C3    C     C_2   0.430433 0.510099 0.508993 0.129920
C4    C     C_2   0.569567 0.489944 0.490961 0.128040
C5    C     C_R   0.091508 0.513288 0.687152 0.904784
C6    C     C_R   0.908492 0.486720 0.312850 0.895686
C7    C     C_R   0.137717 0.523680 0.797291 -0.175692
C8    C     C_R   0.862302 0.476387 0.202727 -0.172046
C9    C     C_R   0.143133 0.612448 0.967824 -0.139283
C10   C     C_R   0.856851 0.387605 0.032207 -0.139555
C11   C     C_R   0.076302 0.588066 0.868722 0.428066
C12   C     C_R   0.945663 0.267347 0.503668 0.955832
C13   C     C_R   0.923667 0.411932 0.131312 0.427486
C14   C     C_R   0.258024 0.477761 0.829288 -0.267788
C15   C     C_R   0.742057 0.522421 0.170730 -0.268375
C16   C     C_R   0.332126 0.511870 0.925099 0.080781
C17   C     C_R   0.667948 0.488353 0.074917 0.080799
C18   C     C_R   0.270976 0.576576 0.996881 0.011812
C19   C     C_R   0.729059 0.423588 0.003141 0.011388
C20   C     C_R   0.465816 0.484701 0.950125 0.037683
C21   C     C_R   0.534273 0.515572 0.049888 0.037996
C22   C     C_R   0.465845 0.569731 0.122287 -0.203282
C23   C     C_R   0.534244 0.430556 0.877723 -0.202575
C24   C     C_R   0.338428 0.603068 0.096104 0.255876
C25   C     C_R   0.661617 0.397138 0.903916 0.255934
C26   C     C_2   0.078006 0.863068 0.476283 -0.324032
C27   C     C_2   0.911020 0.134336 0.496770 -0.336373
C28   C     C_2   0.975749 0.930862 0.469818 -0.136211
H1    H     H_    0.707059 0.583361 0.224057 0.173871
H2    H     H_    0.178505 0.904177 0.472535 0.173900
H3    H     H_    0.580626 0.417945 0.434654 0.147638
H4    H     H_    0.419374 0.582149 0.565256 0.147291
H5    H     H_    0.106066 0.433716 0.196732 0.374579
H6    H     H_    0.893913 0.566150 0.803269 0.374389
H7    H     H_    0.753821 0.675552 0.639868 0.386664
H8    H     H_    0.246167 0.324262 0.360280 0.383053
H9    H     H_    0.293063 0.416852 0.775966 0.175133
H10   H     H_    0.094214 0.661710 0.021002 0.207698
H11   H     H_    0.905730 0.338287 0.979036 0.207766
H12   H     H_    0.507411 0.587154 0.201224 0.175045
H13   H     H_    0.492706 0.413179 0.798778 0.175587
H14   H     H_    0.092286 0.102158 0.446511 0.202007
H15   H     H_    0.875028 0.890189 0.473704 0.200428
H16   H     H_    0.817396 0.094811 0.517187 0.176207
N1    N     N_2   0.322180 0.446120 0.460900 0.031706
N2    N     N_2   0.677820 0.553880 0.539100 0.030491
O1    O     O_R   0.935190 0.693030 0.507870 -0.618343
O2    O     O_3   0.954773 0.632311 0.844969 -0.744344
O3    O     O_3   0.662219 0.640003 0.610458 -0.694598
O4    O     O_3   0.337770 0.359877 0.389631 -0.695631
O5    O     O_R   0.064810 0.306970 0.492130 -0.617959
O6    O     O_R   0.142080 0.658430 0.482770 -0.597090
O7    O     O_R   0.857920 0.341570 0.517230 -0.596408
O8    O     O_R   0.969700 0.527180 0.651960 -0.597490
O9    O     O_R   0.030300 0.472820 0.348040 -0.600931
O10   O     O_R   0.176600 0.492580 0.626860 -0.628077
O11   O     O_R   0.823400 0.507420 0.373140 -0.631377
O12   O     O_3   0.045124 0.367557 0.155094 -0.745987
Zn1   Zn    Zn3+2 0.861850 0.523100 0.516760 1.002230
Zn2   Zn    Zn3+2 0.138150 0.476900 0.483240 1.002529

loop_
_geom_bond_atom_site_label_1
_geom_bond_atom_site_label_2
_ccdc_geom_bond_type
O10   Zn2   S    
C17   C21   A    
C21   C22   A    
C10   C13   A    
N1    O4    S    
C6    O9    A    
C23   C25   A    
C22   H12   S    
O5    Zn2   S    
C28   H15   S    
C2    C27   D    
C4    H3    S    
C27   H16   S    
Br2   C25   S    
C3    H4    S    
C23   H13   S    
N1    Zn2   S    
C26   C28   D    
C12   O7    A    
C19   C25   A    
O9    Zn2   S    
C16   C20   A    
C9    C11   A    
N2    Zn1   S    
C10   H11   S    
C18   C24   A    
C5    O8    A    
C15   H1    S    
C3    C4    S    
O7    Zn1   S    
H8    O4    S    
C6    C8    S    
C1    C26   S    
C17   C19   A    
C7    C14   A    
C22   C24   A    
C16   C18   A    
C8    C13   A    
C6    O11   A    
C1    O1    A    
Br1   C24   S    
H7    O3    S    
C1    O6    A    
C9    C18   A    
O11   Zn1   S    
O1    Zn1   S    
C8    C15   A    
C9    H10   S    
C3    N1    D    
C5    O10   A    
C26   H2    S    
C12   O5    A    
H6    O2    S    
C14   C16   A    
C13   O12   S    
C5    C7    S    
C7    C11   A    
O8    Zn1   S    
C14   H9    S    
C12   C27   S    
C15   C17   A    
C20   C21   A    
O6    Zn2   S    
C10   C19   A    
N2    O3    S    
C2    C28   S    
C11   O2    S    
C2    H14   S    
H5    O12   S    
C20   C23   A    
C4    N2    D    
