data_mof_unit_14682.cif
_audit_creation_date              2012-10-26T20:06:32-0400
_audit_creation_method            fapswitch 2.2
_symmetry_space_group_name_H-M    P1
_symmetry_Int_Tables_number       1
_space_group_crystal_system       triclinic
_cell_length_a                    10.798269
_cell_length_b                    9.752872
_cell_length_c                    14.287199
_cell_angle_alpha                 90.348793
_cell_angle_beta                  94.067107
_cell_angle_gamma                 90.783798
_cell_volume                      1500.67680653

loop_
_atom_site_label
_atom_site_type_symbol
_atom_type_description
_atom_site_fract_x
_atom_site_fract_y
_atom_site_fract_z
_atom_type_partial_charge
C1    C     C_R   0.262925 0.499093 0.500323 0.527329
C2    C     C_1   0.502021 0.501055 0.957321 -0.012247
C3    C     C_R   0.059211 0.385893 0.464239 -0.142565
C4    C     C_R   0.942861 0.607572 0.543482 -0.150111
C5    C     C_R   0.930840 0.387408 0.463413 -0.139645
C6    C     C_R   0.070728 0.607426 0.542727 -0.139709
C7    C     C_R   0.871970 0.499513 0.501905 0.015766
C8    C     C_R   0.129208 0.497351 0.502138 0.020238
C9    C     C_R   0.434180 0.070497 0.430678 0.106430
C10   C     C_R   0.583571 0.929724 0.557566 0.105073
C11   C     C_R   0.566321 0.074172 0.569463 0.108350
C12   C     C_R   0.737451 0.500442 0.500803 0.524377
C13   C     C_R   0.415180 0.926240 0.443699 0.108164
C14   C     C_3   0.407600 0.121278 0.329982 -0.201191
C15   C     C_3   0.287672 0.203746 0.309178 -0.279599
C16   C     C_3   0.260530 0.223188 0.203731 -0.471197
C17   C     C_3   0.707808 0.874617 0.597115 -0.216312
C18   C     C_3   0.702951 0.784962 0.685761 -0.266853
C19   C     C_3   0.808846 0.815140 0.760050 -0.489369
C20   C     C_3   0.614987 0.135428 0.664783 -0.206933
C21   C     C_3   0.735221 0.223573 0.663648 -0.261624
C22   C     C_3   0.824394 0.203467 0.750154 -0.486522
C23   C     C_R   0.500530 0.499775 0.331641 0.526628
C24   C     C_3   0.288710 0.868616 0.406374 -0.198096
C25   C     C_3   0.287171 0.779812 0.316456 -0.261589
C26   C     C_3   0.170776 0.802851 0.251604 -0.482376
C27   C     C_R   0.499897 0.500336 0.668390 0.520179
C28   C     C_1   0.501583 0.499808 0.229268 -0.064690
C29   C     C_1   0.500766 0.500987 0.770880 -0.065962
C30   C     C_1   0.502141 0.500417 0.143713 -0.063099
C31   C     C_1   0.501480 0.501144 0.856498 -0.055545
C32   C     C_1   0.502223 0.500837 0.042930 -0.014674
Cu1   Cu    Cu3+1 0.500000 0.640660 0.500000 0.892797
Cu2   Cu    Cu3+1 0.500000 0.359340 0.500000 0.891998
H1    H     H_    0.103226 0.298871 0.434229 0.108949
H2    H     H_    0.490596 0.173283 0.305163 0.164608
H3    H     H_    0.400536 0.031310 0.282070 0.108880
H4    H     H_    0.899156 0.824461 0.727788 0.145948
H5    H     H_    0.790294 0.910278 0.799055 0.150327
H6    H     H_    0.814972 0.730213 0.811557 0.146827
H7    H     H_    0.614085 0.799583 0.719053 0.176154
H8    H     H_    0.711896 0.675864 0.666427 0.187886
H9    H     H_    0.754144 0.827545 0.539496 0.155367
H10   H     H_    0.774071 0.960429 0.613502 0.110369
H11   H     H_    0.773936 0.206275 0.815242 0.154121
H12   H     H_    0.901094 0.690275 0.578938 0.108787
H13   H     H_    0.873525 0.105152 0.744897 0.148927
H14   H     H_    0.895715 0.286880 0.754101 0.147640
H15   H     H_    0.785604 0.200251 0.600425 0.170078
H16   H     H_    0.712493 0.333516 0.663868 0.193845
H17   H     H_    0.540582 0.186402 0.700306 0.157969
H18   H     H_    0.633015 0.050893 0.715152 0.113143
H19   H     H_    0.086321 0.778339 0.288753 0.156814
H20   H     H_    0.167013 0.910850 0.227879 0.151504
H21   H     H_    0.172119 0.735045 0.188963 0.144939
H22   H     H_    0.370218 0.800990 0.277016 0.163747
H23   H     H_    0.877753 0.301684 0.432082 0.123200
H24   H     H_    0.285770 0.669844 0.334436 0.192778
H25   H     H_    0.239261 0.820777 0.462628 0.156392
H26   H     H_    0.225423 0.954708 0.392392 0.099821
H27   H     H_    0.123865 0.691906 0.575650 0.116537
H28   H     H_    0.340436 0.273857 0.172844 0.164604
H29   H     H_    0.242062 0.122842 0.168086 0.147164
H30   H     H_    0.177488 0.288197 0.190862 0.140584
H31   H     H_    0.206118 0.152290 0.336329 0.130154
H32   H     H_    0.294129 0.306290 0.341400 0.205168
N1    N     N_R   0.500000 0.852070 0.500000 -0.220281
N2    N     N_R   0.500000 0.147930 0.500000 -0.221213
O1    O     O_R   0.319640 0.618740 0.499990 -0.514628
O2    O     O_R   0.680360 0.381260 0.500010 -0.509276
O3    O     O_R   0.680360 0.618740 0.500010 -0.507520
O4    O     O_R   0.319640 0.381260 0.499990 -0.499243
O5    O     O_R   0.500000 0.618810 0.376050 -0.480793
O6    O     O_R   0.500000 0.381190 0.623950 -0.490182
O7    O     O_R   0.500000 0.618810 0.623950 -0.485141
O8    O     O_R   0.500000 0.381190 0.376050 -0.492378

loop_
_geom_bond_atom_site_label_1
_geom_bond_atom_site_label_2
_ccdc_geom_bond_type
C17   C18   S    
C22   H14   S    
C9    C14   S    
C17   H9    S    
C24   C25   S    
C16   H29   S    
Cu1   O1    S    
C27   C29   S    
C27   O6    A    
C3    H1    S    
Cu2   O2    S    
C21   C22   S    
C25   H22   S    
C5    H23   S    
C23   O8    A    
C24   H26   S    
C26   H21   S    
C21   H15   S    
Cu1   Cu2   S    
C9    N2    A    
C28   C30   T    
C29   C31   T    
C4    H12   S    
C10   N1    A    
C20   C21   S    
C14   H3    S    
C30   C32   S    
C24   H25   S    
C25   H24   S    
C19   H5    S    
Cu2   O6    S    
C4    C7    A    
C27   O7    A    
C26   H20   S    
C6    H27   S    
C2    C32   T    
C21   H16   S    
C19   H4    S    
C12   O3    A    
C23   O5    A    
C22   H13   S    
C20   H17   S    
C12   O2    A    
C18   H8    S    
C3    C8    A    
C14   H2    S    
C7    C12   S    
C11   C20   S    
C17   H10   S    
C1    O4    A    
Cu1   O7    S    
C19   H6    S    
Cu1   O3    S    
C10   C17   S    
Cu2   N2    S    
C15   C16   S    
C1    C8    S    
C26   H19   S    
Cu2   O4    S    
C22   H11   S    
C11   N2    A    
Cu1   N1    S    
C20   H18   S    
C4    C6    A    
C10   C11   A    
C18   H7    S    
Cu1   O5    S    
C5    C7    A    
C9    C13   A    
C14   C15   S    
C18   C19   S    
C6    C8    A    
C13   N1    A    
C16   H30   S    
C25   C26   S    
C23   C28   S    
C15   H32   S    
C16   H28   S    
C1    O1    A    
C13   C24   S    
Cu2   O8    S    
C2    C31   S    
C3    C5    A    
C15   H31   S    
