data_mof_unit_20685.cif
_audit_creation_date              2012-12-10T17:36:49-0500
_audit_creation_method            fapswitch 2.2
_symmetry_space_group_name_H-M    P1
_symmetry_Int_Tables_number       1
_space_group_crystal_system       triclinic
_cell_length_a                    10.610095
_cell_length_b                    12.34863
_cell_length_c                    13.204546
_cell_angle_alpha                 116.70287
_cell_angle_beta                  77.19432
_cell_angle_gamma                 101.374737
_cell_volume                      1497.6126336

loop_
_atom_site_label
_atom_site_type_symbol
_atom_type_description
_atom_site_fract_x
_atom_site_fract_y
_atom_site_fract_z
_atom_type_partial_charge
C1    C     C_R   0.511683 0.854966 0.286625 0.759225
C2    C     C_R   0.501611 0.566833 0.009507 0.078715
C3    C     C_R   0.461766 0.650598 0.123779 0.079831
C4    C     C_R   0.740434 0.999650 0.499539 0.783620
C5    C     C_R   0.459531 0.440444 0.976387 0.071500
C6    C     C_R   0.370451 0.401378 0.054225 0.165425
C7    C     C_R   0.320812 0.486932 0.161118 -0.239639
C8    C     C_R   0.363751 0.609825 0.194610 -0.203416
C9    C     C_R   0.503764 0.351259 0.868292 -0.257942
C10   C     C_R   0.371230 0.190914 0.913703 -0.192869
C11   C     C_R   0.520193 0.773276 0.163561 -0.104893
C12   C     C_3   0.013234 0.908787 0.524610 -0.156894
C13   C     C_R   0.705217 0.342758 0.324047 -0.288286
C14   C     C_R   0.322885 0.757505 0.645320 0.384593
C15   C     C_R   0.285444 0.659404 0.675096 -0.306698
C16   C     C_R   0.481304 0.145139 0.713475 0.800155
C17   C     C_R   0.352448 0.557313 0.619769 -0.208472
C18   C     C_R   0.458608 0.550532 0.532426 -0.009296
C19   C     C_R   0.493919 0.652587 0.503964 0.209388
C20   C     C_R   0.530369 0.446266 0.472553 -0.070998
C21   C     C_R   0.633945 0.444207 0.382880 0.152337
C22   C     C_R   0.665707 0.543361 0.353431 0.094507
C23   C     C_3   0.955070 0.891613 0.420062 -0.176443
C24   C     C_R   0.598651 0.646175 0.415802 -0.211561
C25   C     C_R   0.503588 0.342721 0.497638 0.031839
C26   C     C_R   0.674008 0.244770 0.353167 0.050001
C27   C     C_R   0.259639 0.000155 0.500176 0.782645
C28   C     C_3   0.986640 0.090819 0.474224 -0.143045
C29   C     C_3   0.065719 0.982656 0.396354 0.185641
C30   C     C_3   0.122706 0.999490 0.499644 -0.034665
C31   C     C_3   0.044676 0.107365 0.578674 -0.201382
C32   C     C_3   0.933150 0.016782 0.603679 -0.155763
C33   C     C_3   0.145107 0.962864 0.278937 -0.403593
C34   C     C_3   0.877464 0.999801 0.499202 -0.005868
C35   C     C_3   0.058625 0.947395 0.194137 -0.854179
C36   C     C_R   0.329190 0.276981 0.023086 -0.199395
C37   C     C_R   0.455692 0.228447 0.834952 -0.052798
C38   C     C_R   0.599624 0.815245 0.085380 -0.191873
C39   C     C_R   0.626889 0.736222 0.970598 -0.150234
C40   C     C_R   0.580989 0.613116 0.932902 -0.182817
Cu1   Cu    Cu3+1 0.529830 0.098270 0.475420 0.926598
Cu2   Cu    Cu3+1 0.470170 0.901730 0.524580 0.940372
H1    H     H_    0.574615 0.374665 0.807016 0.148297
H2    H     H_    0.318066 0.485015 0.646933 0.141916
H3    H     H_    0.203686 0.662554 0.741803 0.144740
H4    H     H_    0.631535 0.719549 0.391839 0.205217
H5    H     H_    0.084336 0.195244 0.643538 0.136316
H6    H     H_    0.875296 0.030728 0.688832 0.132372
H7    H     H_    0.026219 0.834250 0.545217 0.144908
H8    H     H_    0.916041 0.803802 0.355023 0.130142
H9    H     H_    0.333492 0.096200 0.889464 0.153154
H10   H     H_    0.248110 0.458796 0.219199 0.147011
H11   H     H_    0.261442 0.246654 0.082249 0.133243
H12   H     H_    0.643792 0.908954 0.113464 0.150474
H13   H     H_    0.985006 0.866672 0.181854 0.249358
H14   H     H_    0.008236 0.029991 0.225737 0.243865
H15   H     H_    0.119212 0.933751 0.110040 0.242886
H16   H     H_    0.219506 0.042548 0.288381 0.214963
H17   H     H_    0.195753 0.880056 0.245410 0.194666
H18   H     H_    0.783027 0.621865 0.251537 0.203367
H19   H     H_    0.733117 0.473811 0.183873 0.222727
H20   H     H_    0.155524 0.832392 0.689249 0.183508
H21   H     H_    0.251918 0.893031 0.791621 0.175348
H22   H     H_    0.607459 0.557496 0.842816 0.129196
H23   H     H_    0.687625 0.769857 0.910905 0.138947
H24   H     H_    0.316481 0.672247 0.275805 0.173682
H25   H     H_    0.728616 0.166741 0.307573 0.120396
H26   H     H_    0.785404 0.338527 0.255918 0.161649
H27   H     H_    0.426737 0.336264 0.563897 0.123284
H28   H     H_    0.973560 0.165005 0.453119 0.138428
N1    N     N_R   0.575030 0.246270 0.438190 -0.178795
N2    N     N_R   0.425760 0.754330 0.561190 -0.194050
N3    N     N_3   0.766856 0.539440 0.259222 -0.602895
N4    N     N_3   0.251998 0.861369 0.703722 -0.529493
O1    O     O_R   0.537510 0.972500 0.318130 -0.581911
O2    O     O_R   0.487140 0.806530 0.359650 -0.605743
O3    O     O_R   0.708330 0.082950 0.479220 -0.585793
O4    O     O_R   0.657960 0.916980 0.520740 -0.598754
O5    O     O_R   0.512860 0.193470 0.640350 -0.589787
O6    O     O_R   0.462490 0.027500 0.681870 -0.555050
O7    O     O_R   0.342040 0.083020 0.479260 -0.591380
O8    O     O_R   0.291670 0.917050 0.520780 -0.563782

loop_
_geom_bond_atom_site_label_1
_geom_bond_atom_site_label_2
_ccdc_geom_bond_type
Cu2   O6    S    
C33   H16   S    
C32   H6    S    
Cu1   Cu2   S    
Cu2   O8    S    
C12   H7    S    
C7    C8    A    
C8    H24   S    
C12   C23   S    
C5    C9    A    
C10   C37   A    
C5    C6    A    
C26   H25   S    
C14   N4    S    
C28   C29   S    
C7    H10   S    
Cu1   O3    S    
C38   C39   A    
C20   C25   A    
C29   C33   S    
H18   N3    S    
C18   C19   A    
C36   H11   S    
C1    C11   S    
C25   N1    A    
C16   C37   S    
Cu1   N1    S    
C28   C34   S    
C33   H17   S    
C31   H5    S    
C21   C22   A    
C12   C32   S    
C27   C30   S    
C26   N1    A    
C39   H23   S    
C19   N2    A    
C10   H9    S    
Cu2   N2    S    
C28   C31   S    
C4    C34   S    
C9    H1    S    
C35   H13   S    
C1    O1    A    
C27   O7    A    
C3    C8    A    
C39   C40   A    
C23   H8    S    
H19   N3    S    
C16   O6    A    
C32   C34   S    
C11   C38   A    
C4    O4    A    
C29   C30   S    
Cu1   O1    S    
C31   C32   S    
C38   H12   S    
C23   C34   S    
Cu1   O7    S    
C9    C37   A    
C17   C18   A    
C13   C21   A    
Cu2   O4    S    
C22   C24   A    
C13   C26   A    
C2    C5    A    
C25   H27   S    
C15   H3    S    
C23   C29   S    
C15   C17   A    
C12   C30   S    
C35   H14   S    
C1    O2    A    
C14   N2    A    
C27   O8    A    
C28   H28   S    
Cu1   O5    S    
C6    C7    A    
H21   N4    S    
Cu2   O2    S    
C40   H22   S    
C35   H15   S    
C16   O5    A    
C24   H4    S    
C2    C3    A    
C17   H2    S    
C4    O3    A    
C30   C31   S    
C33   C35   S    
C6    C36   A    
C19   C24   A    
C18   C20   A    
C3    C11   A    
C2    C40   A    
C20   C21   A    
C14   C15   A    
H20   N4    S    
C10   C36   A    
C22   N3    S    
C13   H26   S    
