data_mof_unit_8419.cif
_audit_creation_date              2012-12-11T15:35:36-0500
_audit_creation_method            fapswitch 2.2
_symmetry_space_group_name_H-M    P1
_symmetry_Int_Tables_number       1
_space_group_crystal_system       triclinic
_cell_length_a                    17.350647
_cell_length_b                    24.191265
_cell_length_c                    14.799163
_cell_angle_alpha                 90.252252
_cell_angle_beta                  123.970633
_cell_angle_gamma                 89.735258
_cell_volume                      5151.45604531

loop_
_atom_site_label
_atom_site_type_symbol
_atom_type_description
_atom_site_fract_x
_atom_site_fract_y
_atom_site_fract_z
_atom_type_partial_charge
C1    C     C_R   0.350525 0.151766 0.908400 -0.127606
C2    C     C_R   0.563099 0.152495 0.912857 0.549310
C3    C     C_R   0.255694 0.547529 0.297550 0.460797
C4    C     C_3   0.422108 0.855853 0.498564 0.167938
C5    C     C_3   0.365105 0.807460 0.424552 -0.289314
C6    C     C_3   0.427303 0.761448 0.428169 -1.051280
C7    C     C_3   0.260944 0.098093 0.465187 0.166738
C8    C     C_3   0.187410 0.119362 0.350845 -0.283275
C9    C     C_3   0.092085 0.123610 0.333273 -1.023366
C10   C     C_3   0.921546 0.355841 0.498467 0.168073
C11   C     C_3   0.864535 0.307595 0.423932 -0.289426
C12   C     C_3   0.926752 0.261678 0.427249 -1.051140
C13   C     C_R   0.097145 0.372403 0.908177 0.542645
C14   C     C_3   0.760950 0.598167 0.465162 0.166637
C15   C     C_3   0.687436 0.619387 0.350770 -0.283234
C16   C     C_3   0.592094 0.623657 0.333146 -1.023410
C17   C     C_3   0.700790 0.879924 0.340568 0.165153
C18   C     C_3   0.729918 0.825298 0.402774 -0.248867
C19   C     C_3   0.648750 0.798327 0.398997 -1.059375
C20   C     C_3   0.710881 0.115334 0.365804 0.154167
C21   C     C_3   0.734253 0.173566 0.414051 -0.284400
C22   C     C_3   0.674478 0.190152 0.455662 -1.037815
C23   C     C_3   0.200821 0.379920 0.340558 0.165213
C24   C     C_R   0.063106 0.652499 0.912874 0.549286
C25   C     C_3   0.229952 0.325291 0.402755 -0.249010
C26   C     C_3   0.148770 0.298294 0.398904 -1.059182
C27   C     C_3   0.210843 0.615321 0.365749 0.154230
C28   C     C_3   0.234285 0.673520 0.414157 -0.284450
C29   C     C_3   0.174374 0.690127 0.455569 -1.037491
C30   C     C_3   0.493816 0.807824 0.787825 0.135818
C31   C     C_3   0.528905 0.752912 0.772062 -0.273195
C32   C     C_3   0.457985 0.706873 0.738958 -1.023330
C33   C     C_3   0.583307 0.145614 0.773792 0.146179
C34   C     C_3   0.663458 0.184734 0.803007 -0.311960
C35   C     C_R   0.421628 0.999278 0.626257 0.070792
C36   C     C_3   0.721536 0.162000 0.763029 -1.003590
C37   C     C_3   0.993859 0.307738 0.788293 0.136876
C38   C     C_3   0.027784 0.252964 0.770220 -0.273124
C39   C     C_3   0.956618 0.207082 0.737188 -1.023731
C40   C     C_3   0.083224 0.645651 0.773736 0.146161
C41   C     C_3   0.163378 0.684767 0.802942 -0.312028
C42   C     C_3   0.221411 0.662045 0.762894 -1.003453
C43   C     C_R   0.921556 0.499291 0.626238 0.070958
C44   C     C_R   0.807437 0.002651 0.358111 -0.296778
C45   C     C_R   0.307472 0.502652 0.358061 -0.296604
C46   C     C_R   0.617419 0.185241 0.004339 -0.130561
C47   C     C_R   0.687303 0.862367 0.997247 -0.092403
C48   C     C_R   0.117443 0.685236 0.004374 -0.130496
C49   C     C_R   0.313449 0.871192 0.910962 -0.139284
C50   C     C_R   0.187338 0.362416 0.997263 -0.092027
C51   C     C_3   0.030813 0.971996 0.633571 -0.419550
C52   C     C_3   0.045877 0.063351 0.563468 -0.491688
C53   C     C_3   0.530907 0.472035 0.633454 -0.419499
C54   C     C_3   0.545953 0.563351 0.563214 -0.491578
C55   C     C_3   0.925725 0.972758 0.547210 -0.384239
C56   C     C_3   0.942731 0.063516 0.477701 -0.329089
C57   C     C_3   0.425812 0.472797 0.547146 -0.384262
C58   C     C_3   0.442797 0.563516 0.477507 -0.328960
C59   C     C_3   0.062929 0.974680 0.485963 -0.421613
C60   C     C_R   0.850524 0.651765 0.908395 -0.127521
C61   C     C_3   0.562937 0.474638 0.485772 -0.421533
C62   C     C_3   0.082085 0.003050 0.590299 0.416014
C63   C     C_3   0.582146 0.503049 0.590094 0.415874
C64   C     C_3   0.906101 0.003386 0.444709 0.428085
C65   C     C_3   0.406148 0.503387 0.444597 0.427976
C66   C     C_R   0.409710 0.866112 0.092990 -0.135125
C67   C     C_R   0.443208 0.153277 0.090309 -0.145601
C68   C     C_R   0.909669 0.366137 0.092976 -0.135121
C69   C     C_R   0.943208 0.653278 0.090305 -0.145564
C70   C     C_3   0.958561 0.974577 0.399812 -0.389987
C71   C     C_R   0.813424 0.371221 0.910944 -0.139277
C72   C     C_3   0.458557 0.474538 0.399668 -0.390014
C73   C     C_R   0.161102 0.816752 0.916461 -0.217243
C74   C     C_R   0.299477 0.270688 0.901799 -0.210410
C75   C     C_R   0.661060 0.316752 0.916363 -0.217210
C76   C     C_R   0.799489 0.770690 0.901782 -0.210260
C77   C     C_R   0.606655 0.275295 0.917385 -0.161668
C78   C     C_R   0.751303 0.816608 0.901474 -0.161024
C79   C     C_R   0.106691 0.775304 0.917492 -0.161639
C80   C     C_R   0.251303 0.316611 0.901494 -0.160456
C81   C     C_R   0.643353 0.243119 0.011350 0.162891
C82   C     C_R   0.644997 0.151878 0.092443 -0.193429
C83   C     C_R   0.762192 0.833262 0.998793 0.163506
C84   C     C_R   0.143414 0.743106 0.011433 0.162927
C85   C     C_R   0.262202 0.333274 0.998815 0.163680
C86   C     C_R   0.719163 0.263036 0.110665 -0.164821
C87   C     C_R   0.838632 0.813623 0.098137 -0.165928
C88   C     C_R   0.219281 0.762988 0.110748 -0.164945
C89   C     C_R   0.338627 0.313623 0.098158 -0.166073
C90   C     C_R   0.272126 0.805081 0.110485 -0.181737
C91   C     C_R   0.387422 0.268280 0.098751 -0.169918
C92   C     C_R   0.772014 0.305129 0.110409 -0.181785
C93   C     C_R   0.688928 0.877462 0.088990 -0.256482
C94   C     C_R   0.887443 0.768288 0.098734 -0.169974
C95   C     C_R   0.249367 0.826765 0.010912 0.158649
C96   C     C_R   0.360253 0.242851 0.000008 0.151868
C97   C     C_R   0.749297 0.326795 0.010842 0.158607
C98   C     C_R   0.860269 0.742856 0.999993 0.151870
C99   C     C_R   0.378135 0.948724 0.455375 0.545493
C100  C     C_R   0.368839 0.049395 0.452516 0.520158
C101  C     C_R   0.877954 0.448751 0.455331 0.545389
C102  C     C_R   0.868838 0.549422 0.452544 0.520074
C103  C     C_R   0.385919 0.951463 0.366481 -0.354820
C104  C     C_R   0.145010 0.651870 0.092462 -0.193480
C105  C     C_R   0.390055 0.050816 0.374949 -0.300315
C106  C     C_R   0.886010 0.451463 0.366630 -0.354959
C107  C     C_R   0.890168 0.550822 0.375075 -0.300327
C108  C     C_R   0.408211 0.001597 0.340448 0.016507
C109  C     C_R   0.908363 0.501594 0.340636 0.016638
C110  C     C_R   0.482987 0.046962 0.252901 -0.173900
C111  C     C_R   0.490646 0.955459 0.262771 -0.173591
C112  C     C_R   0.983058 0.546960 0.252986 -0.173963
C113  C     C_R   0.990721 0.455456 0.262852 -0.173609
C114  C     C_R   0.381669 0.998784 0.507764 -0.199041
C115  C     C_R   0.188947 0.377494 0.088996 -0.256607
C116  C     C_R   0.881543 0.498811 0.507734 -0.198870
C117  C     C_R   0.233777 0.954648 0.714184 -0.151568
C118  C     C_R   0.235384 0.048090 0.720186 -0.152978
C119  C     C_R   0.733824 0.454649 0.714054 -0.151425
C120  C     C_R   0.735430 0.548087 0.720028 -0.153031
C121  C     C_R   0.382436 0.184673 0.999440 0.046807
C122  C     C_R   0.320740 0.854188 0.004858 0.055763
C123  C     C_R   0.882441 0.684675 0.999433 0.046778
C124  C     C_R   0.820692 0.354222 0.004827 0.055750
C125  C     C_R   0.456865 0.001579 0.285812 0.159326
C126  C     C_R   0.597103 0.872360 0.908174 0.543333
C127  C     C_R   0.956988 0.501575 0.285960 0.159303
C128  C     C_R   0.180681 0.002134 0.672231 0.014881
C129  C     C_R   0.680746 0.502133 0.672004 0.014847
C130  C     C_R   0.443173 0.044848 0.693138 -0.167267
C131  C     C_R   0.444118 0.954307 0.693750 -0.054644
C132  C     C_R   0.943127 0.544854 0.693130 -0.167141
C133  C     C_R   0.944112 0.454312 0.693741 -0.055346
C134  C     C_R   0.756963 0.955766 0.303259 0.432462
C135  C     C_R   0.755676 0.047527 0.297574 0.460853
C136  C     C_R   0.256983 0.455767 0.303242 0.432394
H1    H     H_    0.312028 0.165029 0.824495 0.091405
H2    H     H_    0.907399 0.085280 0.511423 0.182710
H3    H     H_    0.787280 0.832917 0.489129 0.198187
H4    H     H_    0.622416 0.826105 0.436034 0.263114
H5    H     H_    0.672235 0.758974 0.445395 0.281185
H6    H     H_    0.591436 0.789088 0.313452 0.270451
H7    H     H_    0.721992 0.085768 0.429789 0.101026
H8    H     H_    0.636831 0.114776 0.296378 0.114626
H9    H     H_    0.808737 0.175236 0.482359 0.212511
H10   H     H_    0.722505 0.203586 0.350891 0.195822
H11   H     H_    0.599823 0.190565 0.387612 0.263039
H12   H     H_    0.694394 0.232152 0.492144 0.272455
H13   H     H_    0.389408 0.493985 0.580115 0.147317
H14   H     H_    0.685164 0.160606 0.518833 0.272999
H15   H     H_    0.143272 0.371269 0.255004 0.126084
H16   H     H_    0.176473 0.408350 0.379247 0.100684
H17   H     H_    0.255725 0.296585 0.366320 0.205032
H18   H     H_    0.287285 0.332910 0.489124 0.198183
H19   H     H_    0.122391 0.326055 0.435915 0.263105
H20   H     H_    0.172259 0.258940 0.445296 0.281204
H21   H     H_    0.091485 0.289059 0.313344 0.270444
H22   H     H_    0.221846 0.585719 0.429632 0.100983
H23   H     H_    0.136814 0.614819 0.296264 0.114669
H24   H     H_    0.407515 0.585306 0.511266 0.182937
H25   H     H_    0.308729 0.675111 0.482596 0.212006
H26   H     H_    0.222739 0.703574 0.351138 0.195932
H27   H     H_    0.099775 0.690701 0.387360 0.262950
H28   H     H_    0.194452 0.732059 0.492340 0.272526
H29   H     H_    0.184740 0.660498 0.518470 0.272870
H30   H     H_    0.424909 0.817435 0.712764 0.121716
H31   H     H_    0.482053 0.802735 0.854312 0.095578
H32   H     H_    0.543098 0.757566 0.708025 0.196884
H33   H     H_    0.594932 0.741272 0.849346 0.205495
H34   H     H_    0.446182 0.699703 0.804408 0.271983
H35   H     H_    0.900564 0.929484 0.528402 0.205499
H36   H     H_    0.484253 0.668026 0.724970 0.267159
H37   H     H_    0.391002 0.718039 0.662622 0.272650
H38   H     H_    0.539683 0.141211 0.683689 0.163444
H39   H     H_    0.611046 0.103542 0.807434 0.099709
H40   H     H_    0.634809 0.225604 0.764421 0.211061
H41   H     H_    0.709588 0.190158 0.892701 0.207434
H42   H     H_    0.754326 0.122142 0.803803 0.268779
H43   H     H_    0.777118 0.191912 0.782141 0.272340
H44   H     H_    0.677128 0.155433 0.673589 0.267729
H45   H     H_    0.924527 0.317782 0.714294 0.121071
H46   H     H_    0.931066 0.086804 0.406279 0.201843
H47   H     H_    0.983485 0.302115 0.855785 0.095601
H48   H     H_    0.040899 0.258079 0.705392 0.196677
H49   H     H_    0.094218 0.240866 0.846563 0.205463
H50   H     H_    0.946078 0.199349 0.803497 0.272037
H51   H     H_    0.981881 0.168407 0.721211 0.267085
H52   H     H_    0.889161 0.218781 0.661983 0.272937
H53   H     H_    0.039563 0.641269 0.683630 0.163497
H54   H     H_    0.110957 0.603573 0.807334 0.099692
H55   H     H_    0.134731 0.725644 0.764398 0.211060
H56   H     H_    0.209539 0.690172 0.892638 0.207431
H57   H     H_    0.400636 0.429525 0.528392 0.205494
H58   H     H_    0.254215 0.622185 0.803643 0.268771
H59   H     H_    0.276981 0.691960 0.781979 0.272262
H60   H     H_    0.176969 0.655487 0.673452 0.267721
H61   H     H_    0.431082 0.586782 0.406038 0.201716
H62   H     H_    0.088675 0.931275 0.502639 0.161398
H63   H     H_    0.099506 0.996880 0.454680 0.161022
H64   H     H_    0.588673 0.431231 0.502486 0.161439
H65   H     H_    0.256188 0.864061 0.828343 0.091247
H66   H     H_    0.599492 0.496807 0.454425 0.161066
H67   H     H_    0.935302 0.931042 0.376103 0.194498
H68   H     H_    0.944014 0.996364 0.325631 0.151129
H69   H     H_    0.435283 0.431001 0.376010 0.194528
H70   H     H_    0.443979 0.496298 0.325449 0.151122
H71   H     H_    0.137507 0.836942 0.840086 0.113724
H72   H     H_    0.282389 0.254634 0.824416 0.117582
H73   H     H_    0.637486 0.336925 0.839980 0.113711
H74   H     H_    0.782399 0.754634 0.824400 0.117566
H75   H     H_    0.542170 0.264786 0.842013 0.172219
H76   H     H_    0.812024 0.665024 0.824488 0.091414
H77   H     H_    0.700049 0.835141 0.824125 0.168435
H78   H     H_    0.042178 0.764814 0.842135 0.172201
H79   H     H_    0.200063 0.335153 0.824146 0.168343
H80   H     H_    0.745445 0.242330 0.187059 0.120877
H81   H     H_    0.855193 0.828588 0.175876 0.118214
H82   H     H_    0.245622 0.742255 0.187139 0.120915
H83   H     H_    0.355192 0.328590 0.175898 0.118222
H84   H     H_    0.335487 0.815630 0.186955 0.115431
H85   H     H_    0.438686 0.250246 0.176724 0.111352
H86   H     H_    0.835350 0.315699 0.186886 0.115602
H87   H     H_    0.756156 0.364116 0.828316 0.091249
H88   H     H_    0.938715 0.750260 0.176709 0.111327
H89   H     H_    0.442871 0.851599 0.175072 0.085833
H90   H     H_    0.490025 0.168018 0.172677 0.084271
H91   H     H_    0.942800 0.351631 0.175059 0.085844
H92   H     H_    0.990022 0.668019 0.172673 0.084236
H93   H     H_    0.382453 0.913976 0.324303 0.141625
H94   H     H_    0.395861 0.090508 0.345903 0.151966
H95   H     H_    0.882627 0.413965 0.324529 0.141642
H96   H     H_    0.896023 0.590510 0.346055 0.151976
H97   H     H_    0.471119 0.090041 0.260508 0.102326
H98   H     H_    0.045749 0.991891 0.709751 0.167182
H99   H     H_    0.493781 0.914105 0.290677 0.091124
H100  H     H_    0.971207 0.590040 0.260611 0.102351
H101  H     H_    0.993874 0.414100 0.290761 0.091132
H102  H     H_    0.213633 0.912806 0.684820 0.087501
H103  H     H_    0.219022 0.091422 0.701977 0.093135
H104  H     H_    0.713700 0.412803 0.684697 0.087510
H105  H     H_    0.719084 0.591419 0.701778 0.093109
H106  H     H_    0.422579 0.086868 0.668408 0.183549
H107  H     H_    0.423354 0.912339 0.669307 0.168313
H108  H     H_    0.922507 0.586873 0.668408 0.183447
H109  H     H_    0.059223 0.084828 0.637707 0.168551
H110  H     H_    0.923432 0.412334 0.669312 0.168130
H111  H     H_    0.677191 0.165423 0.175174 0.167838
H112  H     H_    0.746662 0.874323 0.172235 0.183269
H113  H     H_    0.177193 0.665412 0.175194 0.167856
H114  H     H_    0.246675 0.374349 0.172240 0.183272
H115  H     H_    0.055142 0.928346 0.653424 0.152801
H116  H     H_    0.081461 0.086815 0.532224 0.167197
H117  H     H_    0.555223 0.428385 0.653343 0.152810
H118  H     H_    0.581517 0.586786 0.531910 0.167220
H119  H     H_    0.461468 0.841291 0.583917 0.146813
H120  H     H_    0.545883 0.491959 0.709630 0.167157
H121  H     H_    0.476203 0.868449 0.484289 0.084607
H122  H     H_    0.321249 0.790649 0.451030 0.207198
H123  H     H_    0.318411 0.822333 0.339521 0.204235
H124  H     H_    0.468928 0.776858 0.397635 0.275882
H125  H     H_    0.383841 0.726474 0.375817 0.281111
H126  H     H_    0.474753 0.746001 0.512649 0.273122
H127  H     H_    0.262627 0.126277 0.525765 0.127945
H128  H     H_    0.240791 0.056690 0.478397 0.088767
H129  H     H_    0.208004 0.160890 0.339573 0.215248
H130  H     H_    0.182876 0.090837 0.288978 0.195337
H131  H     H_    0.559339 0.584860 0.637444 0.168565
H132  H     H_    0.068924 0.082325 0.341490 0.264183
H133  H     H_    0.040612 0.139534 0.250140 0.278632
H134  H     H_    0.094635 0.152471 0.393495 0.267735
H135  H     H_    0.960388 0.341104 0.583687 0.146454
H136  H     H_    0.976047 0.368426 0.484863 0.084885
H137  H     H_    0.820559 0.290628 0.450104 0.207161
H138  H     H_    0.817959 0.322667 0.339028 0.204396
H139  H     H_    0.968374 0.277236 0.396824 0.275725
H140  H     H_    0.883320 0.226749 0.374704 0.281028
H141  H     H_    0.974209 0.246091 0.511612 0.272976
H142  H     H_    0.889284 0.993919 0.580158 0.147305
H143  H     H_    0.762616 0.626397 0.525672 0.127968
H144  H     H_    0.740792 0.556785 0.478448 0.088840
H145  H     H_    0.708031 0.660899 0.339431 0.215232
H146  H     H_    0.682929 0.590822 0.288969 0.195336
H147  H     H_    0.568934 0.582385 0.341425 0.264184
H148  H     H_    0.540636 0.639545 0.249977 0.278635
H149  H     H_    0.594617 0.652556 0.393301 0.267760
H150  H     H_    0.643239 0.871270 0.255017 0.126082
H151  H     H_    0.676447 0.908360 0.379253 0.100685
H152  H     H_    0.755648 0.796576 0.366314 0.204997
N1    N     N_R   0.392140 0.102630 0.941800 -0.038663
N2    N     N_R   0.525160 0.972040 0.206160 -0.052898
N3    N     N_R   0.025160 0.527960 0.206160 -0.054851
N4    N     N_R   0.025160 0.472040 0.206160 -0.052864
N5    N     N_R   0.317870 0.971120 0.792790 -0.031901
N6    N     N_R   0.317870 0.028880 0.792790 -0.030072
N7    N     N_R   0.817870 0.471120 0.792790 -0.031879
N8    N     N_R   0.817870 0.528880 0.792790 -0.030041
N9    N     N_R   0.473480 0.027920 0.793480 -0.057313
N10   N     N_R   0.473480 0.972080 0.793480 -0.061252
N11   N     N_R   0.973480 0.527920 0.793480 -0.057294
N12   N     N_R   0.392140 0.897370 0.941800 -0.044286
N13   N     N_R   0.973480 0.472080 0.793480 -0.061257
N14   N     N_R   0.681610 0.971120 0.207570 -0.120344
N15   N     N_R   0.681610 0.028880 0.207570 -0.111617
N16   N     N_R   0.181610 0.471120 0.207570 -0.120349
N17   N     N_R   0.181610 0.528880 0.207570 -0.111641
N18   N     N_R   0.605410 0.102620 0.056870 -0.064380
N19   N     N_R   0.605410 0.897380 0.056870 -0.069544
N20   N     N_R   0.105410 0.602620 0.056870 -0.064407
N21   N     N_R   0.105410 0.397380 0.056870 -0.069542
N22   N     N_R   0.549680 0.896430 0.944180 -0.103163
N23   N     N_R   0.892140 0.602630 0.941800 -0.038678
N24   N     N_R   0.549680 0.103570 0.944180 -0.098093
N25   N     N_R   0.049680 0.396430 0.944180 -0.103188
N26   N     N_R   0.049680 0.603570 0.944180 -0.098096
N27   N     N_R   0.892140 0.397370 0.941800 -0.044288
N28   N     N_R   0.450890 0.896450 0.057150 -0.039916
N29   N     N_R   0.450890 0.103550 0.057150 -0.036751
N30   N     N_R   0.950890 0.396450 0.057150 -0.039928
N31   N     N_R   0.950890 0.603550 0.057150 -0.036763
N32   N     N_R   0.525160 0.027960 0.206160 -0.054877
Ni1   Ni    Ni4+2 0.433410 0.064680 0.868830 0.220746
Ni2   Ni    Ni4+2 0.433410 0.935320 0.868830 0.203324
Ni3   Ni    Ni4+2 0.933410 0.564680 0.868830 0.220752
Ni4   Ni    Ni4+2 0.933410 0.435320 0.868830 0.203274
Ni5   Ni    Ni4+2 0.565650 0.934380 0.131170 0.186442
Ni6   Ni    Ni4+2 0.565650 0.065620 0.131170 0.195807
Ni7   Ni    Ni4+2 0.065650 0.434380 0.131170 0.186403
Ni8   Ni    Ni4+2 0.065650 0.565620 0.131170 0.195781
O1    O     O_3   0.361050 0.898786 0.487158 -0.679503
O2    O     O_3   0.525922 0.167234 0.806066 -0.695859
O3    O     O_3   0.056466 0.350454 0.805050 -0.714094
O4    O     O_3   0.025886 0.667261 0.806084 -0.695848
O5    O     O_3   0.350213 0.099189 0.483128 -0.677804
O6    O     O_3   0.860559 0.398851 0.486919 -0.679306
O7    O     O_3   0.850233 0.599231 0.483137 -0.677813
O8    O     O_3   0.777618 0.902625 0.345071 -0.694881
O9    O     O_3   0.768454 0.102262 0.329349 -0.689934
O10   O     O_3   0.277648 0.402630 0.345073 -0.694885
O11   O     O_3   0.268467 0.602257 0.329361 -0.689996
O12   O     O_3   0.556428 0.850603 0.804897 -0.714149

loop_
_geom_bond_atom_site_label_1
_geom_bond_atom_site_label_2
_ccdc_geom_bond_type
C118  H103  S    
N29   Ni6   S    
C99   C103  A    
C100  O5    S    
C22   H14   S    
C132  N11   A    
C20   H7    S    
C102  O7    S    
C29   H27   S    
N3    N4    A    
C9    H134  S    
C90   C95   A    
C115  H114  S    
C14   O7    S    
C44   C64   S    
C27   H22   S    
C4    O1    S    
C97   C124  S    
C5    C6    S    
C17   H151  S    
C119  H104  S    
C18   H152  S    
C101  O6    S    
C69   C123  A    
C76   C98   A    
N24   Ni1   S    
C87   C94   A    
C61   C63   S    
C20   H8    S    
C11   H137  S    
N14   Ni5   S    
C91   C96   A    
C109  C127  S    
N17   Ni8   S    
C28   H25   S    
C66   C122  A    
C61   H66   S    
N32   Ni6   S    
C81   C86   A    
C133  H110  S    
C44   C135  A    
C27   O11   S    
C93   N19   A    
C19   H5    S    
C21   C22   S    
C36   H43   S    
C105  C108  A    
C70   H68   S    
C33   O2    S    
C24   N26   A    
N21   N25   A    
C4    C5    S    
N9    Ni1   S    
C67   H90   S    
C99   O1    S    
C117  N5    A    
C16   H148  S    
N15   Ni6   S    
C37   C38   S    
C119  N7    A    
C89   H83   S    
C37   H45   S    
N5    Ni2   S    
C3    N17   A    
C36   H42   S    
C60   H76   S    
C95   C122  S    
C22   H12   S    
N3    Ni8   S    
C10   H135  S    
C73   C95   A    
N16   Ni7   S    
C47   C126  A    
C76   H74   S    
C25   H18   S    
C84   C88   A    
C8    H129  S    
N23   Ni3   S    
C32   H37   S    
C134  O8    S    
C54   H131  S    
C2    O2    S    
C68   N30   A    
C105  H94   S    
C69   N31   A    
C21   H10   S    
N12   N28   A    
C66   H89   S    
C51   C55   S    
C120  H105  S    
N18   Ni6   S    
C42   H59   S    
C117  C128  A    
C86   H80   S    
C20   C21   S    
C54   C63   S    
C34   H41   S    
C16   H149  S    
N12   Ni2   S    
C75   C97   A    
C99   C114  A    
N1    Ni1   S    
C7    C8    S    
C126  O12   S    
C96   C121  S    
C115  N21   A    
C76   C78   A    
C30   H31   S    
C18   C19   S    
C79   C84   A    
C43   C116  S    
C27   H23   S    
C37   H47   S    
C38   H48   S    
C43   C133  A    
C112  C127  A    
C46   C82   A    
C132  H108  S    
C57   H13   S    
C56   C64   S    
C131  N10   A    
C7    H127  S    
C53   H120  S    
C89   C91   A    
C90   H84   S    
C110  H97   S    
C94   H88   S    
C54   H118  S    
C26   H19   S    
C51   C62   S    
C67   C121  A    
C12   H139  S    
C92   C97   A    
C44   C134  A    
C49   H65   S    
C41   H55   S    
C120  C129  A    
C24   C48   A    
C74   C96   A    
C100  C114  A    
C120  N8    A    
C25   C26   S    
C60   C123  A    
C111  C125  A    
N5    N6    A    
N27   Ni4   S    
C75   C77   A    
C58   C65   S    
C31   C32   S    
C17   C18   S    
C73   C79   A    
C102  C107  A    
C6    H126  S    
C31   H32   S    
C33   H38   S    
C52   H116  S    
C35   C130  A    
C39   H52   S    
C47   C83   S    
C45   C65   S    
C69   H92   S    
C1    H1    S    
C101  C106  A    
C9    H133  S    
C40   C41   S    
N27   N30   A    
C133  N13   A    
C118  N6    A    
C66   N28   A    
C65   C72   S    
N19   N22   A    
C52   C62   S    
C20   O9    S    
C17   H150  S    
C53   C63   S    
C135  O9    S    
C88   H82   S    
C34   C36   S    
C32   H36   S    
C1    C121  A    
C126  N22   A    
C10   C11   S    
C13   C50   A    
N10   Ni2   S    
C112  N3    A    
C14   C15   S    
C24   O4    S    
C15   H146  S    
C74   C80   A    
C12   H141  S    
C106  C109  A    
C14   H143  S    
C103  H93   S    
C83   C87   A    
C23   H16   S    
C67   N29   A    
C58   H61   S    
C4    H121  S    
C41   C42   S    
C36   H44   S    
C52   H109  S    
C110  N32   A    
C28   C29   S    
C3    O11   S    
C30   C31   S    
C94   C98   A    
C59   H62   S    
C5    H123  S    
C106  H95   S    
C6    H124  S    
C50   C115  A    
N9    N10   A    
C29   H29   S    
C32   H34   S    
C50   C85   S    
C39   H50   S    
C78   C83   A    
C79   H78   S    
C40   H53   S    
C59   C62   S    
N8    Ni3   S    
N23   N31   A    
C111  H99   S    
N4    Ni7   S    
C82   N18   A    
C73   H71   S    
C10   H136  S    
C107  H96   S    
C93   H112  S    
C107  C109  A    
C29   H28   S    
C68   C124  A    
C53   H117  S    
C136  O10   S    
C78   H77   S    
C55   H35   S    
C80   H79   S    
C30   O12   S    
C25   H17   S    
C8    H130  S    
N7    N8    A    
C85   C89   A    
C31   H33   S    
C112  H100  S    
C3    C45   A    
C21   H9    S    
C11   H138  S    
C80   C85   A    
N20   Ni8   S    
N6    Ni1   S    
C77   C81   A    
N13   Ni4   S    
C10   O6    S    
C42   H60   S    
N2    Ni5   S    
N20   N26   A    
C61   C72   S    
C88   C90   A    
C117  H102  S    
C19   H6    S    
N25   Ni4   S    
N21   Ni7   S    
C35   C131  A    
C70   H67   S    
C75   H73   S    
C53   C57   S    
C104  H113  S    
C57   C65   S    
C135  N15   A    
C72   H70   S    
C136  N16   A    
C72   H69   S    
N22   Ni2   S    
C16   H147  S    
C37   O3    S    
C58   H24   S    
C38   C39   S    
N30   Ni7   S    
C63   C129  S    
C59   C70   S    
N26   Ni3   S    
C23   C25   S    
C22   H11   S    
C55   H142  S    
N1    N29   A    
C101  C116  A    
C86   C92   A    
N19   Ni5   S    
C17   O8    S    
C40   O4    S    
C130  H106  S    
N7    Ni4   S    
C26   H20   S    
C12   H140  S    
C60   N23   A    
C68   H91   S    
C28   H26   S    
C74   H72   S    
C2    C46   A    
C113  N4    A    
C100  C105  A    
C104  N20   A    
C111  N2    A    
C82   H111  S    
C26   H21   S    
C51   H98   S    
C43   C132  A    
C15   C16   S    
C48   C104  A    
C35   C114  S    
C42   H58   S    
C119  C129  A    
C59   H63   S    
C19   H4    S    
C103  C108  A    
C64   C70   S    
C108  C125  S    
C91   H85   S    
C51   H115  S    
C39   H51   S    
C113  H101  S    
C2    N24   A    
C118  C128  A    
C61   H64   S    
C47   C93   A    
C98   C123  S    
C9    H132  S    
C71   H87   S    
C130  N9    A    
C1    N1    A    
C71   C124  A    
C34   H40   S    
C30   H30   S    
C8    C9    S    
N18   N24   A    
C48   C84   S    
C57   H57   S    
C49   N12   A    
C23   O10   S    
C46   C81   S    
C56   H2    S    
C55   C64   S    
N2    N32   A    
C33   C34   S    
C7    H128  S    
N11   N13   A    
N16   N17   A    
C15   H145  S    
C13   N25   A    
C54   C58   S    
C14   H144  S    
C23   H15   S    
N14   N15   A    
C45   C136  A    
C41   H56   S    
C13   O3    S    
C11   C12   S    
C113  C127  A    
C38   H49   S    
C7    O5    S    
C92   H86   S    
C131  H107  S    
C62   C128  S    
C56   H46   S    
N28   Ni5   S    
C49   C122  A    
C5    H122  S    
C6    H125  S    
C87   H81   S    
C18   H3    S    
C33   H39   S    
C102  C116  A    
C77   H75   S    
C110  C125  A    
C40   H54   S    
N31   Ni8   S    
N11   Ni3   S    
C27   C28   S    
C134  N14   A    
C4    H119  S    
C52   C56   S    
C71   N27   A    
