data_mof_unit_6203.cif
_audit_creation_date              2012-12-11T14:40:04-0500
_audit_creation_method            fapswitch 2.2
_symmetry_space_group_name_H-M    P1
_symmetry_Int_Tables_number       1
_space_group_crystal_system       triclinic
_cell_length_a                    19.687539
_cell_length_b                    10.794928
_cell_length_c                    19.479849
_cell_angle_alpha                 89.977865
_cell_angle_beta                  97.509175
_cell_angle_gamma                 90.154044
_cell_volume                      4104.44653007

loop_
_atom_site_label
_atom_site_type_symbol
_atom_type_description
_atom_site_fract_x
_atom_site_fract_y
_atom_site_fract_z
_atom_type_partial_charge
C1    C     C_R   0.707567 0.000423 0.366506 0.535266
C2    C     C_R   0.292986 0.001823 0.633750 0.544434
C3    C     C_R   0.206577 0.503166 0.365798 0.559747
C4    C     C_R   0.792303 0.499647 0.633453 0.527432
C5    C     C_3   0.729858 0.334821 0.488060 -0.116957
C6    C     C_3   0.302067 0.418533 0.518505 -0.122339
C7    C     C_3   0.228301 0.844516 0.487232 -0.118748
C8    C     C_3   0.808671 0.895827 0.510871 -0.137860
C9    C     C_3   0.752222 0.414799 0.429875 0.059591
C10   C     C_3   0.248132 0.414887 0.568605 0.057200
C11   C     C_3   0.253163 0.920827 0.429005 0.057175
C12   C     C_3   0.757373 0.882475 0.563038 0.059155
C13   C     C_3   0.725727 0.531717 0.460885 -0.136805
C14   C     C_3   0.219789 0.541145 0.543988 -0.143253
C15   C     C_3   0.229338 0.040797 0.459717 -0.132887
C16   C     C_3   0.728420 0.012142 0.546164 -0.112266
C17   C     C_3   0.797974 0.550032 0.502297 -0.156416
C18   C     C_3   0.168417 0.474106 0.489073 -0.131591
C19   C     C_3   0.301778 0.054045 0.501902 -0.149678
C20   C     C_3   0.674692 0.953361 0.490456 -0.130527
C21   C     C_3   0.823955 0.431920 0.469782 -0.111814
C22   C     C_3   0.197142 0.347303 0.514425 -0.100967
C23   C     C_3   0.325007 0.933065 0.469642 -0.113505
C24   C     C_3   0.703912 0.823578 0.508378 -0.111384
C25   C     C_3   0.801852 0.352239 0.528640 -0.104888
C26   C     C_3   0.251055 0.352175 0.463975 -0.114071
C27   C     C_3   0.300394 0.856287 0.528328 -0.111993
C28   C     C_3   0.755127 0.837310 0.455494 -0.109128
C29   C     C_3   0.776030 0.469866 0.560414 0.052720
C30   C     C_3   0.222158 0.477575 0.439153 0.050519
C31   C     C_3   0.277408 0.976205 0.559872 0.051404
C32   C     C_3   0.725771 0.965933 0.438168 0.051055
C33   C     C_3   0.520222 0.275642 0.969641 -0.103205
C34   C     C_3   0.478304 0.274213 0.030835 -0.103775
C35   C     C_3   0.020146 0.775690 0.969663 -0.102918
C36   C     C_3   0.978228 0.774161 0.030857 -0.104388
C37   C     C_3   0.568363 0.174380 0.003733 -0.145085
C38   C     C_3   0.431054 0.171634 0.996303 -0.145863
C39   C     C_3   0.068327 0.674473 0.003738 -0.144307
C40   C     C_3   0.931019 0.671540 0.996306 -0.146850
C41   C     C_3   0.526444 0.173337 0.064369 0.055822
C42   C     C_3   0.472989 0.173432 0.935677 0.055834
C43   C     C_3   0.026409 0.673331 0.064373 0.057267
C44   C     C_3   0.972955 0.673437 0.935682 0.055896
C45   C     C_R   0.560605 0.183223 0.348588 0.534080
C46   C     C_R   0.440085 0.183065 0.651457 0.530683
C47   C     C_R   0.033816 0.679726 0.337177 0.545832
C48   C     C_R   0.936149 0.683475 0.651402 0.523940
C49   C     C_3   0.479474 0.070400 0.030967 -0.106486
C50   C     C_3   0.520859 0.071826 0.968683 -0.105856
C51   C     C_3   0.979480 0.570350 0.030957 -0.107046
C52   C     C_3   0.020865 0.571876 0.968673 -0.105598
C53   C     C_1   0.763239 0.424969 0.904311 -0.005085
C54   C     C_1   0.236768 0.424944 0.095699 -0.004653
C55   C     C_1   0.263237 0.924963 0.904309 -0.004931
C56   C     C_1   0.736772 0.924933 0.095702 -0.006167
C57   C     C_1   0.747520 0.408137 0.034599 -0.048502
C58   C     C_1   0.252568 0.408158 0.965422 -0.047990
C59   C     C_1   0.247517 0.908127 0.034596 -0.048161
C60   C     C_1   0.752572 0.908146 0.965424 -0.048222
C61   C     C_1   0.754554 0.415098 0.963922 -0.047391
C62   C     C_1   0.245486 0.415098 0.036097 -0.047182
C63   C     C_1   0.254551 0.915089 0.963919 -0.047396
C64   C     C_1   0.745491 0.915085 0.036100 -0.047298
C65   C     C_1   0.742465 0.395150 0.094918 -0.006203
C66   C     C_1   0.257630 0.395209 0.905103 -0.005356
C67   C     C_1   0.242463 0.895142 0.094915 -0.004790
C68   C     C_1   0.757632 0.895203 0.905103 -0.007455
C69   C     C_R   0.740428 0.367166 0.360255 0.534296
C70   C     C_R   0.260179 0.365357 0.638496 0.539402
C71   C     C_R   0.240711 0.868589 0.359895 0.538822
C72   C     C_R   0.771049 0.825509 0.630697 0.515873
C73   C     C_R   0.721749 0.952342 0.163660 0.547627
C74   C     C_R   0.278265 0.952428 0.836346 0.549146
C75   C     C_R   0.221747 0.452347 0.163657 0.548823
C76   C     C_R   0.778266 0.452430 0.836346 0.550888
C77   C     C_R   0.558173 0.181930 0.135248 0.560864
C78   C     C_R   0.441520 0.181839 0.864696 0.560340
C79   C     C_R   0.058155 0.681927 0.135244 0.557832
C80   C     C_R   0.941503 0.681841 0.864693 0.560281
C81   C     C_R   0.735780 0.360603 0.164305 0.540206
C82   C     C_R   0.264247 0.360729 0.835700 0.543648
C83   C     C_R   0.235779 0.860599 0.164303 0.540306
C84   C     C_R   0.764246 0.860734 0.835697 0.552029
C85   C     C_1   0.467391 0.175182 0.587419 -0.015645
C86   C     C_1   0.534104 0.175330 0.413063 -0.019475
C87   C     C_1   0.956026 0.675488 0.583517 -0.026111
C88   C     C_1   0.005090 0.671482 0.400728 -0.020180
C89   C     C_1   0.513004 0.171940 0.468064 -0.056814
C90   C     C_1   0.488801 0.171825 0.532582 -0.052596
C91   C     C_1   0.987188 0.669117 0.457415 -0.058944
C92   C     C_1   0.970393 0.670903 0.525421 -0.060069
C93   C     C_3   0.703986 0.452705 0.520609 -0.103187
C94   C     C_3   0.273505 0.545376 0.492211 -0.128021
C95   C     C_3   0.205272 0.964763 0.519367 -0.102188
C96   C     C_3   0.779395 0.025974 0.492225 -0.124202
Cr1   Cr    Cr6+3 0.765830 0.160660 0.268180 1.018936
Cr2   Cr    Cr6+3 0.234170 0.160660 0.731820 1.022640
Cr3   Cr    Cr6+3 0.265830 0.660660 0.268180 1.026283
Cr4   Cr    Cr6+3 0.734170 0.660660 0.731820 1.022392
Cr5   Cr    Cr6+3 0.612110 0.009150 0.248770 1.023974
Cr6   Cr    Cr6+3 0.387890 0.009150 0.751230 1.027852
Cr7   Cr    Cr6+3 0.112110 0.509150 0.248770 1.020631
Cr8   Cr    Cr6+3 0.887890 0.509150 0.751230 1.025366
Cr9   Cr    Cr6+3 0.615930 0.324050 0.248450 1.021489
Cr10  Cr    Cr6+3 0.384070 0.324050 0.751550 1.021524
Cr11  Cr    Cr6+3 0.115930 0.824050 0.248450 1.022587
Cr12  Cr    Cr6+3 0.884070 0.824050 0.751550 1.023305
H1    H     H_    0.655146 0.461129 0.542963 0.131963
H2    H     H_    0.305894 0.622876 0.478188 0.130718
H3    H     H_    0.156373 0.977557 0.541103 0.131858
H4    H     H_    0.810650 0.107691 0.481945 0.126445
H5    H     H_    0.693036 0.599324 0.429097 0.118850
H6    H     H_    0.207837 0.617095 0.578857 0.123578
H7    H     H_    0.197702 0.110749 0.428663 0.118608
H8    H     H_    0.718354 0.082600 0.585061 0.131980
H9    H     H_    0.332638 0.140007 0.510269 0.095076
H10   H     H_    0.619498 0.976883 0.480471 0.117714
H11   H     H_    0.826862 0.637652 0.510849 0.091918
H12   H     H_    0.113428 0.497024 0.475186 0.121723
H13   H     H_    0.833209 0.279418 0.557774 0.131996
H14   H     H_    0.265360 0.281129 0.427498 0.126618
H15   H     H_    0.329866 0.781837 0.558026 0.133480
H16   H     H_    0.766502 0.769978 0.415535 0.131059
H17   H     H_    0.625208 0.175460 0.008717 0.112203
H18   H     H_    0.374208 0.170493 0.991299 0.111717
H19   H     H_    0.125172 0.675628 0.008722 0.111811
H20   H     H_    0.874173 0.670324 0.991301 0.111132
O1    O     O_R   0.783230 0.287800 0.346510 -0.526671
O2    O     O_R   0.216770 0.287800 0.653490 -0.523660
O3    O     O_R   0.283230 0.787800 0.346510 -0.527247
O4    O     O_R   0.716770 0.787800 0.653490 -0.509153
O5    O     O_R   0.554500 0.081650 0.170370 -0.492409
O6    O     O_R   0.445500 0.081650 0.829630 -0.491857
O7    O     O_R   0.054500 0.581650 0.170370 -0.499352
O8    O     O_R   0.945500 0.581650 0.829630 -0.491195
O9    O     O_R   0.545430 0.285140 0.163100 -0.508493
O10   O     O_R   0.454570 0.285140 0.836900 -0.508211
O11   O     O_R   0.045430 0.785140 0.163100 -0.514660
O12   O     O_R   0.954570 0.785140 0.836900 -0.508289
O13   O     O_R   0.677850 0.374730 0.185500 -0.507457
O14   O     O_R   0.322150 0.374730 0.814500 -0.506846
O15   O     O_R   0.177850 0.874730 0.185500 -0.507929
O16   O     O_R   0.822150 0.874730 0.814500 -0.502353
O17   O     O_3   0.664630 0.164620 0.255130 -0.304926
O18   O     O_3   0.335370 0.164620 0.744870 -0.307138
O19   O     O_3   0.164630 0.664620 0.255130 -0.292819
O20   O     O_3   0.835370 0.664620 0.744870 -0.321002
O21   O     O_R   0.760130 0.037060 0.338610 -0.492403
O22   O     O_R   0.239870 0.037060 0.661390 -0.497867
O23   O     O_R   0.260130 0.537060 0.338610 -0.494542
O24   O     O_R   0.739870 0.537060 0.661390 -0.505660
O25   O     O_R   0.666620 0.921370 0.332440 -0.514977
O26   O     O_R   0.333380 0.921370 0.667560 -0.516492
O27   O     O_R   0.166620 0.421370 0.332440 -0.513370
O28   O     O_R   0.833380 0.421370 0.667560 -0.512182
O29   O     O_R   0.557170 0.082420 0.312350 -0.497119
O30   O     O_R   0.442830 0.082420 0.687650 -0.491509
O31   O     O_R   0.057170 0.582420 0.312350 -0.511289
O32   O     O_R   0.942830 0.582420 0.687650 -0.488458
O33   O     O_R   0.548310 0.285980 0.316250 -0.487397
O34   O     O_R   0.451690 0.285980 0.683750 -0.492756
O35   O     O_R   0.048310 0.785980 0.316250 -0.498674
O36   O     O_R   0.951690 0.785980 0.683750 -0.492759
O37   O     O_R   0.680520 0.375500 0.327470 -0.514364
O38   O     O_R   0.319480 0.375500 0.672530 -0.515350
O39   O     O_R   0.180520 0.875500 0.327470 -0.500520
O40   O     O_R   0.819480 0.875500 0.672530 -0.505215
O41   O     O_R   0.780350 0.286970 0.193350 -0.503956
O42   O     O_R   0.219650 0.286970 0.806650 -0.501515
O43   O     O_R   0.280350 0.786970 0.193350 -0.503861
O44   O     O_R   0.719650 0.786970 0.806650 -0.497261
O45   O     O_R   0.757460 0.036290 0.196640 -0.488486
O46   O     O_R   0.242540 0.036290 0.803360 -0.488073
O47   O     O_R   0.257460 0.536290 0.196640 -0.489030
O48   O     O_R   0.742540 0.536290 0.803360 -0.487848
O49   O     O_R   0.663740 0.920540 0.179290 -0.509702
O50   O     O_R   0.336260 0.920540 0.820710 -0.509316
O51   O     O_R   0.163740 0.420540 0.179290 -0.510049
O52   O     O_R   0.836260 0.420540 0.820710 -0.507792
H21   H     H_    0.700091 0.247530 0.479705 0.093448
H22   H     H_    0.357071 0.395245 0.532179 0.120184
H23   H     H_    0.195286 0.761380 0.477981 0.107356
H24   H     H_    0.863865 0.872207 0.520878 0.116491
H25   H     H_    0.872784 0.423966 0.447342 0.130258
H26   H     H_    0.165626 0.265034 0.523765 0.132958
H27   H     H_    0.373898 0.920453 0.447849 0.132154
H28   H     H_    0.672264 0.741433 0.517341 0.127339
H29   H     H_    0.537099 0.360211 0.944068 0.144488
H30   H     H_    0.460693 0.357552 0.056800 0.144248
H31   H     H_    0.036991 0.860302 0.944106 0.144426
H32   H     H_    0.960585 0.857454 0.056839 0.143435
H33   H     H_    0.463535 0.986654 0.057912 0.136148
H34   H     H_    0.537554 0.989241 0.941419 0.136652
H35   H     H_    0.963575 0.486567 0.057892 0.135247
H36   H     H_    0.037594 0.489332 0.941398 0.136430

loop_
_geom_bond_atom_site_label_1
_geom_bond_atom_site_label_2
_ccdc_geom_bond_type
C58   C62   S    
C79   O11   A    
C82   O42   A    
C67   C83   S    
Cr4   O44   S    
C17   C29   S    
C14   C18   S    
C7    C27   S    
C19   C23   S    
C35   C36   S    
C8    C96   S    
C82   O14   A    
C44   C80   S    
C19   C31   S    
Cr6   O30   S    
C20   H10   S    
C8    H24   S    
Cr7   O19   S    
C38   C49   S    
C47   O31   A    
C10   C22   S    
C15   C19   S    
Cr12  O36   S    
C69   O37   A    
Cr5   O17   S    
C77   O5    A    
C2    O22   A    
C6    H22   S    
C33   C42   S    
Cr10  O38   S    
C77   O9    A    
C74   O46   A    
C70   O38   A    
C15   C95   S    
Cr2   O46   S    
C11   C71   S    
Cr10  O10   S    
Cr3   O43   S    
C84   O16   A    
C43   C79   S    
C46   O30   A    
C16   H8    S    
C70   O2    A    
Cr1   O41   S    
C33   H29   S    
C95   H3    S    
C5    H21   S    
C57   C61   S    
C45   O33   A    
C36   C40   S    
C9    C13   S    
C59   C67   T    
C43   C51   S    
C55   C74   S    
C11   C15   S    
C58   C66   T    
C20   C24   S    
C6    C94   S    
C55   C63   T    
Cr4   O48   S    
C35   H31   S    
C56   C64   T    
C1    O21   A    
C18   C30   S    
C81   O41   A    
C75   O51   A    
Cr6   O26   S    
C4    C29   S    
C8    C12   S    
C46   C85   S    
C47   O35   A    
C44   C52   S    
C81   O13   A    
C39   C52   S    
Cr12  O40   S    
Cr5   O29   S    
C2    O26   A    
C36   H32   S    
C87   C92   T    
Cr11  O11   S    
C72   O40   A    
C34   C41   S    
C53   C61   T    
Cr8   O32   S    
C78   O10   A    
C41   C49   S    
C38   H18   S    
C60   C64   S    
C72   O4    A    
C37   H17   S    
C25   C29   S    
C4    O24   A    
Cr11  O39   S    
C16   C96   S    
C56   C73   S    
C39   H19   S    
C27   C31   S    
C51   C52   S    
C68   C84   S    
C12   C16   S    
C28   C32   S    
C76   O48   A    
C45   O29   A    
Cr9   O33   S    
C10   C14   S    
C57   C65   T    
C91   C92   S    
Cr12  O12   S    
C29   C93   S    
C39   C43   S    
Cr2   O18   S    
C76   O52   A    
Cr5   O25   S    
C14   H6    S    
Cr3   O23   S    
C94   H2    S    
C1    C32   S    
C33   C37   S    
C83   O43   A    
C2    C31   S    
C22   H26   S    
C3    C30   S    
C35   C39   S    
C17   C21   S    
Cr6   O6    S    
C5    C9    S    
C66   C82   S    
Cr11  O19   S    
C73   O45   A    
C7    C11   S    
C74   O50   A    
C88   C91   T    
C34   H30   S    
C16   C20   S    
Cr9   O17   S    
Cr5   O5    S    
Cr2   O2    S    
C3    O27   A    
C33   C34   S    
C36   C43   S    
C48   C87   S    
Cr4   O24   S    
Cr8   O28   S    
C1    O25   A    
C35   C44   S    
C78   O6    A    
C60   C68   T    
C42   C50   S    
C5    C25   S    
C10   C70   S    
Cr7   O27   S    
C32   C96   S    
Cr11  O35   S    
C26   C30   S    
Cr2   O22   S    
C23   C27   S    
C46   O34   A    
Cr6   O50   S    
C15   H7    S    
C59   C63   S    
C53   C76   S    
Cr11  O15   S    
C9    C21   S    
C18   H12   S    
Cr12  O16   S    
C79   O7    A    
C42   C78   S    
C20   C32   S    
C75   O47   A    
C21   C25   S    
Cr10  O14   S    
C27   H15   S    
Cr3   O19   S    
Cr8   O8    S    
C4    O28   A    
C34   C38   S    
Cr1   O17   S    
Cr8   O52   S    
C24   C28   S    
C9    C69   S    
C52   H36   S    
C84   O44   A    
C86   C89   T    
Cr10  O18   S    
C6    C10   S    
C5    C93   S    
C85   C90   T    
C28   H16   S    
C21   H25   S    
C48   O36   A    
Cr3   O3    S    
C40   C51   S    
C7    C95   S    
C12   C24   S    
C3    O23   A    
C80   O8    A    
C23   H27   S    
C13   C17   S    
C24   H28   S    
C47   C88   S    
C48   O32   A    
Cr9   O9    S    
C18   C22   S    
C45   C86   S    
C73   O49   A    
Cr8   O20   S    
C30   C94   S    
C80   O12   A    
Cr4   O4    S    
Cr6   O18   S    
C41   C77   S    
C37   C50   S    
C50   H34   S    
Cr7   O31   S    
C6    C26   S    
C49   H33   S    
Cr4   O20   S    
C8    C28   S    
C71   O39   A    
C11   C23   S    
C96   H4    S    
Cr9   O37   S    
Cr7   O51   S    
C7    H23   S    
Cr10  O34   S    
C37   C41   S    
C12   C72   S    
Cr9   O13   S    
Cr7   O7    S    
Cr1   O45   S    
Cr5   O49   S    
C31   C95   S    
C17   H11   S    
Cr1   O1    S    
C54   C75   S    
Cr2   O42   S    
C38   C42   S    
C40   C44   S    
Cr3   O47   S    
C19   H9    S    
C71   O3    A    
C69   O1    A    
C49   C50   S    
C22   C26   S    
C13   C93   S    
Cr1   O21   S    
C65   C81   S    
C54   C62   T    
C83   O15   A    
C51   H35   S    
C26   H14   S    
C89   C90   S    
C25   H13   S    
C14   C94   S    
C13   H5    S    
C93   H1    S    
Cr12  O20   S    
C40   H20   S    
