data_mof_unit_32403.cif
_audit_creation_date              2013-03-05T16:04:40-0500
_audit_creation_method            fapswitch 2.2
_symmetry_space_group_name_H-M    P1
_symmetry_Int_Tables_number       1
_space_group_crystal_system       triclinic
_cell_length_a                    6.935681
_cell_length_b                    23.099342
_cell_length_c                    23.622847
_cell_angle_alpha                 112.58935
_cell_angle_beta                  90.595119
_cell_angle_gamma                 90.403148
_cell_volume                      3493.8218048

loop_
_atom_site_label
_atom_site_type_symbol
_atom_site_description
_atom_site_fract_x
_atom_site_fract_y
_atom_site_fract_z
_atom_type_partial_charge
O1    O     O_R   0.505740 0.453370 0.547760 -0.574873
O2    O     O_R   0.169520 0.427650 0.423350 -0.585760
O3    O     O_R   0.005620 0.546630 0.452240 -0.590184
C1    C     C_R   0.336049 0.409840 0.398380 0.945233
O4    O     O_R   0.175610 0.445960 0.545510 -0.602820
O5    O     O_R   0.011740 0.565080 0.575280 -0.580722
C2    C     C_R   0.345042 0.433849 0.562287 1.020681
O6    O     O_R   0.499610 0.434920 0.424720 -0.585841
O7    O     O_3   0.341310 0.539060 0.509620 -0.266782
V1    V     V_3+5 0.063960 0.492750 0.498220 1.209622
O8    O     O_R   0.682400 0.572350 0.576650 -0.580893
C3    C     C_R   0.850827 0.589566 0.601715 1.011426
O9    O     O_R   0.676320 0.554040 0.454490 -0.591686
C4    C     C_R   0.844930 0.566442 0.438339 0.932432
V2    V     V_3+5 0.564740 0.507250 0.501780 1.226060
O10   O     O_3   0.837250 0.460940 0.490380 -0.272883
C5    C     C_R   0.831283 0.915406 0.153739 0.379752
C6    C     C_R   0.830129 0.880684 0.191153 -0.227727
H1    H     H_    0.739176 0.896391 0.231060 0.156132
C7    C     C_R   0.944422 0.826993 0.177770 0.089414
C8    C     C_R   0.066444 0.810229 0.126772 -0.127101
H2    H     H_    0.154952 0.768903 0.114105 0.125927
C9    C     C_R   0.073494 0.845919 0.090423 -0.143022
H3    H     H_    0.169309 0.831773 0.051635 0.141424
C10   C     C_R   0.954713 0.898233 0.102760 -0.293698
C11   C     C_R   0.096375 0.756211 0.225096 -0.276056
H4    H     H_    0.232233 0.759733 0.204451 0.155139
C12   C     C_R   0.088307 0.720849 0.262185 0.364121
C13   C     C_R   0.914146 0.717811 0.291992 -0.056837
C14   C     C_R   0.754620 0.751275 0.284312 -0.102167
H5    H     H_    0.620440 0.750217 0.306755 0.195422
C15   C     C_R   0.763355 0.785275 0.246669 -0.139842
H6    H     H_    0.633645 0.808091 0.240550 0.129197
C16   C     C_R   0.934664 0.788815 0.216744 0.088969
C17   C     C_R   0.806579 0.704087 0.387608 -0.098318
H7    H     H_    0.757637 0.752142 0.405342 0.154605
C18   C     C_R   0.787748 0.668791 0.424207 0.545765
C19   C     C_R   0.855788 0.606176 0.402058 -0.297237
C20   C     C_R   0.938952 0.581006 0.343814 -0.185005
H8    H     H_    0.990560 0.533267 0.325942 0.133437
C21   C     C_R   0.954391 0.616547 0.307666 -0.006290
H9    H     H_    0.016025 0.595302 0.262490 0.135888
C22   C     C_R   0.892423 0.678965 0.329647 0.067475
C23   C     C_R   0.852581 0.642742 0.662818 -0.294894
C24   C     C_R   0.955559 0.854788 0.839245 -0.140024
C25   C     C_R   0.126352 0.791438 0.746192 -0.158402
C26   C     C_R   0.113687 0.845405 0.799806 -0.139575
C27   C     C_R   0.808489 0.808944 0.823458 -0.231897
C28   C     C_R   0.822753 0.753683 0.770113 0.153820
C29   C     C_R   0.982643 0.744838 0.731103 0.203358
C30   C     C_R   0.996005 0.689807 0.677659 -0.224088
C31   C     C_R   0.697577 0.650479 0.704085 0.379655
C32   C     C_R   0.682368 0.706320 0.756214 -0.324649
H10   H     H_    0.115111 0.684409 0.646732 0.161123
H11   H     H_    0.250383 0.785718 0.717080 0.137003
H12   H     H_    0.562687 0.712020 0.786985 0.174921
H13   H     H_    0.229475 0.879863 0.810812 0.140019
H14   H     H_    0.687553 0.815033 0.853855 0.135659
C33   C     C_R   0.335647 0.355012 0.337877 -0.320460
C34   C     C_R   0.472052 0.147354 0.159729 -0.156225
C35   C     C_R   0.645516 0.218257 0.251147 -0.160479
C36   C     C_R   0.638680 0.163785 0.197492 -0.092776
C37   C     C_R   0.311327 0.186958 0.177270 -0.229059
C38   C     C_R   0.319104 0.242691 0.230563 0.120759
C39   C     C_R   0.487120 0.258491 0.267942 0.194989
C40   C     C_R   0.493856 0.314018 0.321429 -0.251207
C41   C     C_R   0.171436 0.340180 0.297679 0.544233
C42   C     C_R   0.163100 0.283699 0.246108 -0.272690
H15   H     H_    0.621001 0.324637 0.350897 0.179251
H16   H     H_    0.775923 0.229299 0.279103 0.140512
H17   H     H_    0.035287 0.272882 0.216915 0.152636
H18   H     H_    0.764890 0.134388 0.185467 0.156240
H19   H     H_    0.182610 0.175541 0.148477 0.132403
C43   C     C_R   0.273594 0.113719 0.875242 -0.151376
H20   H     H_    0.142058 0.094109 0.885168 0.132988
C44   C     C_R   0.261763 0.148133 0.837791 -0.090104
H21   H     H_    0.122201 0.154517 0.820132 0.116537
C45   C     C_R   0.428400 0.173932 0.823009 0.206564
C46   C     C_R   0.606917 0.165609 0.847399 -0.096592
H22   H     H_    0.737388 0.185199 0.836743 0.119105
C47   C     C_R   0.619183 0.130851 0.884660 -0.167757
H23   H     H_    0.759317 0.124712 0.902083 0.128858
C48   C     C_R   0.452632 0.104188 0.898922 -0.127914
C49   C     C_R   0.333070 0.182667 0.722347 0.279836
C50   C     C_R   0.319320 0.218568 0.685508 0.489841
C51   C     C_R   0.389512 0.281494 0.708644 -0.054066
C52   C     C_R   0.468316 0.307369 0.768124 -0.097536
H24   H     H_    0.521673 0.355326 0.786423 0.147677
C53   C     C_R   0.482955 0.271706 0.804099 -0.205362
H25   H     H_    0.545117 0.293112 0.849816 0.145785
C54   C     C_R   0.415968 0.209438 0.782102 -0.151880
C55   C     C_R   0.217552 0.354215 0.671266 -0.100938
H26   H     H_    0.096236 0.352054 0.698923 0.171739
C56   C     C_R   0.202474 0.390056 0.635290 -0.068578
H27   H     H_    0.070285 0.415103 0.636282 0.145526
C57   C     C_R   0.357364 0.394400 0.599348 -0.176079
C58   C     C_R   0.526664 0.361266 0.599493 -0.244777
H28   H     H_    0.646632 0.364192 0.571687 0.176255
C59   C     C_R   0.543279 0.323825 0.634454 0.374856
C60   C     C_R   0.386017 0.320838 0.671402 -0.084103
O11   O     O_R   0.309730 0.065160 0.075230 -0.587256
O12   O     O_R   0.633800 0.053970 0.954410 -0.602142
O13   O     O_R   0.797580 0.934860 0.924760 -0.593492
C61   C     C_R   0.464428 0.065929 0.937357 0.915855
O14   O     O_R   0.639820 0.072410 0.076610 -0.597390
O15   O     O_R   0.803650 0.953440 0.047830 -0.559514
C62   C     C_R   0.472823 0.091205 0.100735 1.011395
O16   O     O_R   0.303670 0.046590 0.952160 -0.603851
O17   O     O_3   0.468000 0.960960 0.990410 -0.254109
V3    V     V_3+5 0.745380 0.007240 0.001780 1.186408
O18   O     O_R   0.132940 0.946010 0.045600 -0.569470
C63   C     C_R   0.964519 0.935131 0.063398 0.978013
O19   O     O_R   0.126920 0.927560 0.923400 -0.603528
C64   C     C_R   0.958144 0.909421 0.899004 0.930497
V4    V     V_3+5 0.244590 0.992720 0.998240 1.193570
O20   O     O_3   0.972110 0.039040 0.009600 -0.289551
N1    N     N_R   0.710926 0.969276 0.169591 0.220033
O21   O     O_R   0.548994 0.965278 0.139970 -0.395961
O22   O     O_R   0.740021 0.016349 0.221434 -0.392024
O23   O     O_3   0.707748 0.698196 0.481385 -0.732122
H29   H     H_    0.722111 0.671741 0.505552 0.300863
N2    N     N_R   0.557951 0.601253 0.694897 0.237501
O24   O     O_R   0.613837 0.543542 0.678943 -0.417862
O25   O     O_R   0.379903 0.614877 0.711146 -0.413141
O26   O     O_3   0.017118 0.379844 0.306310 -0.753694
H30   H     H_    0.065904 0.423576 0.325341 0.306459
N3    N     N_R   0.268639 0.118302 0.697792 0.255282
O27   O     O_R   0.376535 0.074712 0.703025 -0.350284
O28   O     O_R   0.106104 0.102537 0.667469 -0.284516
O29   O     O_3   0.242788 0.189662 0.626873 -0.644814
H31   H     H_    0.239280 0.219337 0.605899 0.349329
N4    N     N_R   0.717708 0.288634 0.630289 0.234411
O30   O     O_R   0.769378 0.269711 0.673371 -0.397042
O31   O     O_R   0.831791 0.277527 0.583968 -0.393646
N5    N     N_R   0.259740 0.690305 0.270518 0.211845
O32   O     O_R   0.308857 0.692447 0.324622 -0.421295
O33   O     O_R   0.376818 0.665230 0.225096 -0.425793

loop_
_geom_bond_atom_site_label_1
_geom_bond_atom_site_label_2
_geom_bond_distance
_ccdc_geom_bond_type
C35   H16   1.083600 S    
O11   C62   1.304716 A    
C52   H24   1.083516 S    
C12   N5    1.436632 S    
C21   H9    1.082827 S    
C17   H7    1.083470 S    
C43   C48   1.409739 A    
C1    O6    1.307224 A    
C58   H28   1.083058 S    
N5    O32   1.301584 A    
C20   C21   1.397832 A    
O15   C63   1.294832 A    
C50   C51   1.422220 A    
O23   H29   0.988395 S    
C2    C57   1.488832 S    
O14   C62   1.298269 A    
C11   H4    1.082250 S    
C18   C19   1.421889 A    
C43   C44   1.400372 A    
C59   N4    1.445309 S    
C34   C37   1.408537 A    
C38   C42   1.399387 A    
O16   V4    1.985945 S    
C8    H2    1.081785 S    
C12   C13   1.419245 A    
C17   C18   1.404177 A    
O14   V3    1.981161 S    
C44   C45   1.404058 A    
C41   O26   1.378907 S    
C33   C40   1.411564 A    
O5    C3    1.306681 A    
C14   H5    1.080563 S    
C32   H12   1.084096 S    
C40   H15   1.084162 S    
C4    C19   1.478940 S    
V2    O10   2.146349 S    
C33   C41   1.427708 A    
C34   C36   1.409878 A    
C6    H1    1.082168 S    
C10   C63   1.484926 S    
C47   C48   1.408786 A    
O8    V2    1.991194 S    
C24   C64   1.488706 S    
C11   C16   1.409074 A    
O18   C63   1.300635 A    
N4    O30   1.300633 A    
C25   H11   1.083735 S    
C9    H3    1.083357 S    
O1    V2    1.984150 S    
C49   C54   1.418830 A    
C53   C54   1.402172 A    
C17   C22   1.406175 A    
O7    V1    2.157798 S    
C5    N1    1.431293 S    
C56   C57   1.402819 A    
C7    C16   1.501389 S    
C23   C31   1.424305 A    
C49   N3    1.438549 S    
O1    C2    1.297331 A    
O9    C4    1.297587 A    
C13   C22   1.494386 S    
C21   C22   1.404047 A    
C35   C36   1.401666 A    
C31   N2    1.438198 S    
C58   C59   1.411218 A    
C47   H23   1.082866 S    
C24   C26   1.409683 A    
C8    C9    1.401253 A    
C48   C61   1.492655 S    
C41   C42   1.402160 A    
O13   C64   1.305471 A    
C44   H21   1.083323 S    
C43   H20   1.082900 S    
C20   H8    1.083236 S    
O4    C2    1.302448 A    
C45   C46   1.405547 A    
C37   H19   1.084176 S    
C46   H22   1.083271 S    
C15   C16   1.406610 A    
O2    C1    1.298310 A    
N3    O28   1.301364 A    
C13   C14   1.403647 A    
C50   O29   1.383983 S    
C26   H13   1.083396 S    
C59   C60   1.421689 A    
C57   C58   1.406817 A    
C55   C56   1.399471 A    
C29   C30   1.410509 A    
C36   H18   1.083220 S    
C49   C50   1.416999 A    
O12   C61   1.303366 A    
O3    C4    1.293993 A    
C34   C62   1.495319 S    
C23   C30   1.406805 A    
C27   C28   1.412727 A    
C28   C29   1.414394 A    
O6    V2    1.986210 S    
O9    V2    1.987164 S    
O26   H30   0.990055 S    
O11   V4    1.986489 S    
O12   V3    1.984438 S    
N2    O25   1.301465 A    
N3    O27   1.301322 A    
O2    V1    1.981050 S    
V3    O20   1.708803 S    
C61   O16   1.298497 A    
C51   C60   1.488178 S    
C31   C32   1.405602 A    
C55   C60   1.405041 A    
C46   C47   1.403188 A    
O19   C64   1.292869 A    
O15   V3    1.981832 S    
C24   C27   1.405158 A    
N5    O33   1.301324 A    
C25   C26   1.398810 A    
C51   C52   1.401614 A    
O13   V3    1.980399 S    
O5    V1    1.980424 S    
O8    C3    1.292872 A    
C27   H14   1.084213 S    
C45   C54   1.490664 S    
C25   C29   1.400700 A    
C11   C12   1.410028 A    
C5    C6    1.403263 A    
C30   H10   1.084305 S    
C5    C10   1.414104 A    
C15   H6    1.081893 S    
N1    O22   1.300633 A    
O29   H31   0.988372 S    
O7    V2    1.700893 S    
O4    V1    1.984233 S    
C3    C23   1.493238 S    
O3    V1    1.982178 S    
V1    O10   1.708732 S    
N1    O21   1.300792 A    
C38   C39   1.412750 A    
C14   C15   1.395795 A    
C19   C20   1.403734 A    
C18   O23   1.381906 S    
C42   H17   1.084275 S    
C28   C32   1.398276 A    
C1    C33   1.501983 S    
C55   H26   1.083140 S    
C6    C7    1.408656 A    
C9    C10   1.404401 A    
C56   H27   1.083202 S    
O17   V4    1.700319 S    
C37   C38   1.413401 A    
C35   C39   1.402930 A    
C7    C8    1.408885 A    
N4    O31   1.301697 A    
C39   C40   1.413051 A    
N2    O24   1.301428 A    
C52   C53   1.395835 A    
O18   V4    1.987234 S    
C53   H25   1.083420 S    
O17   V3    2.157729 S    
V4    O20   2.146324 S    
O19   V4    1.991371 S    
