data_mof_unit_57931.cif
_audit_creation_date              2012-12-11T14:08:08-0500
_audit_creation_method            fapswitch 2.2
_symmetry_space_group_name_H-M    P1
_symmetry_Int_Tables_number       1
_space_group_crystal_system       triclinic
_cell_length_a                    11.279067
_cell_length_b                    10.964738
_cell_length_c                    18.76411
_cell_angle_alpha                 88.702136
_cell_angle_beta                  89.232447
_cell_angle_gamma                 60.829243
_cell_volume                      2025.74920401

loop_
_atom_site_label
_atom_site_type_symbol
_atom_type_description
_atom_site_fract_x
_atom_site_fract_y
_atom_site_fract_z
_atom_type_partial_charge
C1    C     C_R   0.251007 0.636435 0.611467 0.586177
C2    C     C_3   0.714466 0.497685 0.814631 -0.284174
C3    C     C_3   0.689651 0.650791 0.819219 -0.027167
C4    C     C_3   0.648999 0.600442 0.686668 -0.040625
C5    C     C_3   0.728796 0.679468 0.687883 -0.169681
C6    C     C_3   0.722890 0.457973 0.733376 -0.080477
C7    C     C_2   0.668881 0.144994 0.667685 0.277353
C8    C     C_2   0.688332 0.178989 0.830930 -0.057313
C9    C     C_2   0.789399 0.115350 0.783387 -0.017380
C10   C     C_2   0.773260 0.136952 0.705007 -0.110631
C11   C     C_2   0.258957 0.619635 0.688138 -0.090892
C12   C     C_R   0.627675 0.581828 0.609354 0.534722
C13   C     C_2   0.209789 0.665355 0.845235 0.028212
C14   C     C_2   0.252451 0.536939 0.813213 0.174924
C15   C     C_2   0.243334 0.527800 0.731459 0.273174
C16   C     C_2   0.668366 0.700203 0.338051 -0.056512
C17   C     C_2   0.693522 0.694137 0.175764 0.270341
C18   C     C_2   0.777222 0.689855 0.226991 -0.104344
C19   C     C_2   0.778360 0.635533 0.298067 -0.058963
C20   C     C_2   0.613601 0.243992 0.315365 -0.073766
C21   C     C_2   0.633156 0.196557 0.162890 0.016170
C22   C     C_2   0.540787 0.189841 0.205698 -0.048654
C23   C     C_R   0.627554 0.224257 0.600125 0.533203
C24   C     C_2   0.516998 0.239622 0.277445 -0.128649
C25   C     C_2   0.288102 0.620909 0.318398 -0.113622
C26   C     C_2   0.099983 0.683876 0.192083 0.230212
C27   C     C_2   0.106513 0.775978 0.236351 0.228601
C28   C     C_2   0.216335 0.744081 0.285958 -0.023976
C29   C     C_R   0.700608 0.109916 0.900616 0.610615
C30   C     C_R   0.720115 0.682241 0.891668 0.596040
C31   C     C_R   0.126690 0.703337 0.911428 0.645147
C32   C     C_R   0.673800 0.111430 0.100743 0.561020
C33   C     C_R   0.728462 0.714665 0.104402 0.528714
C34   C     C_R   0.299656 0.617574 0.394967 0.541671
C35   C     C_R   0.045880 0.733453 0.121106 0.552241
C36   C     C_R   0.644020 0.629329 0.397497 0.546993
C37   C     C_R   0.586284 0.285978 0.388099 0.514559
C38   C     C_3   0.540575 0.744814 0.798011 -0.237873
C39   C     C_3   0.513831 0.693434 0.726977 -0.282340
C40   C     C_3   0.786592 0.661604 0.762008 0.145744
Cr1   Cr    Cr6+3 0.393010 0.398050 0.501480 1.143781
Cr2   Cr    Cr6+3 0.398820 0.707980 0.501630 1.046257
Cr3   Cr    Cr6+3 0.708140 0.393940 0.496850 1.073972
Cr4   Cr    Cr6+3 0.937950 0.938450 0.008940 1.145277
Cr5   Cr    Cr6+3 0.626180 0.937030 0.994750 1.130551
Cr6   Cr    Cr6+3 0.937790 0.625760 0.001410 1.202379
H1    H     H_    0.513669 0.855483 0.792944 0.222918
H2    H     H_    0.880250 0.559125 0.763246 0.230110
H3    H     H_    0.809254 0.642764 0.647142 0.228257
H4    H     H_    0.888492 0.040237 0.802914 0.236500
H5    H     H_    0.854417 0.140501 0.675267 0.138143
H6    H     H_    0.589488 0.260428 0.813770 0.165099
H7    H     H_    0.477560 0.735877 0.841323 0.180678
H8    H     H_    0.292896 0.685491 0.706968 0.059385
H9    H     H_    0.857592 0.712765 0.213904 0.144551
H10   H     H_    0.863276 0.535177 0.313632 0.211565
H11   H     H_    0.586689 0.802274 0.321501 0.155043
H12   H     H_    0.483294 0.139223 0.189730 0.188776
H13   H     H_    0.420386 0.261755 0.301339 0.202814
H14   H     H_    0.690448 0.247744 0.177797 0.176470
H15   H     H_    0.712283 0.217709 0.293263 0.201938
H16   H     H_    0.475505 0.622451 0.743626 0.102711
H17   H     H_    0.211491 0.835600 0.309943 0.195921
H18   H     H_    0.319018 0.523828 0.292806 0.172905
H19   H     H_    0.438204 0.783409 0.694648 0.174550
H20   H     H_    0.660705 0.791585 0.674878 0.220142
H21   H     H_    0.806898 0.424517 0.844878 0.206651
H22   H     H_    0.630538 0.488241 0.841454 0.109643
H23   H     H_    0.662780 0.403623 0.727184 0.065323
O1    O     O_R   0.507110 0.256280 0.580300 -0.403241
O2    O     O_R   0.524640 0.695370 0.425100 -0.517482
O3    O     O_R   0.735890 0.504390 0.415980 -0.495316
O4    O     O_R   0.690560 0.277820 0.422350 -0.462568
O5    O     O_3   0.499990 0.499990 0.499980 -0.374278
O6    O     O_R   0.089190 0.825870 0.932320 -0.479602
O7    O     O_R   0.819070 0.053960 0.931440 -0.503357
O8    O     O_R   0.607070 0.076440 0.916460 -0.413125
O9    O     O_R   0.647110 0.806550 0.917690 -0.459575
O10   O     O_R   0.837080 0.593860 0.915300 -0.472743
O11   O     O_R   0.064770 0.636080 0.932550 -0.395040
O12   O     O_R   0.280830 0.527190 0.577940 -0.427591
O13   O     O_R   0.068250 0.829200 0.092940 -0.459210
O14   O     O_R   0.799650 0.057040 0.080330 -0.466871
O15   O     O_R   0.586130 0.079760 0.077080 -0.519828
O16   O     O_R   0.627700 0.809630 0.066580 -0.475226
O17   O     O_R   0.816140 0.597180 0.075920 -0.462635
O18   O     O_R   0.045360 0.639170 0.081440 -0.449735
O19   O     O_3   0.833980 0.833750 0.001700 -0.347168
O20   O     O_R   0.261360 0.738990 0.584270 -0.520417
O21   O     O_R   0.532590 0.694780 0.574370 -0.499458
O22   O     O_R   0.744470 0.503750 0.577000 -0.433709
O23   O     O_R   0.698520 0.277230 0.571620 -0.542759
O24   O     O_R   0.498530 0.256920 0.419280 -0.501783
O25   O     O_R   0.272880 0.527780 0.428680 -0.452168
O26   O     O_R   0.252780 0.739630 0.423250 -0.483673
C41   C     C_2   0.871220 0.352075 0.715607 0.568217
O27   O     O_2   0.937552 0.258379 0.758661 -0.541589
O28   O     O_R   0.934046 0.356859 0.652026 -0.598198
H24   H     H_    0.027183 0.272468 0.645656 0.358349
S1    S     S_3+6 0.545486 0.107632 0.704053 0.049087
O29   O     O_2   0.585207 0.018120 0.769514 -0.239679
O30   O     O_2   0.437252 0.248816 0.722830 -0.273164
O31   O     O_3   0.487501 0.040150 0.642695 -0.500686
H25   H     H_    0.407546 0.040220 0.665246 0.355055
S2    S     S_3+6 0.276037 0.393067 0.872770 0.058409
O32   O     O_2   0.333934 0.407492 0.941805 -0.293437
O33   O     O_2   0.141605 0.400172 0.888246 -0.210229
O34   O     O_3   0.377458 0.231440 0.844706 -0.446598
H26   H     H_    0.350149 0.170850 0.872193 0.376170
S3    S     S_3+6 0.162906 0.437605 0.693296 0.104810
O35   O     O_2   0.038587 0.544918 0.655799 -0.288313
O36   O     O_2   0.246816 0.334448 0.637415 -0.222560
O37   O     O_3   0.120317 0.354032 0.755566 -0.439221
H27   H     H_    0.187870 0.253804 0.751139 0.384630
C42   C     C_2   0.189655 0.798241 0.808897 0.519055
O38   O     O_2   0.244022 0.861038 0.833073 -0.524940
O39   O     O_R   0.093946 0.861822 0.754615 -0.688769
H28   H     H_    0.092425 0.949043 0.734235 0.345969
S4    S     S_3+6 0.564825 0.647183 0.188046 0.027064
O40   O     O_2   0.444997 0.766249 0.222971 -0.337542
O41   O     O_2   0.521220 0.620349 0.117446 -0.208669
O42   O     O_3   0.623207 0.501792 0.239411 -0.552580
H29   H     H_    0.555096 0.524443 0.277778 0.329503
S5    S     S_3+6 0.970893 0.949983 0.240989 -0.017635
O43   O     O_2   0.988650 0.041925 0.186124 -0.270680
O44   O     O_2   0.840309 0.949399 0.228283 -0.355276
O45   O     O_3   0.964041 0.013819 0.322678 -0.507959
H30   H     H_    0.003625 0.076720 0.317205 0.356504
S6    S     S_3+6 0.138250 0.509355 0.216173 -0.039403
O46   O     O_2   0.279523 0.413740 0.190983 -0.306467
O47   O     O_2   0.125574 0.492057 0.295164 -0.330177
O48   O     O_3   0.035431 0.462477 0.175044 -0.503945
H31   H     H_    0.065871 0.365246 0.191524 0.382857
S7    S     S_3+6 0.854027 0.773311 0.772670 0.045198
O49   O     O_2   0.799172 0.866135 0.834806 -0.236419
O50   O     O_2   0.996066 0.676960 0.788884 -0.297886
O51   O     O_3   0.846327 0.859129 0.696141 -0.519295
H32   H     H_    0.937453 0.808641 0.674077 0.387892

loop_
_geom_bond_atom_site_label_1
_geom_bond_atom_site_label_2
_ccdc_geom_bond_type
C19   H10   S    
Cr3   O4    S    
C7    C10   D    
Cr3   O3    S    
C3    C30   S    
C12   O22   A    
C1    C11   S    
Cr4   O14   S    
S7    O51   S    
C31   O11   A    
C29   O7    A    
C25   C28   D    
S2    O33   D    
C26   C27   D    
C8    C29   S    
C12   O21   A    
O37   H27   S    
C2    H22   S    
C24   H13   S    
Cr6   O10   S    
C35   O18   A    
C42   O38   D    
O34   H26   S    
C18   C19   S    
C20   H15   S    
Cr4   O7    S    
C33   O16   A    
S3    O35   D    
S1    O29   D    
Cr1   O5    S    
C11   C15   D    
C14   S2    S    
Cr1   O24   S    
C20   C24   D    
C3    C38   S    
C8    C9    D    
C42   O39   S    
C41   O28   S    
Cr5   O9    S    
C13   C14   D    
C4    C12   S    
C9    C10   S    
C8    H6    S    
C6    H23   S    
C36   O2    A    
C25   C34   S    
S6    O48   S    
Cr3   O5    S    
C21   C22   D    
C39   H19   S    
C15   S3    S    
C5    H3    S    
C2    C6    S    
C17   C33   S    
C10   H5    S    
S2    O34   S    
C35   O13   A    
Cr6   O19   S    
S4    O41   D    
C32   O15   A    
C21   C32   S    
Cr2   O5    S    
C7    S1    S    
Cr2   O26   S    
Cr5   O19   S    
C34   O26   A    
C21   H14   S    
C4    C6    S    
C2    H21   S    
C5    H20   S    
S7    O50   D    
C40   S7    S    
S1    O31   S    
Cr3   O22   S    
Cr2   O21   S    
C25   H18   S    
Cr4   O6    S    
Cr5   O16   S    
C33   O17   A    
C31   O6    A    
Cr1   O25   S    
C4    C39   S    
S4    O40   D    
Cr1   O12   S    
C41   O27   D    
S1    O30   D    
C17   C18   D    
C37   O24   A    
C26   S6    S    
S3    O37   S    
C38   H1    S    
C13   C42   S    
C11   H8    S    
C18   H9    S    
S5    O45   S    
C30   O10   A    
C3    C40   S    
C6    C41   S    
C22   C24   S    
Cr5   O15   S    
O45   H30   S    
O31   H25   S    
S5    O44   D    
Cr6   O18   S    
O51   H32   S    
S4    O42   S    
C40   H2    S    
C32   O14   A    
C37   O4    A    
C1    O20   A    
C23   O23   A    
C13   C31   S    
C9    H4    S    
C34   O25   A    
C4    C5    S    
C23   O1    A    
C22   H12   S    
C27   S5    S    
S7    O49   D    
S2    O32   D    
Cr4   O13   S    
Cr3   O23   S    
Cr2   O20   S    
C2    C3    S    
S6    O46   D    
O39   H28   S    
C16   C36   S    
Cr6   O11   S    
C20   C37   S    
C38   C39   S    
C38   H7    S    
C16   C19   D    
C7    C23   S    
Cr2   O2    S    
O48   H31   S    
C16   H11   S    
S3    O36   D    
C17   S4    S    
C30   O9    A    
C28   H17   S    
C26   C35   S    
C29   O8    A    
O28   H24   S    
C5    C40   S    
C27   C28   S    
C39   H16   S    
C14   C15   S    
Cr1   O1    S    
Cr5   O8    S    
S6    O47   D    
O42   H29   S    
Cr4   O19   S    
C1    O12   A    
C36   O3    A    
S5    O43   D    
Cr6   O17   S    
