data_mof_unit_25243.cif
_audit_creation_date              2012-12-10T20:28:43-0500
_audit_creation_method            fapswitch 2.2
_symmetry_space_group_name_H-M    P1
_symmetry_Int_Tables_number       1
_space_group_crystal_system       triclinic
_cell_length_a                    10.709186
_cell_length_b                    10.794448
_cell_length_c                    9.880114
_cell_angle_alpha                 88.951435
_cell_angle_beta                  88.935078
_cell_angle_gamma                 91.343241
_cell_volume                      1141.42708211

loop_
_atom_site_label
_atom_site_type_symbol
_atom_type_description
_atom_site_fract_x
_atom_site_fract_y
_atom_site_fract_z
_atom_type_partial_charge
Br1   Br    Br    0.533633 0.831163 0.888212 -0.415409
Br2   Br    Br    0.272181 0.111335 0.716900 -0.506313
Br3   Br    Br    0.526505 0.127711 0.902338 -0.375498
Br4   Br    Br    0.723979 0.652481 0.145000 -0.436273
Br5   Br    Br    0.883791 0.364700 0.033917 -0.453457
Br6   Br    Br    0.781579 0.267729 0.732278 -0.362115
C1    C     C_R   0.502089 0.259663 0.500931 0.942339
C2    C     C_R   0.537700 0.938717 0.375630 -0.128890
C3    C     C_R   0.522524 0.871326 0.497548 -0.137087
C4    C     C_R   0.260565 0.513022 0.501082 0.883768
C5    C     C_R   0.526551 0.932766 0.619888 0.046502
C6    C     C_3   0.445779 0.914278 0.743308 0.061614
C7    C     C_3   0.441456 0.055073 0.747987 0.366375
C8    C     C_R   0.392943 0.474109 0.074012 0.143366
C9    C     C_R   0.598419 0.548872 0.067380 0.349923
C10   C     C_R   0.601133 0.541296 0.924273 -0.019324
C11   C     C_R   0.391560 0.478247 0.931794 0.158757
C12   C     C_R   0.057383 0.522437 0.625762 0.079800
C13   C     C_3   0.309476 0.365315 0.930633 -0.402741
C14   C     C_3   0.313702 0.359615 0.084070 -0.429033
C15   C     C_R   0.504424 0.739849 0.498815 0.891930
C16   C     C_R   0.739729 0.488503 0.499516 0.922414
C17   C     C_R   0.102387 0.564242 0.750635 -0.199333
C18   C     C_R   0.038756 0.530590 0.871104 -0.247613
C19   C     C_R   0.939677 0.444304 0.868186 0.281755
C20   C     C_R   0.888871 0.412204 0.743257 0.252857
C21   C     C_R   0.937666 0.469469 0.623097 -0.014279
C22   C     C_R   0.126861 0.526994 0.502939 -0.098889
C23   C     C_R   0.066025 0.518467 0.379241 -0.176626
C24   C     C_R   0.939251 0.498073 0.378117 -0.120552
C25   C     C_R   0.873616 0.475757 0.499612 -0.096665
C26   C     C_R   0.523173 0.059488 0.622497 0.092787
C27   C     C_R   0.517688 0.127817 0.501179 -0.117808
C28   C     C_R   0.535599 0.067167 0.377515 -0.156354
H1    H     H_    0.681903 0.576299 0.867033 0.181104
H2    H     H_    0.075781 0.559810 0.966952 0.185611
H3    H     H_    0.540633 0.117756 0.281774 0.206940
H4    H     H_    0.543149 0.892915 0.279098 0.220897
H5    H     H_    0.893076 0.499794 0.282258 0.231428
H6    H     H_    0.354804 0.867935 0.720626 0.136748
H7    H     H_    0.116022 0.527021 0.283100 0.172363
H8    H     H_    0.215558 0.381299 0.891825 0.228669
H9    H     H_    0.355724 0.290355 0.879727 0.276795
H10   H     H_    0.221601 0.375708 0.133373 0.213773
H11   H     H_    0.364753 0.278811 0.124390 0.241988
H12   H     H_    0.186086 0.621932 0.756048 0.184648
N1    N     N_R   0.499160 0.499140 0.142800 -0.134492
N2    N     N_R   0.499160 0.499180 0.857150 -0.114923
O1    O     O_R   0.500020 0.316790 0.614690 -0.567209
O2    O     O_R   0.500000 0.316760 0.385350 -0.628941
O3    O     O_R   0.316770 0.500020 0.614690 -0.622790
O4    O     O_R   0.316760 0.499980 0.385350 -0.625880
O5    O     O_R   0.500000 0.683240 0.614650 -0.605944
O6    O     O_R   0.499980 0.683210 0.385310 -0.599130
O7    O     O_R   0.683240 0.500020 0.614650 -0.617164
O8    O     O_R   0.683230 0.499980 0.385310 -0.583137
Zn1   Zn    Zn3+2 0.500010 0.500020 0.653130 1.018986
Zn2   Zn    Zn3+2 0.499990 0.499980 0.346870 1.019736

loop_
_geom_bond_atom_site_label_1
_geom_bond_atom_site_label_2
_ccdc_geom_bond_type
C6    H6    S    
C17   C18   A    
C13   H8    S    
C23   C24   A    
O3    Zn1   S    
C28   H3    S    
C1    C27   S    
C7    C26   S    
C13   C14   S    
Br3   C7    S    
C11   N2    A    
C9    N1    A    
C18   H2    S    
C5    C6    S    
C4    O4    A    
C26   C27   A    
C10   N2    A    
Br4   C9    S    
O7    Zn1   S    
C27   C28   A    
C16   O7    A    
O1    Zn1   S    
N2    Zn1   S    
C17   H12   S    
C2    C28   A    
C6    C7    S    
N1    Zn2   S    
C15   O5    A    
C3    C5    A    
C8    C11   A    
C3    C15   S    
C20   C21   A    
Br6   C20   S    
Br1   C6    S    
O4    Zn2   S    
C12   C17   A    
Br5   C19   S    
C4    O3    A    
C22   C23   A    
C11   C13   S    
O8    Zn2   S    
C24   H5    S    
C2    H4    S    
C10   H1    S    
C24   C25   A    
C16   C25   S    
C21   C25   A    
C9    C10   A    
O2    Zn2   S    
C8    C14   S    
C12   C22   A    
C18   C19   A    
C1    O1    A    
C15   O6    A    
O6    Zn2   S    
C4    C22   S    
Br2   C7    S    
O5    Zn1   S    
C23   H7    S    
C16   O8    A    
C14   H10   S    
C19   C20   A    
C8    N1    A    
C12   C21   A    
C14   H11   S    
C1    O2    A    
C13   H9    S    
C2    C3    A    
C5    C26   A    
