data_mof_unit_68421.cif
_audit_creation_date              2012-10-26T19:30:03-0400
_audit_creation_method            fapswitch 2.2
_symmetry_space_group_name_H-M    P1
_symmetry_Int_Tables_number       1
_space_group_crystal_system       triclinic
_cell_length_a                    15.807649
_cell_length_b                    10.621441
_cell_length_c                    9.453285
_cell_angle_alpha                 90.576933
_cell_angle_beta                  90.216535
_cell_angle_gamma                 89.617339
_cell_volume                      1587.0798602

loop_
_atom_site_label
_atom_site_type_symbol
_atom_type_description
_atom_site_fract_x
_atom_site_fract_y
_atom_site_fract_z
_atom_type_partial_charge
Br1   Br    Br    0.929116 0.575089 0.185373 -0.505789
Br2   Br    Br    0.070890 0.425154 0.814652 -0.505633
Br3   Br    Br    0.476465 0.912045 0.830093 -0.488815
Br4   Br    Br    0.523486 0.087965 0.169895 -0.489272
Br5   Br    Br    0.332418 0.641637 0.885041 -0.433012
Br6   Br    Br    0.667574 0.358332 0.114948 -0.433099
Br7   Br    Br    0.661545 0.651896 0.885325 -0.462965
Br8   Br    Br    0.338494 0.348019 0.114709 -0.462885
C1    C     C_R   0.501081 0.259847 0.499102 0.541909
C2    C     C_3   0.502059 0.386061 0.947560 -0.016611
C3    C     C_3   0.433213 0.554645 0.950676 0.259382
C4    C     C_3   0.566785 0.445350 0.049324 0.259475
C5    C     C_3   0.564742 0.558559 0.951516 0.256130
C6    C     C_3   0.435258 0.441436 0.048488 0.256116
C7    C     C_R   0.340106 0.499464 0.499743 0.548189
C8    C     C_R   0.659894 0.500541 0.500256 0.548190
C9    C     C_3   0.971124 0.385684 0.537810 -0.112071
C10   C     C_3   0.028881 0.614377 0.462163 -0.111961
C11   C     C_3   0.026736 0.412941 0.407274 -0.001539
C12   C     C_R   0.498906 0.740156 0.500897 0.541850
C13   C     C_3   0.973262 0.587118 0.592694 -0.001561
C14   C     C_1   0.250504 0.498293 0.499192 0.030042
C15   C     C_1   0.749498 0.501731 0.500802 0.030040
C16   C     C_3   0.028523 0.471760 0.629437 0.186168
C17   C     C_3   0.971481 0.528306 0.370529 0.186249
C18   C     C_3   0.083287 0.497902 0.499162 0.017145
C19   C     C_3   0.916715 0.502157 0.500809 0.017166
C20   C     C_1   0.174931 0.497634 0.498958 -0.004844
C21   C     C_1   0.825071 0.502408 0.501026 -0.004819
C22   C     C_3   0.564964 0.041375 0.579777 -0.023751
C23   C     C_3   0.573383 0.955100 0.447745 -0.023261
C24   C     C_3   0.434980 0.958635 0.420213 -0.023536
C25   C     C_3   0.060221 0.312923 0.303825 -0.231187
C26   C     C_3   0.988231 0.234533 0.239817 -0.277937
C27   C     C_3   0.022296 0.132845 0.139780 -0.445002
C28   C     C_3   0.939780 0.687057 0.696250 -0.231045
C29   C     C_3   0.011742 0.765938 0.759568 -0.278223
C30   C     C_3   0.977730 0.867328 0.860045 -0.444788
C31   C     C_3   0.653104 0.892477 0.385760 -0.228989
C32   C     C_3   0.720037 0.987751 0.340262 -0.294934
C33   C     C_3   0.797554 0.920755 0.278844 -0.435547
C34   C     C_3   0.426566 0.044919 0.552248 -0.023211
C35   C     C_3   0.346887 0.107678 0.614235 -0.229075
C36   C     C_3   0.279876 0.012552 0.659838 -0.294796
C37   C     C_3   0.202349 0.079769 0.720952 -0.435222
C38   C     C_3   0.634533 0.098055 0.674280 -0.227713
C39   C     C_3   0.692426 0.997560 0.739787 -0.282334
C40   C     C_3   0.749618 0.054572 0.853643 -0.422681
C41   C     C_3   0.365378 0.901819 0.325875 -0.227812
C42   C     C_3   0.307491 0.002178 0.260119 -0.282259
C43   C     C_3   0.249414 0.944589 0.147911 -0.423358
C44   C     C_3   0.498842 0.876817 0.502509 0.001879
C45   C     C_3   0.501113 0.123192 0.497484 0.002009
C46   C     C_3   0.490391 0.962693 0.634623 0.172338
C47   C     C_3   0.509554 0.037318 0.365362 0.172532
C48   C     C_3   0.497939 0.613937 0.052440 -0.016628
Cu1   Cu    Cu3+1 0.500020 0.499990 0.643150 1.049346
Cu2   Cu    Cu3+1 0.499980 0.500010 0.356850 1.049416
H1    H     H_    0.946357 0.292568 0.569412 0.119595
H2    H     H_    0.095611 0.360428 0.218391 0.214088
H3    H     H_    0.104694 0.250100 0.361598 0.137490
H4    H     H_    0.936446 0.934158 0.801663 0.145692
H5    H     H_    0.941183 0.824128 0.946973 0.198890
H6    H     H_    0.031392 0.920450 0.906920 0.144692
H7    H     H_    0.056227 0.704424 0.818747 0.237331
H8    H     H_    0.047362 0.812292 0.673586 0.150568
H9    H     H_    0.894988 0.749565 0.638742 0.137600
H10   H     H_    0.904764 0.639451 0.782036 0.214356
H11   H     H_    0.826641 0.857843 0.358962 0.168548
H12   H     H_    0.053655 0.707485 0.430548 0.119504
H13   H     H_    0.779569 0.864208 0.184017 0.201933
H14   H     H_    0.845044 0.991523 0.247105 0.143095
H15   H     H_    0.693748 0.051598 0.258899 0.233991
H16   H     H_    0.740511 0.046158 0.431712 0.157479
H17   H     H_    0.680449 0.827855 0.465777 0.138861
H18   H     H_    0.634016 0.834750 0.292389 0.194196
H19   H     H_    0.220304 0.137212 0.815127 0.202338
H20   H     H_    0.172976 0.141830 0.640278 0.168003
H21   H     H_    0.155029 0.009077 0.753670 0.143057
H22   H     H_    0.259478 0.953981 0.568454 0.157543
H23   H     H_    0.496718 0.710044 0.099508 0.165425
H24   H     H_    0.306132 0.948873 0.741417 0.234124
H25   H     H_    0.366029 0.165418 0.707564 0.194107
H26   H     H_    0.319580 0.172337 0.534224 0.138893
H27   H     H_    0.790694 0.127891 0.807481 0.161657
H28   H     H_    0.711024 0.097008 0.939980 0.217973
H29   H     H_    0.790277 0.979708 0.899659 0.150731
H30   H     H_    0.654210 0.922681 0.788521 0.253352
H31   H     H_    0.732717 0.953202 0.657270 0.152588
H32   H     H_    0.672808 0.164550 0.611569 0.134429
H33   H     H_    0.603222 0.152874 0.760219 0.195765
H34   H     H_    0.503274 0.289953 0.900494 0.165373
H35   H     H_    0.287316 0.900277 0.061887 0.217670
H36   H     H_    0.207965 0.872682 0.195870 0.160814
H37   H     H_    0.209149 0.019503 0.101058 0.150919
H38   H     H_    0.267839 0.047650 0.342738 0.153225
H39   H     H_    0.345725 0.076214 0.209833 0.253566
H40   H     H_    0.396634 0.846817 0.240027 0.195585
H41   H     H_    0.327112 0.835485 0.388813 0.134558
H42   H     H_    0.059526 0.175720 0.053457 0.198650
H43   H     H_    0.062954 0.065567 0.198721 0.145592
H44   H     H_    0.968632 0.080318 0.092076 0.144950
H45   H     H_    0.952099 0.188492 0.325413 0.150751
H46   H     H_    0.944190 0.296319 0.180092 0.237682
N1    N     N_3   0.500060 0.499970 0.858290 -0.269753
N2    N     N_3   0.499940 0.500030 0.141710 -0.269760
O1    O     O_R   0.500040 0.316850 0.620870 -0.541647
O2    O     O_R   0.499960 0.683150 0.379130 -0.541612
O3    O     O_R   0.500000 0.316860 0.379090 -0.426141
O4    O     O_R   0.500000 0.683140 0.620910 -0.426228
O5    O     O_R   0.379090 0.499980 0.620870 -0.455435
O6    O     O_R   0.620910 0.500020 0.379130 -0.455412
O7    O     O_R   0.379060 0.499990 0.379090 -0.469322
O8    O     O_R   0.620940 0.500010 0.620910 -0.469324

loop_
_geom_bond_atom_site_label_1
_geom_bond_atom_site_label_2
_ccdc_geom_bond_type
C10   H12   S    
Cu1   N1    S    
C19   C21   S    
C10   C13   S    
C35   H25   S    
C10   C18   S    
C23   C44   S    
C27   H44   S    
C28   H9    S    
C48   H23   S    
C13   C28   S    
C22   C46   S    
Cu2   O6    S    
C15   C21   T    
C28   C29   S    
C16   C18   S    
Br5   C3    S    
C36   H24   S    
C34   C45   S    
Br6   C4    S    
C22   C23   S    
Br3   C46   S    
Cu2   O3    S    
C32   H15   S    
C26   C27   S    
C11   C18   S    
C24   C44   S    
C9    C11   S    
C41   H40   S    
C7    C14   S    
Cu1   O4    S    
C23   C31   S    
C29   H7    S    
C3    N1    S    
Cu2   O7    S    
C7    O7    A    
C37   H20   S    
C31   H17   S    
C24   C47   S    
C33   H13   S    
C5    C48   S    
C13   C19   S    
C2    H34   S    
C14   C20   T    
Br1   C17   S    
C35   H26   S    
C39   H31   S    
C10   C17   S    
C12   O2    A    
C44   C46   S    
C25   C26   S    
C30   H6    S    
C45   C47   S    
C1    O3    A    
C22   C45   S    
C9    C16   S    
C9    C19   S    
C7    O5    A    
C36   H22   S    
C5    N1    S    
C2    C6    S    
C31   C32   S    
C38   H33   S    
C26   H46   S    
Cu2   N2    S    
C35   C36   S    
C29   C30   S    
C41   H41   S    
C39   C40   S    
Br7   C5    S    
C29   H8    S    
C42   C43   S    
C40   H29   S    
C37   H21   S    
C31   H18   S    
C48   N2    S    
C2    C4    S    
C43   H35   S    
C33   H14   S    
C12   O4    A    
C32   C33   S    
Cu1   O1    S    
C9    H1    S    
C25   H2    S    
Br4   C47   S    
Br2   C16   S    
C40   H28   S    
C17   C19   S    
C34   C35   S    
C27   H42   S    
C36   C37   S    
C8    O6    A    
C33   H11   S    
C30   H5    S    
C38   C39   S    
C42   H39   S    
Br8   C6    S    
C40   H27   S    
C22   C38   S    
C11   C25   S    
C27   H43   S    
C8    O8    A    
C28   H10   S    
Cu1   O8    S    
C38   H32   S    
C8    C15   S    
C18   C20   S    
C26   H45   S    
C39   H30   S    
C12   C44   S    
C34   C46   S    
C4    N2    S    
C42   H38   S    
Cu1   Cu2   S    
Cu1   O5    S    
C3    C6    S    
C32   H16   S    
Cu2   O2    S    
C11   C17   S    
C24   C41   S    
C43   H36   S    
C6    N2    S    
C1    C45   S    
C4    C5    S    
C25   H3    S    
C41   C42   S    
C13   C16   S    
C24   C34   S    
C1    O1    A    
C2    N1    S    
C37   H19   S    
C23   C47   S    
C3    C48   S    
C43   H37   S    
C30   H4    S    
