data_mof_unit_33169.cif
_audit_creation_date              2012-10-26T18:43:53-0400
_audit_creation_method            fapswitch 2.2
_symmetry_space_group_name_H-M    P1
_symmetry_Int_Tables_number       1
_space_group_crystal_system       triclinic
_cell_length_a                    9.576393
_cell_length_b                    10.853359
_cell_length_c                    17.15145
_cell_angle_alpha                 91.511119
_cell_angle_beta                  85.196184
_cell_angle_gamma                 90.162976
_cell_volume                      1775.77354094

loop_
_atom_site_label
_atom_site_type_symbol
_atom_type_description
_atom_site_fract_x
_atom_site_fract_y
_atom_site_fract_z
_atom_type_partial_charge
C1    C     C_R   0.500208 0.737799 0.503950 0.535343
C2    C     C_R   0.531836 0.479491 0.265090 -0.095984
C3    C     C_R   0.377426 0.936414 0.505434 -0.052557
C4    C     C_R   0.480667 0.501413 0.650289 0.510377
C5    C     C_R   0.500533 0.871746 0.514791 -0.095907
C6    C     C_R   0.620651 0.939945 0.534974 -0.007575
C7    C     C_R   0.617901 0.069151 0.532984 0.389223
C8    C     C_R   0.498528 0.130397 0.511096 -0.042462
C9    C     C_R   0.376189 0.062978 0.503976 0.031508
C10   C     C_3   0.275183 0.063990 0.442259 0.277012
C11   C     C_3   0.276175 0.924066 0.443894 -0.163258
C12   C     C_R   0.370341 0.413859 0.771496 -0.094296
C13   C     C_R   0.933908 0.421087 0.451540 0.221869
C14   C     C_R   0.915808 0.565393 0.554495 0.065191
C15   C     C_R   0.064371 0.568230 0.554633 0.112281
C16   C     C_R   0.499650 0.262651 0.501753 0.557330
C17   C     C_R   0.080716 0.419776 0.452233 0.168268
C18   C     C_3   0.101356 0.409021 0.365225 -0.203379
C19   C     C_3   0.943346 0.413531 0.364256 0.247086
C20   C     C_R   0.519192 0.497499 0.349873 0.585844
C21   C     C_R   0.467816 0.496201 0.735841 -0.005650
C22   C     C_R   0.556410 0.565904 0.782162 0.012589
C23   C     C_R   0.464201 0.365550 0.150994 0.341381
C24   C     C_R   0.551631 0.544992 0.862439 -0.014441
C25   C     C_R   0.459792 0.457376 0.896622 0.030890
C26   C     C_R   0.365662 0.395248 0.851679 -0.071105
C27   C     C_2   0.648173 0.664683 0.748624 0.270989
C28   C     C_2   0.749593 0.880681 0.558193 0.356112
C29   C     C_2   0.122996 0.649661 0.614791 0.268202
C30   C     C_2   0.709793 0.376144 0.977613 0.314380
C31   C     C_R   0.448661 0.389789 0.231272 -0.170680
C32   C     C_R   0.630965 0.545498 0.218021 0.450881
C33   C     C_R   0.646332 0.521878 0.137467 0.358504
C34   C     C_R   0.562985 0.431744 0.103586 -0.065792
C35   C     C_2   0.456665 0.437222 0.980860 -0.056201
C36   C     C_2   0.572294 0.414068 0.018069 0.068645
Cu1   Cu    Cu3+1 0.359330 0.500020 0.500000 0.978319
Cu2   Cu    Cu3+1 0.640670 0.499980 0.500000 1.092450
F1    F     F_    0.738794 0.589889 0.092149 -0.571002
F2    F     F_    0.732106 0.134513 0.552201 -0.539544
F3    F     F_    0.147310 0.113406 0.470795 -0.564070
F4    F     F_    0.900935 0.521393 0.332151 -0.541907
F5    F     F_    0.708862 0.635620 0.249611 -0.496215
F6    F     F_    0.383694 0.277159 0.119557 -0.591998
H1    H     H_    0.318948 0.103194 0.386120 0.105635
H2    H     H_    0.300818 0.360901 0.736784 0.160609
H3    H     H_    0.357337 0.455164 0.014718 0.165915
H4    H     H_    0.618344 0.597774 0.899001 0.191082
H5    H     H_    0.631161 0.700111 0.691931 0.078144
H6    H     H_    0.742275 0.799588 0.592983 0.081498
H7    H     H_    0.230282 0.678720 0.610598 0.165362
H8    H     H_    0.802826 0.378724 0.009659 0.161356
H9    H     H_    0.174672 0.883673 0.467029 0.216609
H10   H     H_    0.323758 0.880074 0.388701 0.122028
H11   H     H_    0.851053 0.618229 0.597562 0.149598
H12   H     H_    0.154503 0.490339 0.338045 0.195639
H13   H     H_    0.373896 0.336512 0.267344 0.155679
H14   H     H_    0.146352 0.318233 0.345155 0.117193
H15   H     H_    0.895963 0.328452 0.340386 0.132268
H16   H     H_    0.291541 0.329977 0.878268 0.160393
N1    N     N_R   0.852130 0.499070 0.499500 -0.236340
N2    N     N_R   0.148040 0.499110 0.499500 -0.269755
O1    O     O_R   0.381190 0.680360 0.500000 -0.531297
O2    O     O_2   0.865471 0.922897 0.539215 -0.374171
O3    O     O_2   0.048790 0.688020 0.671620 -0.467475
O4    O     O_2   0.720087 0.336716 0.910045 -0.454659
O5    O     O_R   0.618770 0.680320 0.499990 -0.507757
O6    O     O_R   0.367430 0.500040 0.613600 -0.528611
O7    O     O_R   0.605020 0.500000 0.613590 -0.511140
O8    O     O_R   0.381230 0.319680 0.500010 -0.480788
O9    O     O_R   0.618810 0.319640 0.500000 -0.439500
O10   O     O_R   0.394980 0.500000 0.386410 -0.533562
O11   O     O_R   0.632570 0.499960 0.386400 -0.402377
O12   O     O_2   0.741983 0.708996 0.784502 -0.422227

loop_
_geom_bond_atom_site_label_1
_geom_bond_atom_site_label_2
_ccdc_geom_bond_type
C35   C36   D    
C35   H3    S    
Cu1   N2    S    
C7    C8    A    
C33   F1    S    
C1    C5    S    
C5    C6    A    
Cu1   O6    S    
C2    C32   A    
C18   C19   S    
C28   H6    S    
C15   N2    A    
C6    C28   S    
C8    C9    A    
C7    F2    S    
C27   O12   D    
C9    C10   S    
C11   H9    S    
C19   F4    S    
C18   H12   S    
Cu2   N1    S    
C14   H11   S    
Cu2   O7    S    
C8    C16   S    
C21   C22   A    
C10   F3    S    
C16   O9    A    
C1    O1    A    
C4    O7    A    
Cu1   O1    S    
C18   H14   S    
C15   C29   S    
C13   C19   S    
C2    C20   S    
C24   H4    S    
C16   O8    A    
C24   C25   A    
C12   H2    S    
C4    O6    A    
C19   H15   S    
C25   C26   A    
C14   N1    A    
C12   C21   A    
C23   F6    S    
C12   C26   A    
C2    C31   A    
C23   C31   A    
Cu1   Cu2   S    
C3    C9    A    
C17   N2    A    
C23   C34   A    
C10   H1    S    
C17   C18   S    
C30   O4    D    
C11   H10   S    
C25   C35   S    
C29   O3    D    
C28   O2    D    
C22   C27   S    
C22   C24   A    
C29   H7    S    
C30   H8    S    
Cu2   O9    S    
C3    C5    A    
C6    C7    A    
C30   C36   S    
C13   C17   A    
C32   C33   A    
C31   H13   S    
C4    C21   S    
C1    O5    A    
C32   F5    S    
C33   C34   A    
C20   O11   A    
C34   C36   S    
C3    C11   S    
C10   C11   S    
C13   N1    A    
Cu2   O5    S    
Cu1   O10   S    
C14   C15   A    
C20   O10   A    
Cu1   O8    S    
C26   H16   S    
C27   H5    S    
Cu2   O11   S    
