data_mof_unit_15966.cif
_audit_creation_date              2012-12-10T17:43:20-0500
_audit_creation_method            fapswitch 2.2
_symmetry_space_group_name_H-M    P1
_symmetry_Int_Tables_number       1
_space_group_crystal_system       triclinic
_cell_length_a                    15.030458
_cell_length_b                    13.892148
_cell_length_c                    10.724647
_cell_angle_alpha                 90.698519
_cell_angle_beta                  86.271041
_cell_angle_gamma                 88.771279
_cell_volume                      2233.90163605

loop_
_atom_site_label
_atom_site_type_symbol
_atom_type_description
_atom_site_fract_x
_atom_site_fract_y
_atom_site_fract_z
_atom_type_partial_charge
C1    C     C_R   0.329184 0.501355 0.497604 0.841744
C2    C     C_R   0.671459 0.499084 0.495142 0.846198
C3    C     C_R   0.954091 0.520896 0.484619 -0.125557
C4    C     C_R   0.047614 0.523282 0.485252 -0.133624
C5    C     C_R   0.914373 0.485622 0.378117 -0.174483
C6    C     C_R   0.087544 0.551918 0.595019 -0.169985
C7    C     C_R   0.940618 0.583784 0.698055 0.511587
C8    C     C_R   0.060638 0.468898 0.267877 0.504815
C9    C     C_R   0.033181 0.585310 0.699613 0.570313
C10   C     C_R   0.968044 0.467390 0.267077 0.549017
C11   C     C_R   0.420907 0.797303 0.500882 0.565810
C12   C     C_R   0.574317 0.203628 0.458333 0.585560
C13   C     C_R   0.578453 0.794815 0.499021 0.564217
C14   C     C_R   0.425152 0.207605 0.543283 0.591977
C15   C     C_R   0.579326 0.896273 0.479965 -0.222231
C16   C     C_R   0.420450 0.105464 0.528400 -0.231312
C17   C     C_R   0.419241 0.899841 0.515424 -0.224465
C18   C     C_R   0.578771 0.101457 0.470604 -0.223162
C19   C     C_R   0.499294 0.949464 0.497824 -0.127772
C20   C     C_R   0.499550 0.052056 0.499358 -0.131110
C21   C     C_R   0.659341 0.945949 0.450624 0.406637
C22   C     C_R   0.339228 0.055539 0.544622 0.400168
C23   C     C_R   0.339054 0.953972 0.542867 0.396002
C24   C     C_R   0.659362 0.047546 0.449066 0.410723
C25   C     C_R   0.504892 0.499578 0.259437 0.919176
C26   C     C_R   0.499139 0.500454 0.740608 0.908676
C27   C     C_3   0.493954 0.590713 0.043528 0.343286
C28   C     C_3   0.515625 0.408787 0.955966 0.322082
C29   C     C_3   0.570232 0.554777 0.950991 0.306402
C30   C     C_3   0.438878 0.444546 0.048900 0.282841
C31   C     C_3   0.424585 0.536393 0.972606 0.274926
C32   C     C_3   0.584677 0.463612 0.027692 0.282230
C33   C     C_3   0.500896 0.500824 0.877474 -0.339597
C34   C     C_3   0.508050 0.499424 0.122377 -0.332272
C35   C     C_R   0.822536 0.464943 0.387401 0.481934
C36   C     C_R   0.180572 0.542121 0.599226 0.520510
C37   C     C_R   0.768910 0.499201 0.492221 -0.161194
C38   C     C_R   0.232665 0.507002 0.494250 -0.161050
C39   C     C_R   0.808170 0.541188 0.593413 -0.222391
C40   C     C_R   0.193513 0.484724 0.383512 -0.262966
C41   C     C_R   0.900636 0.548974 0.592600 -0.051687
C42   C     C_R   0.101010 0.492463 0.378024 -0.046611
Cu1   Cu    Cu3+1 0.500000 0.597420 0.500000 1.031193
Cu2   Cu    Cu3+1 0.500000 0.402580 0.500000 1.033062
H1    H     H_    0.766268 0.564094 0.674912 0.206894
H2    H     H_    0.235382 0.460614 0.302512 0.211641
N1    N     N_R   0.500000 0.743810 0.500000 -0.284900
N2    N     N_R   0.500000 0.256190 0.500000 -0.276349
O1    O     O_R   0.370260 0.582280 0.500030 -0.524866
O2    O     O_R   0.629740 0.417720 0.499970 -0.540559
O3    O     O_R   0.629740 0.582280 0.499970 -0.534522
O4    O     O_R   0.370260 0.417720 0.500030 -0.540248
O5    O     O_R   0.499980 0.582260 0.316850 -0.577792
O6    O     O_R   0.500020 0.417740 0.683150 -0.565714
O7    O     O_R   0.500020 0.582260 0.683150 -0.570445
O8    O     O_R   0.499980 0.417740 0.316850 -0.559229
O9    O     O_3   0.343738 0.576863 0.935956 -0.565451
C43   C     C_3   0.284896 0.593934 0.042298 -0.223594
H3    H     H_    0.316757 0.631667 0.119077 0.143660
H4    H     H_    0.256559 0.525740 0.077295 0.225712
H5    H     H_    0.228634 0.640366 0.015036 0.220253
O10   O     O_3   0.666808 0.427875 0.066433 -0.576425
C44   C     C_3   0.727245 0.410531 0.961874 -0.164918
H6    H     H_    0.761382 0.477631 0.934030 0.233867
H7    H     H_    0.695606 0.379081 0.880148 0.147497
H8    H     H_    0.779220 0.358319 0.988851 0.193262
O11   O     O_3   0.485297 0.684154 0.097036 -0.580876
C45   C     C_3   0.463802 0.751589 0.005628 -0.317972
H9    H     H_    0.391074 0.753410 0.993921 0.196017
H10   H     H_    0.500658 0.738193 0.913445 0.187020
H11   H     H_    0.481843 0.824182 0.038476 0.154951
O12   O     O_3   0.525508 0.319258 0.892096 -0.573112
C46   C     C_3   0.547824 0.245738 0.973625 -0.359320
H12   H     H_    0.501406 0.244852 0.057896 0.178028
H13   H     H_    0.617921 0.251341 0.998277 0.182058
H14   H     H_    0.542101 0.175625 0.924554 0.170084
O13   O     O_3   0.637879 0.609423 0.890349 -0.611408
C47   C     C_3   0.683968 0.660756 0.979430 -0.262789
H15   H     H_    0.699427 0.616821 0.061694 0.211201
H16   H     H_    0.646147 0.726963 0.010807 0.172949
H17   H     H_    0.748272 0.683885 0.934307 0.227609
O14   O     O_3   0.374617 0.390552 0.118193 -0.581956
C48   C     C_3   0.324180 0.336341 0.037977 -0.284412
H18   H     H_    0.360340 0.269320 0.006353 0.161713
H19   H     H_    0.305006 0.377679 0.956553 0.147780
H20   H     H_    0.261804 0.315239 0.090545 0.215484
O15   O     O_3   0.786454 0.406444 0.299243 -0.526971
C49   C     C_3   0.820143 0.311346 0.314121 -0.093706
H21   H     H_    0.796779 0.264036 0.239875 0.189541
H22   H     H_    0.797654 0.283243 0.407048 0.183708
H23   H     H_    0.893942 0.305049 0.303984 0.118360
O16   O     O_3   0.219926 0.557844 0.709939 -0.517300
C50   C     C_3   0.225614 0.469183 0.772278 -0.148759
H24   H     H_    0.296338 0.444511 0.766333 0.154796
H25   H     H_    0.184289 0.410214 0.736371 0.106353
H26   H     H_    0.201954 0.480814 0.871278 0.235624
F1    F     F_    0.890172 0.613679 0.801495 -0.657982
F2    F     F_    0.110624 0.444182 0.161839 -0.672995
F3    F     F_    0.068854 0.618511 0.804604 -0.592441
F4    F     F_    0.931165 0.445477 0.158184 -0.597586
O17   O     O_3   0.341337 0.752283 0.488208 -0.507847
C51   C     C_3   0.321628 0.755580 0.361353 -0.210114
H27   H     H_    0.259692 0.715305 0.349698 0.173962
H28   H     H_    0.375527 0.720533 0.299810 0.185800
H29   H     H_    0.309586 0.830757 0.330954 0.142306
O18   O     O_3   0.638876 0.248940 0.386562 -0.532618
C52   C     C_3   0.618681 0.236289 0.261022 -0.272142
H30   H     H_    0.546041 0.243801 0.247714 0.147717
H31   H     H_    0.644471 0.165223 0.224178 0.138141
H32   H     H_    0.651545 0.292871 0.205291 0.247142
O19   O     O_3   0.657306 0.749891 0.525697 -0.517917
C53   C     C_3   0.669373 0.764780 0.653960 -0.190678
H33   H     H_    0.733139 0.729866 0.676539 0.209034
H34   H     H_    0.614670 0.732369 0.713069 0.180081
H35   H     H_    0.674272 0.842565 0.677995 0.119666
O20   O     O_3   0.352414 0.258403 0.597179 -0.524778
C54   C     C_3   0.347554 0.244734 0.727664 -0.257726
H36   H     H_    0.364011 0.169897 0.756062 0.136149
H37   H     H_    0.278282 0.260928 0.764942 0.165802
H38   H     H_    0.391773 0.295442 0.771962 0.206017
O21   O     O_3   0.739245 0.896142 0.425129 -0.531081
C55   C     C_3   0.747655 0.873655 0.296260 -0.199578
H39   H     H_    0.749372 0.940054 0.239128 0.144045
H40   H     H_    0.693125 0.826462 0.268527 0.144278
H41   H     H_    0.811619 0.833565 0.275458 0.193224
O22   O     O_3   0.258618 0.104950 0.564828 -0.543323
C56   C     C_3   0.224570 0.123716 0.447875 -0.199719
H42   H     H_    0.211045 0.055688 0.397251 0.153517
H43   H     H_    0.270393 0.169081 0.389149 0.152735
H44   H     H_    0.160381 0.164297 0.463704 0.181338
O23   O     O_3   0.258709 0.908758 0.566314 -0.539623
C57   C     C_3   0.246917 0.892313 0.695793 -0.159303
H45   H     H_    0.242426 0.961283 0.750005 0.137723
H46   H     H_    0.301245 0.845211 0.728763 0.149727
H47   H     H_    0.183230 0.854600 0.714637 0.209139
O24   O     O_3   0.739465 0.093236 0.426144 -0.557347
C58   C     C_3   0.778323 0.106706 0.541164 -0.275695
H48   H     H_    0.789551 0.037129 0.588800 0.179881
H49   H     H_    0.736860 0.156826 0.603748 0.149844
H50   H     H_    0.844453 0.139502 0.522930 0.171130

loop_
_geom_bond_atom_site_label_1
_geom_bond_atom_site_label_2
_ccdc_geom_bond_type
C12   O18   S    
O15   C49   S    
C44   H7    S    
C50   H24   S    
C27   C29   S    
C51   H27   S    
C52   H31   S    
C46   H12   S    
C11   N1    A    
C19   C20   A    
C2    C37   S    
C25   O8    A    
C12   N2    A    
C26   O7    A    
C6    C9    A    
C53   H34   S    
C39   C41   A    
O13   C47   S    
C15   C19   A    
C58   H49   S    
O22   C56   S    
C18   C24   A    
C35   C37   A    
C8    C42   A    
C29   C32   S    
C54   H37   S    
C30   C31   S    
C51   H28   S    
C47   H16   S    
C22   O22   S    
O18   C52   S    
C43   H4    S    
C29   C33   S    
O20   C54   S    
C51   H29   S    
C8    F2    S    
C2    O2    A    
C17   C19   A    
C35   O15   S    
Cu1   O5    S    
C3    C41   A    
O19   C53   S    
C45   H9    S    
C1    O1    A    
C52   H30   S    
C31   C33   S    
C25   C34   S    
C39   H1    S    
C24   O24   S    
C43   H5    S    
C40   C42   A    
C44   H8    S    
C50   H25   S    
C46   H13   S    
C28   O12   S    
C26   O6    A    
C53   H33   S    
C27   C34   S    
C37   C39   A    
C58   H50   S    
C30   C34   S    
C27   C31   S    
O11   C45   S    
O17   C51   S    
C28   C32   S    
C4    C6    A    
C54   H38   S    
C13   N1    A    
C47   H15   S    
Cu1   O1    S    
C14   N2    A    
C43   H3    S    
C32   C34   S    
C30   O14   S    
C40   H2    S    
Cu1   Cu2   S    
C56   H43   S    
O10   C44   S    
Cu2   O8    S    
C26   C33   S    
C48   H18   S    
C49   H23   S    
C16   C20   A    
C23   O23   S    
C11   O17   S    
C17   C23   A    
C10   F4    S    
O21   C55   S    
C1    C38   S    
Cu1   O7    S    
C48   H19   S    
C49   H22   S    
C28   C33   S    
C50   H26   S    
C13   C15   A    
C52   H32   S    
C14   C16   A    
C55   H40   S    
C3    C4    A    
Cu2   O2    S    
C7    C9    A    
C11   C17   A    
C16   C22   A    
C7    F1    S    
C8    C10   A    
C25   O5    A    
O12   C46   S    
C3    C5    A    
Cu2   O4    S    
C45   H11   S    
C58   H48   S    
C9    F3    S    
C36   O16   S    
C31   O9    S    
C55   H41   S    
C28   C30   S    
C56   H44   S    
C32   O10   S    
C5    C10   A    
C13   O19   S    
Cu2   N2    S    
C54   H36   S    
C38   C40   A    
C47   H17   S    
Cu1   O3    S    
O9    C43   S    
C4    C42   A    
C57   H47   S    
C14   O20   S    
C5    C35   A    
C36   C38   A    
O16   C50   S    
C46   H14   S    
C6    C36   A    
C57   H45   S    
C18   C20   A    
C7    C41   A    
C21   O21   S    
O23   C57   S    
C1    O4    A    
C27   O11   S    
C2    O3    A    
C44   H6    S    
Cu2   O6    S    
C15   C21   A    
C48   H20   S    
C29   O13   S    
C49   H21   S    
C57   H46   S    
O14   C48   S    
C21   C24   A    
C12   C18   A    
C45   H10   S    
C22   C23   A    
O24   C58   S    
C55   H39   S    
Cu1   N1    S    
C53   H35   S    
C56   H42   S    
