data_mof_unit_52228.cif
_audit_creation_date              2012-12-10T17:35:36-0500
_audit_creation_method            fapswitch 2.2
_symmetry_space_group_name_H-M    P1
_symmetry_Int_Tables_number       1
_space_group_crystal_system       triclinic
_cell_length_a                    10.74674
_cell_length_b                    12.357784
_cell_length_c                    13.208044
_cell_angle_alpha                 116.660647
_cell_angle_beta                  76.831632
_cell_angle_gamma                 101.729331
_cell_volume                      1516.05829906

loop_
_atom_site_label
_atom_site_type_symbol
_atom_type_description
_atom_site_fract_x
_atom_site_fract_y
_atom_site_fract_z
_atom_type_partial_charge
C1    C     C_R   0.512906 0.855030 0.286487 0.875233
C2    C     C_3   0.122398 0.999007 0.497413 -0.009758
C3    C     C_3   0.057683 0.067615 0.623077 -0.372043
C4    C     C_3   0.054457 0.866445 0.441612 0.515981
C5    C     C_R   0.322514 0.280127 0.019979 -0.159929
C6    C     C_R   0.456696 0.228392 0.834984 -0.053246
C7    C     C_R   0.615151 0.813480 0.087965 -0.294797
C8    C     C_R   0.650994 0.732875 0.975238 0.654481
C9    C     C_R   0.602845 0.610328 0.937132 -0.238064
C10   C     C_R   0.512092 0.566259 0.010396 -0.076739
C11   C     C_R   0.465188 0.651687 0.121992 -0.054800
C12   C     C_R   0.739768 0.000653 0.500868 0.765093
C13   C     C_R   0.465397 0.440489 0.976298 0.104335
C14   C     C_R   0.368617 0.403563 0.051374 0.062985
C15   C     C_R   0.314222 0.490336 0.154690 -0.300077
C16   C     C_R   0.358332 0.612919 0.188111 0.607615
C17   C     C_R   0.510424 0.349917 0.869259 -0.224404
C18   C     C_R   0.365998 0.193147 0.912112 -0.196870
C19   C     C_R   0.525930 0.773540 0.163310 -0.171922
C20   C     C_R   0.706109 0.345406 0.325087 -0.288295
C21   C     C_R   0.330674 0.756525 0.653204 0.387754
C22   C     C_R   0.310590 0.664063 0.690586 -0.239090
C23   C     C_R   0.481675 0.145101 0.713502 0.762254
C24   C     C_R   0.375419 0.563656 0.632410 -0.237620
C25   C     C_R   0.466684 0.552912 0.535675 0.005423
C26   C     C_R   0.495517 0.653293 0.503404 0.269069
C27   C     C_R   0.534141 0.447478 0.473899 -0.016861
C28   C     C_R   0.635930 0.446052 0.384592 0.176095
C29   C     C_R   0.667369 0.545309 0.356134 -0.269359
C30   C     C_R   0.598687 0.646163 0.413769 -0.186550
C31   C     C_R   0.504396 0.342324 0.497157 0.019933
C32   C     C_R   0.674267 0.246438 0.353871 0.065784
C33   C     C_R   0.260554 0.997916 0.496647 0.811866
C34   C     C_3   0.964239 0.063621 0.426036 -0.403717
C35   C     C_3   0.107217 0.067375 0.427975 -0.492940
C36   C     C_3   0.909047 0.063798 0.631741 0.309788
C37   C     C_3   0.911609 0.867866 0.441518 -0.515627
C38   C     C_3   0.877547 0.001694 0.502936 0.068770
Cu1   Cu    Cu3+1 0.529690 0.098270 0.475420 0.922927
Cu2   Cu    Cu3+1 0.470310 0.901730 0.524580 0.970617
H1    H     H_    0.942508 0.155492 0.447562 0.204941
H2    H     H_    0.079840 0.026888 0.675719 0.172094
H3    H     H_    0.323300 0.100020 0.887199 0.136147
H4    H     H_    0.234454 0.463451 0.208900 0.175388
H5    H     H_    0.248865 0.251462 0.077116 0.133408
H6    H     H_    0.584628 0.371120 0.808649 0.146768
H7    H     H_    0.661416 0.906489 0.117512 0.170612
H8    H     H_    0.637725 0.553273 0.849340 0.155196
H9    H     H_    0.945953 0.010363 0.335836 0.162871
H10   H     H_    0.728503 0.168870 0.308144 0.120409
H11   H     H_    0.746337 0.545204 0.288309 0.155108
H12   H     H_    0.785183 0.343318 0.256838 0.139927
H13   H     H_    0.424920 0.333184 0.560204 0.122574
H14   H     H_    0.353997 0.497582 0.668007 0.143904
H15   H     H_    0.242796 0.669241 0.766721 0.156246
H16   H     H_    0.632224 0.717626 0.386604 0.195339
H17   H     H_    0.158416 0.024514 0.338516 0.177531
H18   H     H_    0.150726 0.163952 0.466265 0.207756
H19   H     H_    0.104551 0.163171 0.658423 0.149779
H20   H     H_    0.849722 0.808533 0.480630 0.216631
H21   H     H_    0.892971 0.825229 0.351242 0.124570
H22   H     H_    0.102041 0.820515 0.351422 0.138812
N1    N     N_R   0.574690 0.246280 0.438200 -0.182459
N2    N     N_R   0.426100 0.754320 0.561190 -0.208006
O1    O     O_R   0.537340 0.972510 0.318130 -0.596999
O2    O     O_R   0.487200 0.806530 0.359650 -0.545502
O3    O     O_R   0.707380 0.082980 0.479220 -0.587913
O4    O     O_R   0.657240 0.917000 0.520740 -0.626404
O5    O     O_R   0.512800 0.193470 0.640350 -0.582173
O6    O     O_R   0.462660 0.027490 0.681870 -0.612727
O7    O     O_R   0.342760 0.083000 0.479260 -0.603112
O8    O     O_R   0.292620 0.917020 0.520780 -0.505416
F1    F     F_    0.063605 0.798422 0.498320 -0.658483
C39   C     C_3   0.838331 0.983316 0.698343 -0.416341
C40   C     C_3   0.845164 0.039833 0.827453 -0.874392
H23   H     H_    0.943866 0.080947 0.845798 0.240200
H24   H     H_    0.778012 0.110262 0.876063 0.247945
H25   H     H_    0.814816 0.968093 0.859679 0.308522
H26   H     H_    0.734681 0.961722 0.691494 0.231430
H27   H     H_    0.878673 0.895225 0.660617 0.259302
F2    F     F_    0.738225 0.772475 0.903600 -0.696793
F3    F     F_    0.288813 0.693137 0.280980 -0.664895
C41   C     C_3   0.245872 0.857629 0.725911 -0.403486
C42   C     C_3   0.102244 0.809841 0.731401 -0.746064
H28   H     H_    0.080254 0.741239 0.646059 0.317940
H29   H     H_    0.071986 0.767143 0.792630 0.236499
H30   H     H_    0.044449 0.886450 0.762470 0.250931
H31   H     H_    0.268355 0.899263 0.814536 0.161889
H32   H     H_    0.260194 0.931234 0.699317 0.251196
C43   C     C_3   0.864217 0.194979 0.706407 -0.355268
C44   C     C_3   0.908675 0.294022 0.662355 -0.861741
H33   H     H_    0.011036 0.293417 0.622238 0.250830
H34   H     H_    0.845334 0.286338 0.603375 0.266228
H35   H     H_    0.898768 0.384736 0.735813 0.241411
H36   H     H_    0.757417 0.186890 0.725786 0.190299
H37   H     H_    0.899200 0.233703 0.790093 0.214246

loop_
_geom_bond_atom_site_label_1
_geom_bond_atom_site_label_2
_ccdc_geom_bond_type
C2    C35   S    
C24   C25   A    
C3    H2    S    
C23   O5    A    
C42   H30   S    
C7    C8    A    
C12   O4    A    
C11   C19   A    
C29   C30   A    
Cu2   O6    S    
C35   H18   S    
C28   C29   A    
C42   H29   S    
C15   H4    S    
C20   C32   A    
C24   H14   S    
C15   C16   A    
C4    H22   S    
C34   C35   S    
C26   N2    A    
C21   N2    A    
C33   O8    A    
C21   C41   S    
C8    C9    A    
C1    O1    A    
C9    C10   A    
C41   H31   S    
Cu2   O2    S    
C21   C22   A    
Cu1   O1    S    
C23   O6    A    
C34   H1    S    
C41   H32   S    
C4    F1    S    
C6    C18   A    
C12   O3    A    
C1    C19   S    
C39   C40   S    
C27   C31   A    
C8    F2    S    
C31   N1    A    
C43   H36   S    
C17   H6    S    
C44   H33   S    
C5    C18   A    
C20   C28   A    
C25   C26   A    
C5    H5    S    
C31   H13   S    
C7    H7    S    
C2    C4    S    
C40   H23   S    
C37   C38   S    
C44   H34   S    
C11   C16   A    
C41   C42   S    
C16   F3    S    
C1    O2    A    
Cu1   O5    S    
C42   H28   S    
C40   H24   S    
C32   H10   S    
C5    C14   A    
C36   C39   S    
C2    C33   S    
C26   C30   A    
C7    C19   A    
C39   H26   S    
C22   C24   A    
Cu1   Cu2   S    
C29   H11   S    
C36   C43   S    
C6    C17   A    
C34   H9    S    
Cu2   O8    S    
C34   C38   S    
Cu1   O3    S    
C32   N1    A    
C10   C13   A    
C37   H21   S    
C43   H37   S    
C22   H15   S    
C25   C27   A    
Cu1   N1    S    
Cu2   N2    S    
C13   C17   A    
C35   H17   S    
C36   C38   S    
C2    C3    S    
C20   H12   S    
C18   H3    S    
C44   H35   S    
C43   C44   S    
C30   H16   S    
C3    C36   S    
C6    C23   S    
C12   C38   S    
C40   H25   S    
C37   H20   S    
C10   C11   A    
C33   O7    A    
C4    C37   S    
C9    H8    S    
Cu2   O4    S    
C27   C28   A    
Cu1   O7    S    
C14   C15   A    
C39   H27   S    
C13   C14   A    
C3    H19   S    
