data_mof_unit_57898.cif
_audit_creation_date              2012-10-26T19:30:41-0400
_audit_creation_method            fapswitch 2.2
_symmetry_space_group_name_H-M    P1
_symmetry_Int_Tables_number       1
_space_group_crystal_system       triclinic
_cell_length_a                    19.323796
_cell_length_b                    10.612273
_cell_length_c                    9.434848
_cell_angle_alpha                 89.998029
_cell_angle_beta                  89.438883
_cell_angle_gamma                 90.07007
_cell_volume                      1934.70437386

loop_
_atom_site_label
_atom_site_type_symbol
_atom_type_description
_atom_site_fract_x
_atom_site_fract_y
_atom_site_fract_z
_atom_type_partial_charge
C1    C     C_R   0.500023 0.259465 0.499825 0.552174
C2    C     C_3   0.500551 0.040690 0.365143 -0.115898
C3    C     C_3   0.540052 0.586275 0.047885 0.117615
C4    C     C_3   0.459976 0.413704 0.952128 0.117597
C5    C     C_3   0.478706 0.607269 0.949309 -0.005710
C6    C     C_3   0.521319 0.392750 0.050702 -0.005993
C7    C     C_3   0.561714 0.479571 0.947918 -0.002729
C8    C     C_3   0.438293 0.520414 0.052076 -0.002454
C9    C     C_R   0.367489 0.500062 0.500858 0.542812
C10   C     C_R   0.632489 0.499712 0.499135 0.542334
C11   C     C_R   0.255585 0.503810 0.634108 -0.125252
C12   C     C_R   0.499985 0.740535 0.500175 0.552376
C13   C     C_R   0.744185 0.487870 0.366049 -0.122321
C14   C     C_R   0.183027 0.504840 0.640063 0.018095
C15   C     C_R   0.816622 0.483287 0.360397 0.018040
C16   C     C_R   0.145741 0.501139 0.511105 0.052102
C17   C     C_R   0.854012 0.490355 0.488671 0.046920
C18   C     C_R   0.181965 0.499640 0.381379 -0.136245
C19   C     C_R   0.818064 0.498685 0.618325 -0.135155
C20   C     C_R   0.253915 0.498961 0.377647 -0.145482
C21   C     C_R   0.746120 0.502399 0.622131 -0.144897
C22   C     C_R   0.291327 0.500600 0.503895 -0.004001
C23   C     C_3   0.556631 0.042103 0.566761 -0.123307
C24   C     C_R   0.708592 0.497417 0.496044 -0.005190
C25   C     C_R   0.929933 0.491305 0.492107 0.329458
C26   C     C_R   0.069710 0.498741 0.506420 0.332877
C27   C     C_3   0.148300 0.514366 0.784714 -0.272384
C28   C     C_3   0.114398 0.642869 0.807210 -0.421353
C29   C     C_3   0.850942 0.463527 0.217077 -0.268753
C30   C     C_3   0.851422 0.585028 0.130456 -0.426564
C31   C     C_3   0.587245 0.690822 0.103090 -0.266273
C32   C     C_3   0.627050 0.754527 0.982285 -0.475206
C33   C     C_3   0.413053 0.308735 0.897029 -0.266271
C34   C     C_3   0.443388 0.957896 0.433243 -0.123162
C35   C     C_3   0.373469 0.244751 0.017951 -0.473778
C36   C     C_3   0.557131 0.958028 0.432832 -0.128573
C37   C     C_3   0.442888 0.041970 0.567173 -0.128489
C38   C     C_3   0.499973 0.877520 0.500773 0.044832
C39   C     C_3   0.500046 0.122479 0.499231 0.044824
C40   C     C_3   0.499470 0.959308 0.634861 -0.115915
Cu1   Cu    Cu3+1 0.500020 0.499990 0.643150 0.909241
Cu2   Cu    Cu3+1 0.499980 0.500010 0.356850 0.908776
H1    H     H_    0.284369 0.507178 0.731998 0.115725
H2    H     H_    0.396244 0.079621 0.622150 0.103181
H3    H     H_    0.602891 0.079776 0.621371 0.109175
H4    H     H_    0.397128 0.920226 0.378632 0.109163
H5    H     H_    0.498962 0.923498 0.745443 0.105944
H6    H     H_    0.501067 0.076493 0.254560 0.105863
H7    H     H_    0.461081 0.697561 0.902556 0.096820
H8    H     H_    0.538965 0.302475 0.097465 0.096565
H9    H     H_    0.153394 0.719058 0.793805 0.151168
H10   H     H_    0.071712 0.658103 0.731421 0.176814
H11   H     H_    0.092605 0.648203 0.916391 0.143359
H12   H     H_    0.715605 0.481593 0.268012 0.120532
H13   H     H_    0.110036 0.437676 0.800283 0.176832
H14   H     H_    0.186830 0.501509 0.870302 0.122445
H15   H     H_    0.797684 0.617028 0.110304 0.136915
H16   H     H_    0.879751 0.660333 0.187552 0.183266
H17   H     H_    0.877590 0.568151 0.026884 0.140466
H18   H     H_    0.904567 0.427752 0.226813 0.171444
H19   H     H_    0.822309 0.389773 0.157805 0.130652
H20   H     H_    0.661582 0.685798 0.928050 0.146232
H21   H     H_    0.590668 0.795035 0.904106 0.154920
H22   H     H_    0.659353 0.831848 0.025483 0.136129
H23   H     H_    0.613577 0.462109 0.900421 0.096124
H24   H     H_    0.555415 0.763155 0.157868 0.161442
H25   H     H_    0.624878 0.650922 0.178670 0.166178
H26   H     H_    0.409994 0.204452 0.095981 0.154269
H27   H     H_    0.338873 0.313259 0.072364 0.147563
H28   H     H_    0.341287 0.167218 0.974853 0.136835
H29   H     H_    0.375339 0.348224 0.821382 0.165487
H30   H     H_    0.445070 0.236629 0.842327 0.161415
H31   H     H_    0.386425 0.537841 0.099556 0.095555
H32   H     H_    0.154340 0.497043 0.282008 0.125020
H33   H     H_    0.845911 0.504257 0.717296 0.122805
H34   H     H_    0.280147 0.496718 0.275717 0.117970
H35   H     H_    0.719993 0.509626 0.723882 0.118307
H36   H     H_    0.603776 0.920377 0.377857 0.103143
N1    N     N_R   0.035727 0.569457 0.409613 -0.240978
N2    N     N_R   0.963866 0.420591 0.588828 -0.237265
N3    N     N_R   0.967019 0.566391 0.403165 -0.240316
N4    N     N_R   0.032557 0.423628 0.595120 -0.241893
N5    N     N_3   0.500050 0.499970 0.858290 -0.234624
N6    N     N_3   0.499950 0.500030 0.141710 -0.234619
O1    O     O_R   0.500030 0.316850 0.620870 -0.512049
O2    O     O_R   0.499970 0.683150 0.379130 -0.511901
O3    O     O_R   0.500000 0.316860 0.379090 -0.504260
O4    O     O_R   0.500000 0.683140 0.620910 -0.504132
O5    O     O_R   0.400160 0.499980 0.620930 -0.513753
O6    O     O_R   0.599840 0.500020 0.379070 -0.514526
O7    O     O_R   0.400130 0.499990 0.379150 -0.502143
O8    O     O_R   0.599870 0.500010 0.620850 -0.501977

loop_
_geom_bond_atom_site_label_1
_geom_bond_atom_site_label_2
_ccdc_geom_bond_type
C1    O3    A    
C40   H5    S    
C7    N5    S    
C23   H3    S    
C31   H24   S    
C25   N2    A    
Cu1   Cu2   S    
Cu1   O5    S    
C4    C8    S    
C9    O7    A    
C31   H25   S    
C19   C21   A    
C37   C40   S    
C3    C7    S    
C5    N5    S    
C28   H9    S    
C27   H13   S    
C9    C22   S    
C23   C40   S    
C34   C37   S    
C30   H15   S    
C20   H34   S    
Cu2   O7    S    
C33   H30   S    
C17   C19   A    
C2    C39   S    
C35   H28   S    
C11   H1    S    
C34   H4    S    
C14   C27   S    
C2    C34   S    
C10   O8    A    
C26   N4    A    
C8    N6    S    
C25   N3    A    
C5    H7    S    
C15   C29   S    
C16   C26   S    
C29   H19   S    
C6    N6    S    
C12   O4    A    
Cu2   N6    S    
C32   H22   S    
N2    N4    A    
C9    O5    A    
N1    N3    A    
C33   H29   S    
C27   H14   S    
C10   C24   S    
C13   C24   A    
Cu2   O6    S    
C29   C30   S    
C7    H23   S    
C31   C32   S    
C29   H18   S    
C30   H17   S    
C16   C18   A    
C6    H8    S    
C3    C31   S    
C10   O6    A    
Cu2   O2    S    
C4    C6    S    
C20   C22   A    
C13   C15   A    
C14   C16   A    
C1    O1    A    
C3    N6    S    
C13   H12   S    
C2    C36   S    
C15   C17   A    
Cu1   O4    S    
C4    C33   S    
C34   C38   S    
C32   H21   S    
C3    C5    S    
C5    C8    S    
C28   H11   S    
C6    C7    S    
Cu1   O1    S    
C11   C22   A    
C26   N1    A    
C12   O2    A    
C2    H6    S    
C37   H2    S    
C36   C38   S    
C17   C25   S    
C37   C39   S    
C36   H36   S    
C38   C40   S    
C28   H10   S    
C33   C35   S    
C4    N5    S    
C35   H26   S    
C23   C39   S    
C30   H16   S    
C19   H33   S    
C8    H31   S    
C11   C14   A    
C18   C20   A    
C12   C38   S    
C1    C39   S    
C32   H20   S    
Cu1   O8    S    
C35   H27   S    
C18   H32   S    
C23   C36   S    
C21   C24   A    
C21   H35   S    
C27   C28   S    
Cu2   O3    S    
Cu1   N5    S    
