data_mof_unit_16097.cif
_audit_creation_date              2013-03-05T15:40:53-0500
_audit_creation_method            fapswitch 2.2
_symmetry_space_group_name_H-M    P1
_symmetry_Int_Tables_number       1
_space_group_crystal_system       triclinic
_cell_length_a                    17.399714
_cell_length_b                    24.351907
_cell_length_c                    15.023671
_cell_angle_alpha                 89.558558
_cell_angle_beta                  125.504766
_cell_angle_gamma                 90.081639
_cell_volume                      5181.97693509

loop_
_atom_site_label
_atom_site_type_symbol
_atom_site_description
_atom_site_fract_x
_atom_site_fract_y
_atom_site_fract_z
_atom_type_partial_charge
C1    C     C_R   0.807666 0.624122 0.905424 -0.045611
C2    C     C_R   0.161924 0.648347 0.092545 -0.082349
C3    C     C_R   0.307650 0.124096 0.905466 -0.044942
C4    C     C_R   0.661926 0.148346 0.092545 -0.082403
H1    H     H_    0.748935 0.630018 0.821175 0.110605
H2    H     H_    0.203012 0.663751 0.175210 0.145035
H3    H     H_    0.248882 0.129968 0.821229 0.110902
H4    H     H_    0.703014 0.163751 0.175209 0.145063
N1    N     N_R   0.892320 0.603520 0.941090 -0.049403
N2    N     N_R   0.107680 0.603520 0.058910 -0.055525
N3    N     N_R   0.392320 0.103520 0.941090 -0.049482
N4    N     N_R   0.607680 0.103520 0.058910 -0.055510
C5    C     C_R   0.904843 0.377029 0.093231 -0.068059
C6    C     C_R   0.072490 0.357681 0.906592 -0.045206
C7    C     C_R   0.404842 0.877032 0.093232 -0.068100
C8    C     C_R   0.572639 0.857736 0.906628 -0.044893
H5    H     H_    0.931751 0.370688 0.177231 0.150512
H6    H     H_    0.034795 0.344589 0.822574 0.128596
H7    H     H_    0.431748 0.870694 0.177232 0.150505
H8    H     H_    0.535042 0.844646 0.822618 0.127708
N5    N     N_R   0.953790 0.399020 0.058440 -0.052619
N6    N     N_R   0.046210 0.399020 0.941560 -0.052183
N7    N     N_R   0.453790 0.899020 0.058440 -0.052632
N8    N     N_R   0.546210 0.899020 0.941560 -0.052162
C9    C     C_R   0.034836 0.545626 0.295958 0.287441
C10   C     C_R   0.953565 0.546812 0.698394 0.327304
C11   C     C_R   0.534873 0.045623 0.295983 0.287451
C12   C     C_R   0.453571 0.046812 0.698397 0.327302
N9    N     N_R   0.026760 0.529450 0.205590 -0.095318
N10   N     N_R   0.973240 0.529450 0.794410 -0.093553
N11   N     N_R   0.526760 0.029450 0.205590 -0.095288
N12   N     N_R   0.473240 0.029450 0.794410 -0.093545
C13   C     C_R   0.741846 0.455707 0.700805 -0.138010
C14   C     C_R   0.268678 0.454803 0.256721 -0.076112
C15   C     C_R   0.241847 0.955709 0.700803 -0.138020
C16   C     C_R   0.768685 0.954807 0.256768 -0.076027
H9    H     H_    0.727876 0.413836 0.672014 0.122582
H10   H     H_    0.291307 0.412627 0.278130 0.105409
H11   H     H_    0.227874 0.913837 0.672012 0.122559
H12   H     H_    0.791329 0.912637 0.278236 0.105390
N13   N     N_R   0.819350 0.473090 0.793940 -0.051810
N14   N     N_R   0.180650 0.473090 0.206060 -0.049775
N15   N     N_R   0.319350 0.973090 0.793940 -0.051811
N16   N     N_R   0.680650 0.973090 0.206060 -0.049786
C17   C     C_R   0.034563 0.454606 0.294209 -0.187854
C18   C     C_R   0.953998 0.455542 0.699466 -0.138475
C19   C     C_R   0.534589 0.954604 0.294223 -0.187892
C20   C     C_R   0.454002 0.955543 0.699469 -0.138204
H13   H     H_    0.046124 0.412335 0.321646 0.139195
H14   H     H_    0.936966 0.413441 0.672814 0.127491
H15   H     H_    0.546149 0.912332 0.321653 0.139160
H16   H     H_    0.436974 0.913441 0.672817 0.127306
N17   N     N_R   0.027860 0.473090 0.206590 -0.070889
N18   N     N_R   0.972140 0.473090 0.793410 -0.069478
N19   N     N_R   0.527860 0.973090 0.206590 -0.070878
N20   N     N_R   0.472140 0.973090 0.793410 -0.069444
C21   C     C_R   0.739918 0.547062 0.700495 -0.095128
C22   C     C_R   0.269967 0.546729 0.255976 -0.051175
C23   C     C_R   0.239921 0.047064 0.700498 -0.095207
C24   C     C_R   0.769967 0.046732 0.255994 -0.051138
H17   H     H_    0.724500 0.589098 0.671561 0.146917
H18   H     H_    0.293601 0.588737 0.275702 0.119551
H19   H     H_    0.224503 0.089102 0.671574 0.147032
H20   H     H_    0.793595 0.088741 0.275717 0.119597
N21   N     N_R   0.818250 0.529450 0.792940 -0.051643
N22   N     N_R   0.181750 0.529450 0.207060 -0.039917
N23   N     N_R   0.318250 0.029450 0.792940 -0.051685
N24   N     N_R   0.681750 0.029450 0.207060 -0.039928
C25   C     C_R   0.812735 0.377751 0.910910 -0.124836
C26   C     C_R   0.162705 0.356437 0.089691 -0.147902
C27   C     C_R   0.312734 0.877752 0.910910 -0.124924
C28   C     C_R   0.662841 0.856512 0.089731 -0.148090
H21   H     H_    0.753608 0.374292 0.826588 0.103788
H22   H     H_    0.207368 0.341673 0.173138 0.110079
H23   H     H_    0.253607 0.874293 0.826588 0.103799
H24   H     H_    0.707526 0.841749 0.173176 0.110186
N25   N     N_R   0.896320 0.399020 0.944720 -0.042192
N26   N     N_R   0.103680 0.399020 0.055280 -0.043513
N27   N     N_R   0.396320 0.899020 0.944720 -0.042214
N28   N     N_R   0.603680 0.899020 0.055280 -0.043559
C29   C     C_R   0.898874 0.623845 0.088016 -0.043630
C30   C     C_R   0.071202 0.647575 0.909889 -0.073318
C31   C     C_R   0.398899 0.123822 0.088057 -0.044304
C32   C     C_R   0.571204 0.147573 0.909888 -0.073259
H25   H     H_    0.922960 0.628832 0.171359 0.128335
H26   H     H_    0.032873 0.661207 0.826082 0.167011
H27   H     H_    0.423003 0.128781 0.171409 0.128331
H28   H     H_    0.532875 0.161206 0.826082 0.167012
N29   N     N_R   0.949790 0.603520 0.054810 -0.047587
N30   N     N_R   0.050210 0.603520 0.945190 -0.054180
N31   N     N_R   0.449790 0.103520 0.054810 -0.047549
N32   N     N_R   0.550210 0.103520 0.945190 -0.054177
C33   C     C_R   0.809133 0.635890 0.995918 0.085949
C34   C     C_R   0.140732 0.676237 0.000558 0.061066
C35   C     C_R   0.309148 0.135850 0.995999 0.085513
C36   C     C_R   0.640734 0.176235 0.000558 0.061032
C37   C     C_R   0.814760 0.364887 0.002493 -0.032312
C38   C     C_R   0.146273 0.330767 0.998527 0.006184
C39   C     C_R   0.314759 0.864889 0.002493 -0.032273
C40   C     C_R   0.646532 0.830891 0.998604 0.007281
C41   C     C_R   0.033136 0.499083 0.348369 0.057143
C42   C     C_R   0.940549 0.501163 0.636880 -0.024051
C43   C     C_R   0.533185 0.999079 0.348401 0.057187
C44   C     C_R   0.440560 0.001163 0.636885 -0.024072
C45   C     C_R   0.691208 0.501423 0.643119 0.109275
C46   C     C_R   0.325064 0.500324 0.285934 0.066282
C47   C     C_R   0.191214 0.001426 0.643120 0.109342
C48   C     C_R   0.825066 0.000329 0.285973 0.066359
Ni1   Ni    Ni4+2 0.934100 0.565890 0.869590 0.293497
Ni2   Ni    Ni4+2 0.065900 0.565890 0.130410 0.311740
Ni3   Ni    Ni4+2 0.434100 0.065890 0.869590 0.293559
Ni4   Ni    Ni4+2 0.565900 0.065890 0.130410 0.311726
Ni5   Ni    Ni4+2 0.068420 0.436630 0.132700 0.221047
Ni6   Ni    Ni4+2 0.931580 0.436630 0.867300 0.215217
Ni7   Ni    Ni4+2 0.568420 0.936630 0.132700 0.221045
Ni8   Ni    Ni4+2 0.431580 0.936630 0.867300 0.215190
C49   C     C_3   0.522326 0.464200 0.530484 -0.249758
C50   C     C_3   0.490550 0.449547 0.413772 -0.240243
C51   C     C_3   0.022332 0.964211 0.530513 -0.249808
C52   C     C_3   0.990544 0.949553 0.413800 -0.240193
C53   C     C_3   0.456238 0.514077 0.486336 0.415864
C54   C     C_3   0.568351 0.486917 0.427080 0.432055
C55   C     C_3   0.956249 0.014090 0.486367 0.415856
C56   C     C_3   0.068343 0.986917 0.427091 0.432077
H29   H     H_    0.532678 0.434801 0.593510 0.166174
H30   H     H_    0.471795 0.408088 0.376746 0.171333
H31   H     H_    0.032689 0.934816 0.593547 0.166194
H32   H     H_    0.971783 0.908093 0.376779 0.171382
C57   C     C_3   0.424733 0.499764 0.370777 0.013043
C58   C     C_3   0.598644 0.501376 0.541835 0.019087
C59   C     C_3   0.924733 0.999772 0.370808 0.012944
C60   C     C_3   0.098647 0.001382 0.541847 0.018989
C61   C     C_3   0.500727 0.537038 0.381423 -0.230449
C62   C     C_3   0.532737 0.551471 0.498567 -0.252843
C63   C     C_3   0.000724 0.037041 0.381435 -0.230387
C64   C     C_3   0.032747 0.051480 0.498581 -0.252753
H33   H     H_    0.489494 0.566289 0.317804 0.167718
H34   H     H_    0.550470 0.593133 0.534689 0.166830
H35   H     H_    0.989484 0.066288 0.317809 0.167766
H36   H     H_    0.050487 0.093142 0.534698 0.167004
C65   C     C_2   0.122343 0.766587 0.919230 0.001397
C66   C     C_2   0.748668 0.687663 0.079884 -0.026827
C67   C     C_2   0.622345 0.266585 0.919229 0.001265
C68   C     C_2   0.248778 0.187608 0.080085 -0.027953
C69   C     C_2   0.175275 0.730313 0.000602 -0.134819
C70   C     C_2   0.732713 0.663260 0.991449 -0.122089
C71   C     C_2   0.675279 0.230310 0.000601 -0.134757
C72   C     C_2   0.232722 0.163137 0.991645 -0.121628
H37   H     H_    0.051586 0.756286 0.849835 0.147262
H38   H     H_    0.807400 0.676020 0.161866 0.146816
H39   H     H_    0.551587 0.256285 0.849835 0.147265
H40   H     H_    0.307641 0.176043 0.162048 0.146888
H41   H     H_    0.247338 0.739525 0.068255 0.161662
H42   H     H_    0.670611 0.674527 0.910926 0.152375
H43   H     H_    0.747342 0.239522 0.068252 0.161703
H44   H     H_    0.170469 0.174281 0.911148 0.153209
C73   C     C_2   0.665859 0.316246 0.911916 -0.257460
C74   C     C_2   0.200262 0.238944 0.067828 -0.317352
C75   C     C_2   0.165858 0.816248 0.911917 -0.257468
C76   C     C_2   0.700216 0.739027 0.067590 -0.317901
C77   C     C_2   0.736313 0.341787 0.002469 0.317058
C78   C     C_2   0.190617 0.279918 0.000677 0.336359
C79   C     C_2   0.236311 0.841789 0.002470 0.317064
C80   C     C_2   0.691100 0.780109 0.000907 0.335355
H45   H     H_    0.654389 0.322176 0.833520 0.125994
H46   H     H_    0.176097 0.244365 0.119593 0.148306
H47   H     H_    0.154388 0.822178 0.833521 0.125976
H48   H     H_    0.675486 0.744337 0.118818 0.148395
C81   C     C_2   0.944216 0.458364 0.407625 -0.146203
C82   C     C_2   0.916048 0.454934 0.481208 -0.035733
C83   C     C_2   0.444259 0.958362 0.407652 -0.146276
C84   C     C_2   0.416082 0.954934 0.481226 -0.035754
C85   C     C_2   0.008651 0.495584 0.424782 -0.143638
C86   C     C_2   0.910405 0.500989 0.524496 -0.074755
C87   C     C_2   0.508699 0.995579 0.424814 -0.143562
C88   C     C_2   0.410434 0.000989 0.524508 -0.074716
H49   H     H_    0.916178 0.428018 0.343312 0.190383
H50   H     H_    0.917390 0.414557 0.512915 0.150458
H51   H     H_    0.416220 0.928016 0.343337 0.190362
H52   H     H_    0.417415 0.914557 0.512929 0.150319
H53   H     H_    0.038447 0.525048 0.490656 0.195769
H54   H     H_    0.903535 0.540134 0.485498 0.188723
H55   H     H_    0.538493 0.025043 0.490689 0.195786
H56   H     H_    0.403573 0.040134 0.485514 0.188708
N33   N     N_R   0.738253 0.342014 0.099986 0.243383
O1    O     O_R   0.816107 0.333154 0.196069 -0.437807
O2    O     O_R   0.659848 0.347270 0.091621 -0.318068
N34   N     N_R   0.231903 0.277675 0.940910 0.244663
O3    O     O_R   0.185719 0.297197 0.841662 -0.393519
O4    O     O_R   0.321327 0.266472 0.992209 -0.348393
N35   N     N_R   0.238251 0.842016 0.099987 0.243391
O5    O     O_R   0.316105 0.833158 0.196070 -0.437896
O6    O     O_R   0.159846 0.847271 0.091621 -0.317872
N36   N     N_R   0.733216 0.778081 0.942015 0.244966
O7    O     O_R   0.688558 0.798879 0.843909 -0.392373
O8    O     O_R   0.822407 0.766123 0.993766 -0.348474
N37   N     N_R   0.069620 0.598412 0.345100 0.232881
O9    O     O_R   0.070870 0.612788 0.429106 -0.370128
O10   O     O_R   0.105359 0.631308 0.309493 -0.384343
N38   N     N_R   0.919395 0.600846 0.654937 0.217532
O11   O     O_R   0.938998 0.623942 0.592049 -0.393837
O12   O     O_R   0.871576 0.628191 0.681666 -0.436231
N39   N     N_R   0.569691 0.098403 0.345139 0.232890
O13   O     O_R   0.571004 0.112771 0.429190 -0.370081
O14   O     O_R   0.605403 0.131299 0.309501 -0.384405
N40   N     N_R   0.419401 0.100846 0.654938 0.217532
O15   O     O_R   0.439008 0.123943 0.592054 -0.393832
O16   O     O_R   0.371578 0.128191 0.681662 -0.436141
Br1   Br    Br    0.376570 0.533239 0.533005 -0.493046
Br2   Br    Br    0.654011 0.467531 0.389543 -0.499915
Br3   Br    Br    0.876591 0.033262 0.533044 -0.492732
Br4   Br    Br    0.153993 0.967524 0.389543 -0.499764

loop_
_geom_bond_atom_site_label_1
_geom_bond_atom_site_label_2
_geom_bond_distance
_ccdc_geom_bond_type
C22   H18   1.079506 S    
C46   C57   1.436886 S    
C21   C45   1.363822 A    
N39   O13   1.300290 A    
C61   H33   1.109966 S    
N8    N28   1.390849 A    
C30   C34   1.380003 A    
N12   Ni3   1.854077 S    
C73   C77   1.346911 D    
C26   N26   1.332434 A    
C52   C59   1.535148 S    
C12   N40   1.431547 S    
C81   C82   1.448130 S    
C66   C70   1.333693 D    
C25   N25   1.336140 A    
C14   N14   1.328993 A    
C3    N3    1.337924 A    
N13   Ni6   1.818322 S    
C68   C72   1.333833 D    
C9    C41   1.385165 A    
C86   H54   1.084726 S    
C27   N27   1.336142 A    
C65   H37   1.085283 S    
C63   C64   1.549680 S    
C44   C88   1.448219 S    
C2    H2    1.081346 S    
C7    H7    1.070774 S    
N39   O14   1.301126 A    
C32   N32   1.334445 A    
C21   H17   1.080412 S    
N19   Ni7   1.856248 S    
C82   H50   1.083603 S    
C11   N39   1.434281 S    
C76   C80   1.352806 D    
C87   H55   1.084882 S    
C20   H16   1.080248 S    
C59   C63   1.533315 S    
N16   N24   1.372656 A    
N24   Ni4   1.862775 S    
C80   N36   1.440887 S    
N10   N18   1.372656 A    
N33   O2    1.301676 A    
C16   C48   1.374111 A    
C20   C44   1.379190 A    
C56   C60   1.525575 S    
N34   O4    1.301714 A    
C50   C54   1.544530 S    
C4    H4    1.081346 S    
N37   O10   1.301125 A    
C49   C53   1.530726 S    
C48   C59   1.436836 S    
C77   N33   1.445778 S    
C23   N23   1.328229 A    
C4    C36   1.378934 A    
C41   C85   1.439841 S    
C64   H36   1.109992 S    
C65   C75   1.462806 S    
C66   C76   1.458733 S    
N16   Ni7   1.823889 S    
N17   Ni5   1.856248 S    
N38   O11   1.300355 A    
C55   Br3   1.940800 S    
C26   H22   1.080320 S    
C49   H29   1.110582 S    
N11   Ni4   1.844794 S    
C54   Br2   1.935141 S    
C67   C73   1.462802 S    
C53   Br1   1.940803 S    
C53   C62   1.532891 S    
C4    N4    1.337686 A    
C71   H43   1.085352 S    
C24   C48   1.375702 A    
C65   C69   1.341990 D    
C29   N29   1.340576 A    
C10   N38   1.431545 S    
C84   H52   1.083603 S    
C34   C69   1.446595 S    
C7    N7    1.340439 A    
N36   O7    1.300788 A    
C85   H53   1.084881 S    
C8    N8    1.336928 A    
N27   Ni8   1.838194 S    
N1    Ni1   1.856390 S    
C83   H51   1.086343 S    
C58   C62   1.533520 S    
N7    N27   1.390849 A    
C12   N12   1.339474 A    
C81   H49   1.086342 S    
C38   C78   1.450114 S    
C22   N22   1.328868 A    
C6    C38   1.383560 A    
C9    N9    1.343377 A    
C2    C34   1.378934 A    
C27   H23   1.076067 S    
C19   C43   1.368539 A    
N10   Ni1   1.854077 S    
C11   N11   1.343398 A    
N35   O5    1.300015 A    
C14   C46   1.374138 A    
N9    Ni2   1.844794 S    
C16   H12   1.078086 S    
C1    N1    1.337777 A    
N6    N26   1.390849 A    
N5    Ni5   1.867493 S    
N1    N29   1.390849 A    
C88   H56   1.084726 S    
N40   O15   1.300353 A    
C8    C40   1.383734 A    
C19   H15   1.080609 S    
C56   Br4   1.935146 S    
C30   H26   1.076621 S    
C83   C87   1.345348 D    
N29   Ni2   1.880216 S    
C13   H9    1.081589 S    
C28   N28   1.332291 A    
C52   C56   1.544521 S    
N34   O3    1.301318 A    
C22   C46   1.375739 A    
N31   Ni4   1.880216 S    
C15   H11   1.081589 S    
N35   O6    1.301676 A    
C54   C61   1.548693 S    
N3    N31   1.390849 A    
N15   Ni8   1.818322 S    
C29   C33   1.387160 A    
C12   C44   1.383144 A    
N14   Ni5   1.823889 S    
C70   H42   1.087997 S    
N28   Ni7   1.847969 S    
C17   H13   1.080607 S    
C8    H8    1.081260 S    
C31   C35   1.386962 A    
C18   N18   1.328770 A    
C43   C87   1.439853 S    
N36   O8    1.301537 A    
N20   Ni8   1.847084 S    
C5    N5    1.340439 A    
C33   C70   1.454285 S    
C40   C80   1.450074 S    
C5    C37   1.387655 A    
N22   Ni2   1.862775 S    
C25   H21   1.076066 S    
C49   C58   1.532297 S    
C83   C84   1.448126 S    
C82   C86   1.332718 D    
C17   C41   1.368558 A    
C39   C79   1.475403 S    
C1    H1    1.078041 S    
C1    C33   1.377255 A    
N8    Ni8   1.861841 S    
C37   C77   1.475398 S    
N32   Ni3   1.885931 S    
C61   C62   1.549682 S    
C57   C61   1.533322 S    
C16   N16   1.328994 A    
N26   Ni5   1.847969 S    
C73   H45   1.082732 S    
N25   Ni6   1.838194 S    
C2    N2    1.337686 A    
C32   C36   1.380000 A    
C67   C71   1.341990 D    
N4    Ni4   1.847174 S    
C3    C35   1.377444 A    
C15   N15   1.330915 A    
C74   H46   1.086547 S    
C19   N19   1.327287 A    
C28   C40   1.380409 A    
N23   Ni3   1.868482 S    
C20   N20   1.328769 A    
C36   C71   1.446592 S    
C60   C64   1.533521 S    
C67   H39   1.085283 S    
C56   C63   1.548687 S    
C55   C59   1.529503 S    
C14   H10   1.078115 S    
C23   H19   1.080418 S    
C6    H6    1.081246 S    
N4    N32   1.390850 A    
C35   C72   1.454321 S    
C32   H28   1.076619 S    
C53   C57   1.529522 S    
C47   C60   1.436201 S    
C51   C60   1.532289 S    
C31   H27   1.072746 S    
C62   H34   1.109996 S    
N13   N21   1.372479 A    
C51   C52   1.546135 S    
C52   H32   1.109995 S    
C9    N37   1.434273 S    
C10   N10   1.339475 A    
C45   C58   1.436252 S    
C51   C55   1.530724 S    
C42   C86   1.448219 S    
C54   C58   1.525588 S    
C31   N31   1.340447 A    
C18   H14   1.080247 S    
C3    H3    1.078044 S    
C30   N30   1.334446 A    
C13   C45   1.366658 A    
C5    H5    1.070771 S    
C55   C64   1.532892 S    
C24   H20   1.079505 S    
C63   H35   1.109966 S    
C13   N13   1.330924 A    
C6    N6    1.336778 A    
C69   H41   1.085352 S    
C68   H40   1.084044 S    
C50   C57   1.535151 S    
C49   C50   1.546146 S    
C10   C42   1.383144 A    
C78   N34   1.440625 S    
C66   H38   1.084052 S    
N33   O1    1.300015 A    
N21   Ni1   1.868482 S    
N9    N17   1.372479 A    
C28   H24   1.080310 S    
C21   N21   1.328255 A    
N18   Ni6   1.847084 S    
C11   C43   1.385169 A    
N7    Ni7   1.867493 S    
C75   H47   1.082732 S    
N2    Ni2   1.847174 S    
C75   C79   1.346913 D    
C76   H48   1.086541 S    
C27   C39   1.389093 A    
N37   O9    1.300288 A    
C50   H30   1.109994 S    
C23   C47   1.363801 A    
C15   C47   1.366662 A    
C24   N24   1.328852 A    
C74   C78   1.352714 D    
C17   N17   1.327295 A    
C84   C88   1.332715 D    
N6    Ni6   1.861841 S    
N2    N30   1.390850 A    
N15   N23   1.372479 A    
C7    C39   1.387657 A    
N5    N25   1.390849 A    
N14   N22   1.372656 A    
N3    Ni3   1.856390 S    
C81   C85   1.345343 D    
C79   N35   1.445778 S    
C72   H44   1.087974 S    
N30   Ni1   1.885931 S    
N11   N19   1.372479 A    
N40   O16   1.300289 A    
C68   C74   1.458869 S    
N12   N20   1.372656 A    
N38   O12   1.300289 A    
C29   H25   1.072774 S    
C26   C38   1.380662 A    
C25   C37   1.389091 A    
C18   C42   1.379187 A    
C51   H31   1.110582 S    
