data_mof_unit_30469.cif
_audit_creation_date              2012-12-11T16:44:11-0500
_audit_creation_method            fapswitch 2.2
_symmetry_space_group_name_H-M    P1
_symmetry_Int_Tables_number       1
_space_group_crystal_system       triclinic
_cell_length_a                    27.149019
_cell_length_b                    7.217351
_cell_length_c                    22.673917
_cell_angle_alpha                 89.959462
_cell_angle_beta                  102.057723
_cell_angle_gamma                 89.985046
_cell_volume                      4344.79747364

loop_
_atom_site_label
_atom_site_type_symbol
_atom_type_description
_atom_site_fract_x
_atom_site_fract_y
_atom_site_fract_z
_atom_type_partial_charge
O1    O     O_R   0.707300 0.594030 0.176840 -0.525394
O2    O     O_R   0.292700 0.405970 0.823160 -0.533627
O3    O     O_R   0.792700 0.094030 0.323160 -0.523933
O4    O     O_R   0.207300 0.905970 0.676840 -0.533477
O5    O     O_R   0.697330 0.262360 0.295660 -0.527450
O6    O     O_R   0.302670 0.737640 0.704340 -0.547196
O7    O     O_R   0.802670 0.762360 0.204340 -0.525921
O8    O     O_R   0.197330 0.237640 0.795660 -0.547205
C1    C     C_R   0.683693 0.433178 0.310054 0.727431
C2    C     C_R   0.317255 0.565970 0.690772 0.696664
C3    C     C_R   0.816249 0.933167 0.189862 0.723991
C4    C     C_R   0.182721 0.065943 0.809191 0.696043
O9    O     O_R   0.701410 0.264250 0.175600 -0.537475
O10   O     O_R   0.298590 0.735750 0.824400 -0.512721
O11   O     O_R   0.798590 0.764250 0.324400 -0.537475
O12   O     O_R   0.201410 0.235750 0.675600 -0.512730
O13   O     O_R   0.796800 0.094950 0.202240 -0.530106
O14   O     O_R   0.203200 0.905050 0.797760 -0.507569
O15   O     O_R   0.703200 0.594950 0.297760 -0.532566
O16   O     O_R   0.296800 0.405050 0.702240 -0.507428
C5    C     C_R   0.689918 0.432070 0.152811 0.762418
C6    C     C_R   0.310383 0.567707 0.847303 0.692519
C7    C     C_R   0.810065 0.931850 0.347233 0.765100
C8    C     C_R   0.189658 0.067888 0.652660 0.692179
O17   O     O_3   0.781290 0.427390 0.258880 -0.373628
O18   O     O_3   0.218710 0.572610 0.741120 -0.349753
O19   O     O_3   0.718710 0.927390 0.241120 -0.374956
O20   O     O_3   0.281290 0.072610 0.758880 -0.349720
V1    V     V_3+5 0.744190 0.152150 0.248350 1.548015
V2    V     V_3+5 0.255810 0.847850 0.751650 1.595561
V3    V     V_3+5 0.755810 0.652150 0.251650 1.549898
V4    V     V_3+5 0.244190 0.347850 0.748350 1.595507
C9    C     C_R   0.154322 0.063307 0.592370 -0.126344
C10   C     C_R   0.843715 0.930469 0.408157 -0.153224
C11   C     C_R   0.345743 0.562437 0.907571 -0.126356
C12   C     C_R   0.656254 0.431592 0.091936 -0.153726
C13   C     C_R   0.135386 0.121907 0.483400 0.098902
C14   C     C_R   0.861924 0.822330 0.512894 0.113447
C15   C     C_R   0.364487 0.617241 0.016706 0.098638
C16   C     C_R   0.638544 0.326863 0.986905 0.113854
C17   C     C_R   0.169772 0.124189 0.539813 -0.106599
C18   C     C_R   0.827025 0.851736 0.457563 -0.018183
C19   C     C_R   0.330181 0.621251 0.960248 -0.107230
C20   C     C_R   0.673352 0.357716 0.042158 -0.013173
C21   C     C_R   0.104347 0.002907 0.587725 -0.134394
C22   C     C_R   0.894895 0.973109 0.413945 -0.180209
C23   C     C_R   0.395774 0.502609 0.912121 -0.134378
C24   C     C_R   0.604929 0.470981 0.086348 -0.181444
C25   C     C_R   0.070455 0.981088 0.530971 0.070824
C26   C     C_R   0.931637 0.915547 0.464914 0.072216
C27   C     C_R   0.429621 0.479202 0.968852 0.070748
C28   C     C_R   0.568436 0.414452 0.035075 0.072193
C29   C     C_R   0.086831 0.042308 0.478731 0.111288
C30   C     C_R   0.914489 0.845931 0.515484 0.090707
C31   C     C_R   0.413082 0.538007 0.021232 0.111180
C32   C     C_R   0.585867 0.347874 0.984328 0.090902
C33   C     C_R   0.019676 0.911280 0.524524 -0.000845
C34   C     C_R   0.984959 0.930918 0.467700 0.006315
C35   C     C_R   0.480497 0.410218 0.975204 -0.000810
C36   C     C_R   0.515067 0.428159 0.032180 0.006573
C37   C     C_R   0.005543 0.955874 0.415571 -0.036793
C38   C     C_R   0.002059 0.816982 0.571255 -0.029968
C39   C     C_R   0.494322 0.450331 0.084297 -0.036045
C40   C     C_R   0.498396 0.318578 0.928216 -0.029923
C41   C     C_R   0.054922 0.018194 0.421925 -0.220819
C42   C     C_R   0.950299 0.792208 0.566888 -0.223368
C43   C     C_R   0.444881 0.511931 0.078020 -0.220737
C44   C     C_R   0.550230 0.295178 0.932664 -0.222962
H1    H     H_    0.069051 0.039882 0.381245 0.171912
H2    H     H_    0.938383 0.720165 0.603369 0.166678
H3    H     H_    0.430636 0.531590 0.118709 0.171703
H4    H     H_    0.562354 0.225457 0.895930 0.166766
H5    H     H_    0.905593 0.044912 0.376810 0.145782
H6    H     H_    0.092347 0.979141 0.629524 0.115943
H7    H     H_    0.594004 0.540246 0.123762 0.146584
H8    H     H_    0.407827 0.480480 0.870284 0.116151
C45   C     C_R   0.887774 0.106118 0.156208 -0.034751
C46   C     C_R   0.124886 0.881137 0.865745 0.042019
C47   C     C_R   0.612009 0.606275 0.343359 -0.054373
C48   C     C_R   0.374966 0.381323 0.634050 0.041980
C49   C     C_R   0.919463 0.124201 0.114695 -0.177998
C50   C     C_R   0.088344 0.880724 0.901381 -0.170409
C51   C     C_R   0.580235 0.624495 0.384775 -0.183015
C52   C     C_R   0.411422 0.381019 0.598297 -0.170466
H9    H     H_    0.941306 0.249836 0.115276 0.140165
H10   H     H_    0.078435 0.751679 0.920578 0.128503
H11   H     H_    0.558409 0.750253 0.384110 0.140119
H12   H     H_    0.421301 0.252039 0.579074 0.128409
C53   C     C_R   0.923867 0.982556 0.073543 0.059791
C54   C     C_R   0.063903 0.043585 0.912069 0.060218
C55   C     C_R   0.575754 0.482816 0.425951 0.067841
C56   C     C_R   0.435827 0.543899 0.587536 0.060385
C57   C     C_R   0.894869 0.821163 0.074192 -0.126239
C58   C     C_R   0.074982 0.208031 0.884820 -0.104571
C59   C     C_R   0.604683 0.321184 0.425342 -0.119085
C60   C     C_R   0.424795 0.708242 0.614822 -0.104547
H13   H     H_    0.897923 0.706367 0.044507 0.120469
H14   H     H_    0.055128 0.334674 0.890681 0.119351
H15   H     H_    0.601535 0.206266 0.454993 0.112646
H16   H     H_    0.444630 0.834876 0.608910 0.119268
C61   C     C_R   0.861316 0.804801 0.113186 -0.102385
C62   C     C_R   0.111219 0.209621 0.848881 -0.176424
C63   C     C_R   0.638315 0.304775 0.386461 -0.080734
C64   C     C_R   0.388644 0.709723 0.650876 -0.176187
H17   H     H_    0.838339 0.681280 0.110554 0.188258
H18   H     H_    0.116636 0.335279 0.825812 0.172183
H19   H     H_    0.661220 0.181146 0.389112 0.168216
H20   H     H_    0.383262 0.835292 0.673961 0.172383
C65   C     C_R   0.856453 0.946907 0.153969 -0.128054
C66   C     C_R   0.139403 0.050780 0.841577 -0.118381
C67   C     C_R   0.643348 0.446990 0.345753 -0.108647
C68   C     C_R   0.360502 0.550880 0.658273 -0.118239
C69   C     C_R   0.948867 0.916856 0.973889 -0.144746
C70   C     C_R   0.036666 0.127648 0.007303 -0.131973
C71   C     C_R   0.550789 0.417016 0.525628 -0.142490
C72   C     C_R   0.463031 0.628371 0.492266 -0.131590
H21   H     H_    0.914709 0.837707 0.958973 0.114432
H22   H     H_    0.070952 0.207221 0.021196 0.134342
H23   H     H_    0.584934 0.337650 0.540532 0.116265
H24   H     H_    0.428760 0.708178 0.478398 0.134207
C73   C     C_R   0.982479 0.932580 0.934888 -0.149595
C74   C     C_R   0.003791 0.108306 0.047009 -0.143806
C75   C     C_R   0.517203 0.432721 0.564650 -0.150233
C76   C     C_R   0.495889 0.609074 0.452537 -0.145282
H25   H     H_    0.974114 0.861992 0.891806 0.123283
H26   H     H_    0.014255 0.172800 0.090876 0.121924
H27   H     H_    0.525574 0.361914 0.607731 0.123493
H28   H     H_    0.485438 0.673854 0.408679 0.122311
C77   C     C_R   0.026546 0.038462 0.951238 0.078862
C78   C     C_R   0.959183 0.002819 0.030986 0.093749
C79   C     C_R   0.473150 0.538841 0.548324 0.079028
C80   C     C_R   0.540466 0.503242 0.468528 0.091178
C81   C     C_2   0.773376 0.794031 0.449993 0.736128
O21   O     O_2   0.762981 0.641175 0.467294 -0.554798
O22   O     O_R   0.734907 0.912471 0.421562 -0.674203
H29   H     H_    0.700215 0.856138 0.418148 0.289343
C82   C     C_2   0.222467 0.185266 0.542814 0.797983
O23   O     O_2   0.239752 0.314670 0.575179 -0.527836
O24   O     O_R   0.251974 0.101904 0.506532 -0.622403
H30   H     H_    0.234991 0.991133 0.483387 0.272978
C83   C     C_2   0.727433 0.307015 0.049066 0.730238
O25   O     O_2   0.760278 0.416301 0.072062 -0.576240
O26   O     O_R   0.740638 0.132557 0.030441 -0.658884
H31   H     H_    0.778455 0.113599 0.038170 0.295705
C84   C     C_2   0.277455 0.681995 0.957284 0.797905
O27   O     O_2   0.260160 0.812059 0.925149 -0.527870
O28   O     O_R   0.247907 0.597415 0.993300 -0.622490
H32   H     H_    0.264881 0.486082 0.016197 0.273002
C85   C     C_3   0.149230 0.212723 0.428441 -0.763051
H33   H     H_    0.183160 0.301593 0.439357 0.231744
H34   H     H_    0.155737 0.104774 0.396050 0.209218
H35   H     H_    0.118372 0.306279 0.406268 0.223028
C86   C     C_3   0.843379 0.769532 0.569359 -0.724474
H36   H     H_    0.802408 0.791697 0.565110 0.226331
H37   H     H_    0.852178 0.621807 0.580582 0.219523
H38   H     H_    0.861733 0.858480 0.607621 0.199246
C87   C     C_3   0.350523 0.705911 0.071894 -0.763353
H39   H     H_    0.316611 0.795033 0.061168 0.231802
H40   H     H_    0.343930 0.596723 0.103878 0.209329
H41   H     H_    0.381357 0.798776 0.094472 0.223000
C88   C     C_3   0.657262 0.275505 0.930451 -0.730129
H42   H     H_    0.698268 0.296859 0.934878 0.224988
H43   H     H_    0.648375 0.128148 0.918838 0.220155
H44   H     H_    0.639049 0.365587 0.892372 0.200553
C89   C     C_2   0.980615 0.887891 0.354694 0.769210
O29   O     O_2   0.954591 0.748085 0.349601 -0.549647
O30   O     O_R   0.988485 0.979738 0.303105 -0.655451
H45   H     H_    0.969951 0.919222 0.264455 0.311939
C90   C     C_2   0.035653 0.710702 0.619700 0.746307
O31   O     O_2   0.072082 0.627775 0.608911 -0.544634
O32   O     O_R   0.024509 0.699572 0.677102 -0.667651
H46   H     H_    0.049780 0.621508 0.705957 0.314796
C91   C     C_2   0.519238 0.380530 0.144980 0.768457
O33   O     O_2   0.545320 0.240846 0.149679 -0.549802
O34   O     O_R   0.511403 0.470801 0.196818 -0.655075
H47   H     H_    0.530071 0.409526 0.235301 0.312276
C92   C     C_2   0.465061 0.213717 0.879249 0.746411
O35   O     O_2   0.428690 0.129310 0.889548 -0.544581
O36   O     O_R   0.476381 0.205645 0.821895 -0.667785
H48   H     H_    0.451269 0.128334 0.792641 0.314721
C93   C     C_2   0.890832 0.251524 0.203223 0.806776
O37   O     O_2   0.897391 0.413503 0.190936 -0.556902
O38   O     O_R   0.888380 0.202620 0.262226 -0.665076
H49   H     H_    0.891616 0.313507 0.290204 0.307196
C94   C     C_2   0.144560 0.698990 0.853306 0.759746
O39   O     O_2   0.139619 0.645405 0.801289 -0.568688
O40   O     O_R   0.166402 0.584766 0.901301 -0.632437
H50   H     H_    0.184115 0.473646 0.888034 0.296412
C95   C     C_2   0.609064 0.751647 0.296301 0.792688
O41   O     O_2   0.602661 0.913744 0.308533 -0.563596
O42   O     O_R   0.611486 0.702575 0.237323 -0.662930
H51   H     H_    0.608378 0.813460 0.209304 0.308761
C96   C     C_2   0.355321 0.199153 0.646544 0.759409
O43   O     O_2   0.360359 0.145317 0.698572 -0.568571
O44   O     O_R   0.333373 0.085224 0.598584 -0.632631
H52   H     H_    0.315671 0.974130 0.611901 0.296054

loop_
_geom_bond_atom_site_label_1
_geom_bond_atom_site_label_2
_ccdc_geom_bond_type
O17   V3    S    
C51   H11   S    
O32   H46   S    
C25   C29   A    
O1    C5    A    
C89   O29   D    
C3    C65   S    
C9    C21   A    
C90   O31   D    
O3    C7    A    
C1    C67   S    
C10   C18   A    
C56   C60   A    
C48   C52   A    
C11   C23   A    
C4    C66   S    
C84   O27   D    
C94   O39   D    
C25   C33   A    
C33   C38   A    
C5    C12   S    
C91   O33   D    
C39   C91   S    
O7    C3    A    
C6    C11   S    
C82   O24   S    
C35   C40   A    
C87   H39   S    
C36   C39   A    
C40   C44   A    
O9    V1    S    
C23   H8    S    
C14   C18   A    
C24   C28   A    
C83   O26   S    
O4    C8    A    
C59   H15   S    
C94   O40   S    
C43   H3    S    
O19   V1    S    
C58   H14   S    
C61   C65   A    
O26   H31   S    
O1    V3    S    
O13   V1    S    
C31   C43   A    
C76   C80   A    
O2    V4    S    
C32   C44   A    
O3    V1    S    
C28   C36   A    
C84   O28   S    
C73   H25   S    
C54   C77   S    
C1    O15   A    
C15   C31   A    
O28   H32   S    
C2    O16   A    
C20   C83   S    
C16   C32   A    
O2    C6    A    
C45   C93   S    
C2    C68   S    
C10   C22   A    
C21   C25   A    
C86   H37   S    
C11   C19   A    
C73   C77   A    
C27   C31   A    
C44   H4    S    
C76   H28   S    
C13   C29   A    
C34   C37   A    
O11   C7    A    
O15   V3    S    
C35   C36   A    
O12   C8    A    
C15   C87   S    
C53   C57   A    
C90   O32   S    
C24   H7    S    
O10   V2    S    
C88   H43   S    
C59   C63   A    
C54   C58   A    
O5    V1    S    
C71   C80   A    
C91   O34   S    
C61   H17   S    
C39   C43   A    
C71   C75   A    
C69   C78   A    
C38   C42   A    
O42   H51   S    
O8    V4    S    
O22   H29   S    
C56   C79   S    
O7    V3    S    
C93   O38   S    
C57   C61   A    
O30   H45   S    
C64   C68   A    
O18   V4    S    
O44   H52   S    
C15   C19   A    
C55   C80   S    
C96   O44   S    
C93   O37   D    
C53   C78   S    
C72   H24   S    
C21   H6    S    
C26   C34   A    
C74   H26   S    
O38   H49   S    
O5    C1    A    
C19   C84   S    
C48   C96   S    
C46   C50   A    
C75   H27   S    
O34   H47   S    
C14   C30   A    
C45   C49   A    
O8    C4    A    
C7    C10   S    
C48   C68   A    
O9    C5    A    
C46   C66   A    
C46   C94   S    
C26   C30   A    
C86   H38   S    
C45   C65   A    
C70   H22   S    
C69   H21   S    
O6    V2    S    
C92   O35   D    
C87   H41   S    
C71   H23   S    
C18   C81   S    
C81   O21   D    
C70   C77   A    
C85   H34   S    
C85   H35   S    
C27   C35   A    
C87   H40   S    
C57   H13   S    
C64   H20   S    
C88   H44   S    
C29   C41   A    
C63   H19   S    
O16   V4    S    
C38   C90   S    
C3    O13   A    
C72   C76   A    
C75   C79   A    
C17   C82   S    
C52   H12   S    
C13   C85   S    
O6    C2    A    
C23   C27   A    
O24   H30   S    
O11   V3    S    
C30   C42   A    
C63   C67   A    
O12   V4    S    
C51   C55   A    
C82   O23   D    
C22   C26   A    
C8    C9    S    
C50   C54   A    
C47   C67   A    
C9    C17   A    
O10   C6    A    
C60   C64   A    
C49   C53   A    
C16   C88   S    
C50   H10   S    
C83   O25   D    
C47   C51   A    
C40   C92   S    
C33   C34   A    
C42   H2    S    
C72   C79   A    
C88   H42   S    
C62   C66   A    
C41   H1    S    
C60   H16   S    
O20   V2    S    
C92   O36   S    
C12   C24   A    
C37   C89   S    
C13   C17   A    
C95   O41   D    
O4    V2    S    
C12   C20   A    
O14   V2    S    
C55   C59   A    
O36   H48   S    
C70   C74   A    
C37   C41   A    
C16   C20   A    
C69   C73   A    
C58   C62   A    
C89   O30   S    
C96   O43   D    
C47   C95   S    
C62   H18   S    
C4    O14   A    
C81   O22   S    
O40   H50   S    
C52   C56   A    
C14   C86   S    
C95   O42   S    
C86   H36   S    
C85   H33   S    
C74   C78   A    
C22   H5    S    
C49   H9    S    
C28   C32   A    
