data_mof_unit_11891.cif
_audit_creation_date              2013-03-05T16:03:26-0500
_audit_creation_method            fapswitch 2.2
_symmetry_space_group_name_H-M    P1
_symmetry_Int_Tables_number       1
_space_group_crystal_system       triclinic
_cell_length_a                    7.00748
_cell_length_b                    18.53414
_cell_length_c                    20.454416
_cell_angle_alpha                 68.522965
_cell_angle_beta                  89.124875
_cell_angle_gamma                 90.675997
_cell_volume                      2471.39006187

loop_
_atom_site_label
_atom_site_type_symbol
_atom_site_description
_atom_site_fract_x
_atom_site_fract_y
_atom_site_fract_z
_atom_type_partial_charge
O1    O     O_R   0.488960 0.443750 0.941980 -0.573942
O2    O     O_R   0.823890 0.406510 0.087590 -0.569069
O3    O     O_R   0.999680 0.556250 0.058020 -0.610389
C1    C     C_R   0.650662 0.380394 0.112526 0.873310
O4    O     O_R   0.818360 0.434410 0.944340 -0.572618
O5    O     O_R   0.994110 0.584350 0.913750 -0.578500
C2    C     C_R   0.650758 0.422745 0.921795 0.953210
O6    O     O_R   0.494530 0.415650 0.086250 -0.572527
O7    O     O_3   0.662590 0.549160 0.990130 -0.293705
V1    V     V_3+5 0.935320 0.490880 0.001830 1.267151
O8    O     O_R   0.324180 0.593490 0.912410 -0.585532
C3    C     C_R   0.156486 0.620380 0.887766 0.974581
O9    O     O_R   0.329720 0.565590 0.055660 -0.594993
C4    C     C_R   0.161108 0.576533 0.078991 1.065343
V2    V     V_3+5 0.435990 0.509120 0.998170 1.251371
O10   O     O_3   0.158850 0.450840 0.009870 -0.206665
C5    C     C_3   0.020847 0.717513 0.307252 -0.086898
C6    C     C_3   0.205502 0.687301 0.284516 0.219561
C7    C     C_1   0.152536 0.622913 0.124543 -0.237039
C8    C     C_1   0.112983 0.879961 0.374657 -0.326379
C9    C     C_3   0.954964 0.743203 0.229745 0.412557
C10   C     C_3   0.137766 0.711004 0.207190 -0.294729
C11   C     C_3   0.050055 0.824310 0.211591 -0.336396
C12   C     C_3   0.120105 0.798287 0.288157 -0.117024
C13   C     C_3   0.233742 0.791774 0.190696 0.258136
C14   C     C_3   0.302048 0.767207 0.266679 0.268848
C15   C     C_1   0.145871 0.662261 0.161790 0.269470
C16   C     C_1   0.116946 0.844815 0.334514 0.135027
H1    H     H_    0.980789 0.879947 0.183710 0.208892
C17   C     C_R   0.210199 0.788588 0.875925 0.308044
C18   C     C_R   0.240167 0.864967 0.870311 -0.248904
C19   C     C_R   0.203319 0.926620 0.808890 0.257131
C20   C     C_R   0.140365 0.911431 0.750213 0.162371
C21   C     C_R   0.140555 0.833986 0.750518 -0.075680
C22   C     C_R   0.167183 0.769974 0.816155 -0.066836
C23   C     C_R   0.113294 0.819671 0.687230 -0.191292
C24   C     C_R   0.110184 0.741931 0.690776 0.080725
C25   C     C_R   0.125901 0.678265 0.755913 0.100692
C26   C     C_R   0.150236 0.690896 0.819608 -0.207723
C27   C     C_R   0.091532 0.726472 0.628992 -0.328183
C28   C     C_R   0.086687 0.651107 0.629754 0.308643
C29   C     C_R   0.103560 0.588195 0.693284 0.270454
C30   C     C_R   0.121558 0.601971 0.755561 -0.353383
H2    H     H_    0.278576 0.876363 0.916809 0.244354
H3    H     H_    0.078677 0.773098 0.578576 0.160126
H4    H     H_    0.133962 0.551733 0.803451 0.168479
C31   C     C_R   0.572041 0.102710 0.234969 0.048241
C32   C     C_R   0.562837 0.105993 0.164572 0.067060
C33   C     C_R   0.464511 0.168192 0.116460 0.010994
C34   C     C_R   0.447468 0.236104 0.131926 0.189458
C35   C     C_R   0.556151 0.243121 0.187308 -0.051798
C36   C     C_R   0.582696 0.174680 0.247413 0.017399
C37   C     C_R   0.627071 0.316552 0.183698 -0.113165
C38   C     C_R   0.680741 0.326831 0.246835 0.038758
C39   C     C_R   0.684939 0.259183 0.311347 -0.068220
C40   C     C_R   0.627122 0.182855 0.313167 -0.187939
C41   C     C_R   0.715610 0.403250 0.249624 -0.069263
C42   C     C_R   0.790516 0.407071 0.311689 0.284984
C43   C     C_R   0.829402 0.341391 0.368503 0.171851
C44   C     C_R   0.754902 0.270498 0.372051 0.162530
O11   O     O_R   0.770540 0.084530 0.414050 -0.596730
O12   O     O_R   0.445710 0.065660 0.555720 -0.545067
O13   O     O_R   0.270420 0.915650 0.586190 -0.593874
C45   C     C_R   0.612964 0.076924 0.578713 1.107378
O14   O     O_R   0.441140 0.093540 0.412470 -0.577994
O15   O     O_R   0.265820 0.943740 0.441930 -0.628009
C46   C     C_R   0.611857 0.114033 0.382763 0.959659
O16   O     O_R   0.775150 0.056440 0.558310 -0.510124
O17   O     O_3   0.602370 0.950960 0.510050 -0.324887
V3    V     V_3+5 0.329450 0.009140 0.498150 1.274991
O18   O     O_R   0.935790 0.934280 0.444060 -0.616659
C47   C     C_R   0.104802 0.921779 0.422824 0.951033
O19   O     O_R   0.940370 0.906390 0.587310 -0.571651
C48   C     C_R   0.107246 0.885417 0.616242 0.982875
V4    V     V_3+5 0.828810 0.990710 0.501460 1.258520
O20   O     O_3   0.105780 0.049100 0.489960 -0.214775
C49   C     C_3   0.611642 0.336017 0.701787 -0.118812
C50   C     C_3   0.465900 0.268769 0.708631 -0.043472
H5    H     H_    0.326816 0.277021 0.682346 0.238058
H6    H     H_    0.594002 0.398066 0.668659 0.212170
H7    H     H_    0.377547 0.212189 0.829938 0.239357
C51   C     C_1   0.620576 0.125952 0.621229 -0.049203
C52   C     C_1   0.644583 0.381890 0.872035 -0.252970
C53   C     C_3   0.773990 0.283622 0.693534 0.245253
C54   C     C_3   0.630659 0.217621 0.699439 -0.186902
C55   C     C_3   0.800307 0.251294 0.773228 0.159263
C56   C     C_3   0.637670 0.302160 0.782817 -0.083843
C57   C     C_3   0.656917 0.186026 0.779452 0.239948
C58   C     C_3   0.492022 0.235489 0.789902 -0.196155
C59   C     C_1   0.625584 0.167587 0.655932 0.320063
C60   C     C_1   0.640757 0.347264 0.831021 0.242758
N1    N     N_R   0.291057 0.613913 0.326124 0.296420
O21   O     O_R   0.327105 0.598540 0.391905 -0.328825
O22   O     O_R   0.312233 0.560206 0.300165 -0.320761
N2    N     N_R   0.212657 0.004127 0.809210 0.296999
O23   O     O_R   0.179386 0.016067 0.867187 -0.266963
O24   O     O_R   0.276760 0.061554 0.754431 -0.333067
N3    N     N_R   0.036025 0.970652 0.698609 0.240496
O25   O     O_R   0.850572 0.968439 0.702666 -0.406407
O26   O     O_R   0.123629 0.029140 0.651112 -0.332221
N4    N     N_R   0.044828 0.640516 0.565953 0.225739
O27   O     O_R   0.142423 0.592866 0.545729 -0.336046
O28   O     O_R   0.927567 0.687875 0.523075 -0.481864
N5    N     N_R   0.909360 0.349760 0.429735 0.302365
O29   O     O_R   0.088691 0.368904 0.429285 -0.244555
O30   O     O_R   0.798330 0.348612 0.481703 -0.256575
C61   C     C_3   0.515364 0.024971 0.289843 -0.474896
C62   C     C_3   0.685513 0.973206 0.318488 -0.326656
C63   C     C_3   0.620991 0.895855 0.373664 -0.561790
H8    H     H_    0.591398 0.900543 0.424365 0.257644
H9    H     H_    0.488076 0.875506 0.357795 0.261841
H10   H     H_    0.731701 0.851759 0.381028 0.240055
H11   H     H_    0.760294 0.959528 0.276972 0.218973
H12   H     H_    0.789575 0.004362 0.338705 0.205737
H13   H     H_    0.426128 0.031717 0.331517 0.202188
H14   H     H_    0.415783 0.994314 0.266391 0.199812
C64   C     C_3   0.654215 0.043722 0.142560 -0.315181
C65   C     C_3   0.873339 0.054293 0.135597 -0.377642
C66   C     C_3   0.957673 0.022056 0.082471 -0.757527
H15   H     H_    0.875370 0.970506 0.082403 0.297968
H16   H     H_    0.957068 0.066715 0.028639 0.276570
H17   H     H_    0.107161 0.004714 0.095862 0.255340
H18   H     H_    0.914368 0.116672 0.118559 0.213557
H19   H     H_    0.940357 0.024987 0.187058 0.197246
H20   H     H_    0.613536 0.984789 0.178716 0.239992
H21   H     H_    0.602475 0.044637 0.091994 0.231009
C67   C     C_3   0.361729 0.158888 0.054883 -0.328693
C68   C     C_3   0.457909 0.206130 0.984071 -0.235105
C69   C     C_3   0.650711 0.174100 0.973871 -0.808175
H22   H     H_    0.635105 0.113232 0.977500 0.301096
H23   H     H_    0.711981 0.207842 0.921507 0.253519
H24   H     H_    0.752314 0.178957 0.013030 0.256866
H25   H     H_    0.361551 0.205696 0.941809 0.228414
H26   H     H_    0.479500 0.266977 0.979401 0.212292
H27   H     H_    0.345492 0.097908 0.059585 0.186342
H28   H     H_    0.210889 0.175873 0.055211 0.198575
N6    N     N_R   0.289307 0.287135 0.106337 0.241963
O31   O     O_R   0.231811 0.306498 0.042205 -0.413876
O32   O     O_R   0.193051 0.310644 0.149524 -0.390551
C70   C     C_3   0.933766 0.685111 0.381966 -0.303876
C71   C     C_3   0.827144 0.608200 0.400677 -0.156647
C72   C     C_3   0.710202 0.584121 0.469312 -0.479244
H29   H     H_    0.804056 0.562494 0.515175 0.266193
H30   H     H_    0.623728 0.632629 0.472277 0.274495
H31   H     H_    0.612391 0.535215 0.472991 0.279363
H32   H     H_    0.728787 0.613470 0.357856 0.293657
H33   H     H_    0.933141 0.562549 0.407369 0.281359
H34   H     H_    0.054372 0.677108 0.418032 0.267928
H35   H     H_    0.840747 0.729060 0.389554 0.247883
C73   C     C_3   0.664958 0.478555 0.188253 -0.438387
C74   C     C_3   0.687812 0.559034 0.191708 -0.331484
C75   C     C_3   0.654010 0.624875 0.121113 -0.572008
H36   H     H_    0.643790 0.604045 0.077579 0.270405
H37   H     H_    0.523703 0.656735 0.123771 0.276159
H38   H     H_    0.775223 0.666853 0.106815 0.260938
H39   H     H_    0.585328 0.563409 0.231031 0.312259
H40   H     H_    0.835237 0.567446 0.205623 0.238145
H41   H     H_    0.766559 0.484225 0.146104 0.226993
H42   H     H_    0.514478 0.473403 0.174266 0.221698
N7    N     N_R   0.794075 0.476521 0.324809 0.221851
O33   O     O_R   0.655595 0.487466 0.362943 -0.347529
O34   O     O_R   0.956450 0.512605 0.319608 -0.404983
N8    N     N_R   0.724059 0.215873 0.440892 0.216384
O35   O     O_R   0.871597 0.193952 0.480822 -0.340514
O36   O     O_R   0.557230 0.216327 0.469457 -0.391993
N9    N     N_R   0.682196 0.104293 0.821304 0.281775
O37   O     O_R   0.566954 0.068551 0.873932 -0.327268
O38   O     O_R   0.811381 0.065350 0.802828 -0.283650
N10   N     N_R   0.982033 0.242468 0.808465 0.239190
O39   O     O_R   0.028175 0.175602 0.854444 -0.362555
O40   O     O_R   0.086992 0.303482 0.800630 -0.363661
N11   N     N_R   0.928844 0.309303 0.641524 0.275561
O41   O     O_R   0.024688 0.258594 0.624939 -0.321084
O42   O     O_R   0.959373 0.382893 0.606642 -0.272034
N12   N     N_R   0.484795 0.780145 0.292347 0.261881
O43   O     O_R   0.517765 0.744540 0.358574 -0.443354
O44   O     O_R   0.593925 0.837976 0.254537 -0.415741
N13   N     N_R   0.344384 0.835442 0.127425 0.301281
O45   O     O_R   0.409317 0.904463 0.118368 -0.389876
O46   O     O_R   0.357222 0.810288 0.075994 -0.295247
N14   N     N_R   0.770088 0.736559 0.202040 0.253952
O47   O     O_R   0.645752 0.685381 0.239450 -0.444847
O48   O     O_R   0.729083 0.782695 0.138921 -0.333559
N15   N     N_R   0.091990 0.509996 0.696084 0.267310
O49   O     O_R   0.231556 0.482015 0.670594 -0.312781
O50   O     O_R   0.962580 0.462885 0.736093 -0.374813
N16   N     N_R   0.206117 0.732449 0.945079 0.209869
O51   O     O_R   0.361545 0.721833 0.981113 -0.374567
O52   O     O_R   0.041785 0.718043 0.978093 -0.417632

loop_
_geom_bond_atom_site_label_1
_geom_bond_atom_site_label_2
_geom_bond_distance
_ccdc_geom_bond_type
C2    C52   1.475152 S    
C39   C40   1.454050 A    
C11   H1    1.101739 S    
C28   C29   1.400216 A    
N4    O27   1.300735 A    
C56   C60   1.508379 S    
C1    C37   1.507787 S    
C55   N10   1.454139 S    
O19   V4    2.048975 S    
N10   O39   1.300069 A    
C22   C26   1.444657 A    
N2    O23   1.301775 A    
C6    C14   1.535352 S    
C1    O6    1.300210 A    
C68   C69   1.523919 S    
C70   H34   1.105601 S    
N5    O30   1.301329 A    
N13   O45   1.299228 A    
C34   N6    1.441127 S    
N12   O44   1.298991 A    
O15   V3    2.003509 S    
C37   C38   1.427874 A    
N15   O49   1.300641 A    
O16   V4    2.003119 S    
C9    N14   1.443753 S    
N6    O32   1.302190 A    
C39   C44   1.425796 A    
C17   C22   1.422054 A    
C43   N5    1.438171 S    
C45   O16   1.312137 A    
C23   C24   1.415792 A    
N8    O36   1.300418 A    
C53   C55   1.531934 S    
C21   C22   1.446145 A    
C24   C27   1.401999 A    
C63   H9    1.098039 S    
O5    C3    1.314087 A    
C17   C18   1.390845 A    
C55   C57   1.530954 S    
C66   H17   1.108113 S    
V2    O10   2.177757 S    
C44   N8    1.412841 S    
C62   C63   1.522431 S    
O12   V3    2.014990 S    
C20   N3    1.430947 S    
O19   C48   1.316125 A    
C62   H12   1.100144 S    
C65   C66   1.533365 S    
O12   C45   1.312020 A    
O8    V2    2.049028 S    
C53   C54   1.542366 S    
O15   C47   1.307913 A    
C31   C32   1.421266 A    
C28   N4    1.423219 S    
O14   C46   1.320113 A    
C10   C13   1.551344 S    
C61   C62   1.523842 S    
C75   H38   1.105680 S    
O1    V2    1.985928 S    
C7    C15   1.233307 T    
C64   H21   1.095568 S    
C49   C50   1.566499 S    
C69   H24   1.106932 S    
H7    C58   1.101537 S    
N14   O48   1.299745 A    
C43   C44   1.384586 A    
N4    O28   1.300069 A    
O1    C2    1.312002 A    
C9    C10   1.552904 S    
N9    O38   1.299236 A    
N10   O40   1.299813 A    
C72   H31   1.109453 S    
C71   C72   1.529392 S    
N5    O29   1.300736 A    
C30   H4    1.081989 S    
N11   O42   1.300384 A    
C20   C21   1.433134 A    
C66   H16   1.109230 S    
C50   C58   1.561578 S    
C27   H3    1.081880 S    
C33   C67   1.522712 S    
C5    C12   1.554518 S    
C18   H2    1.084070 S    
C64   C65   1.543449 S    
C35   C36   1.423278 A    
C70   C71   1.517683 S    
C73   H42   1.108943 S    
C63   H10   1.104937 S    
O4    C2    1.312374 A    
C55   C56   1.542737 S    
C8    C16   1.220940 T    
C49   C53   1.551147 S    
C29   N15   1.430663 S    
C42   C43   1.374124 A    
N14   O47   1.293447 A    
O11   V4    2.037046 S    
C25   C30   1.416661 A    
C35   C37   1.419167 A    
N7    O34   1.295963 A    
C62   H11   1.098710 S    
O2    C1    1.324543 A    
V4    O20   2.177965 S    
C24   C25   1.426876 A    
C68   H26   1.104754 S    
O11   C46   1.313341 A    
N12   O43   1.297107 A    
O13   V3    2.022842 S    
C74   C75   1.535361 S    
C45   C51   1.470967 S    
C41   C73   1.546649 S    
N1    O22   1.297276 A    
C5    C6    1.547131 S    
C34   C35   1.418479 A    
C65   H19   1.107253 S    
C74   H39   1.095792 S    
C67   H28   1.107064 S    
C66   H15   1.110618 S    
C61   H13   1.094027 S    
C31   C36   1.447929 A    
O3    C4    1.314469 A    
C23   C48   1.517383 S    
C71   H32   1.099597 S    
C50   C54   1.554580 S    
C32   C33   1.407441 A    
C75   H37   1.104603 S    
N3    O25   1.300145 A    
O6    V2    2.041858 S    
C57   N9    1.456145 S    
C10   C15   1.515133 S    
C56   C58   1.556989 S    
V3    O20   1.725624 S    
N9    O37   1.299396 A    
C72   H30   1.109437 S    
C13   N13   1.455544 S    
C29   C30   1.395027 A    
C9    C11   1.549740 S    
C67   C68   1.531801 S    
O2    V1    2.013159 S    
C74   H40   1.100112 S    
C17   N16   1.415837 S    
N11   O41   1.300346 A    
C69   H22   1.107097 S    
O7    V1    2.179432 S    
C54   C57   1.537932 S    
C38   C39   1.450754 A    
C27   C28   1.391197 A    
C73   H41   1.083674 S    
C6    C10   1.561724 S    
C4    C7    1.482115 S    
C18   C19   1.384359 A    
C12   C16   1.497267 S    
C67   H27   1.103006 S    
C53   N11   1.455188 S    
O5    V1    2.022812 S    
N13   O46   1.299757 A    
C54   C59   1.502536 S    
N2    O24   1.300061 A    
C32   C64   1.527725 S    
O13   C48   1.307856 A    
C40   C46   1.525593 S    
C52   C60   1.229195 T    
N6    O31   1.298746 A    
C31   C61   1.510704 S    
C51   C59   1.225470 T    
C6    N1    1.456361 S    
N7    O33   1.299478 A    
C3    C26   1.524018 S    
O9    V2    1.981323 S    
C13   C14   1.536741 S    
O4    V1    2.015039 S    
O3    V1    2.003720 S    
V1    O10   1.725472 S    
C68   H25   1.107268 S    
C19   C20   1.405346 A    
O18   V4    1.981192 S    
C50   H5    1.105291 S    
C12   C14   1.528365 S    
C41   C42   1.406240 A    
C25   C26   1.417900 A    
C49   H6    1.110071 S    
C14   N12   1.441719 S    
N1    O21   1.298749 A    
N15   O50   1.299957 A    
O17   V4    1.720642 S    
C5    C70   1.536013 S    
C21   C23   1.428470 A    
C65   H18   1.111220 S    
C11   C13   1.547054 S    
O7    V2    1.724537 S    
O17   V3    2.179515 S    
N3    O26   1.300277 A    
C5    C9    1.558214 S    
C61   H14   1.113713 S    
N16   O52   1.300134 A    
N8    O35   1.301441 A    
C71   H33   1.104293 S    
C11   C12   1.549909 S    
N16   O51   1.300621 A    
C19   N2    1.439647 S    
O18   C47   1.307476 A    
C57   C58   1.543451 S    
C49   C56   1.557071 S    
C33   C34   1.411599 A    
C63   H8    1.088980 S    
C72   H29   1.105885 S    
C8    C47   1.460536 S    
C42   N7    1.407793 S    
C75   H36   1.095495 S    
O14   V3    2.013128 S    
O9    C4    1.313099 A    
C64   H20   1.102708 S    
C70   H35   1.102032 S    
C36   C40   1.445587 A    
O8    C3    1.315803 A    
C73   C74   1.525594 S    
C69   H23   1.100804 S    
C38   C41   1.456186 A    
