data_mof_unit_23632.cif
_audit_creation_date              2013-03-05T16:43:18-0500
_audit_creation_method            fapswitch 2.2
_symmetry_space_group_name_H-M    P1
_symmetry_Int_Tables_number       1
_space_group_crystal_system       triclinic
_cell_length_a                    15.731241
_cell_length_b                    10.670527
_cell_length_c                    9.900355
_cell_angle_alpha                 90.349188
_cell_angle_beta                  90.692507
_cell_angle_gamma                 90.404345
_cell_volume                      1661.68534329

loop_
_atom_site_label
_atom_site_type_symbol
_atom_site_description
_atom_site_fract_x
_atom_site_fract_y
_atom_site_fract_z
_atom_type_partial_charge
O1    O     O_R   0.500010 0.316790 0.614690 -0.616372
O2    O     O_R   0.500000 0.316760 0.385350 -0.616442
C1    C     C_R   0.497358 0.260114 0.499752 0.896026
O3    O     O_R   0.377150 0.500020 0.614720 -0.632795
O4    O     O_R   0.377140 0.499990 0.385380 -0.567519
C2    C     C_R   0.338394 0.499967 0.499343 0.911048
Zn1   Zn    Zn3+2 0.500010 0.500020 0.653130 1.014355
Zn2   Zn    Zn3+2 0.499990 0.499980 0.346870 1.010179
O5    O     O_R   0.500000 0.683240 0.614650 -0.589567
O6    O     O_R   0.499990 0.683210 0.385310 -0.584424
O7    O     O_R   0.622860 0.500010 0.614620 -0.557115
O8    O     O_R   0.622850 0.499980 0.385280 -0.633923
C3    C     C_R   0.494457 0.739729 0.500221 0.918427
C4    C     C_R   0.661621 0.500144 0.500672 0.906120
C5    C     C_3   0.050389 0.458802 0.641111 0.073968
C6    C     C_3   0.047427 0.410047 0.387168 -0.346537
C7    C     C_3   0.949013 0.408141 0.389242 0.278819
H1    H     H_    0.927153 0.360845 0.664850 0.258539
H2    H     H_    0.068787 0.442285 0.286305 0.210148
H3    H     H_    0.073421 0.314190 0.398904 0.228788
H4    H     H_    0.924278 0.441376 0.289559 0.111504
C8    C     C_1   0.750507 0.499843 0.502180 -0.113567
C9    C     C_3   0.082706 0.499371 0.499092 0.096780
C10   C     C_3   0.951907 0.455963 0.640839 -0.383768
C11   C     C_3   0.917327 0.498466 0.501387 0.178170
C12   C     C_3   0.950815 0.632506 0.472299 -0.563730
C13   C     C_3   0.049375 0.633924 0.471228 0.239573
C14   C     C_1   0.825827 0.499337 0.502390 0.018798
C15   C     C_1   0.174258 0.499732 0.497913 0.041875
C16   C     C_1   0.249554 0.499900 0.497940 -0.075829
H5    H     H_    0.073285 0.698013 0.553074 0.113914
H6    H     H_    0.928233 0.698920 0.551057 0.189944
H7    H     H_    0.071508 0.531897 0.715511 0.112152
H8    H     H_    0.928507 0.519868 0.721395 0.172507
H9    H     H_    0.924919 0.665372 0.373582 0.220094
C17   C     C_R   0.497238 0.064769 0.621015 0.147663
C18   C     C_R   0.483598 0.128708 0.501285 -0.160429
C19   C     C_R   0.449553 0.065662 0.388306 -0.267692
H10   H     H_    0.429132 0.117023 0.299707 0.207106
C20   C     C_R   0.443864 0.935161 0.389205 0.313260
C21   C     C_R   0.477442 0.871017 0.502641 -0.241790
C22   C     C_R   0.495254 0.937291 0.621356 0.087546
C23   C     C_3   0.569378 0.930392 0.716992 -0.361507
C24   C     C_3   0.570802 0.072239 0.717399 -0.477848
H11   H     H_    0.551377 0.890316 0.816099 0.245808
H12   H     H_    0.626545 0.889259 0.669431 0.228556
H13   H     H_    0.552836 0.113971 0.816100 0.225975
H14   H     H_    0.628840 0.112972 0.671313 0.209914
C25   C     C_R   0.432449 0.451714 0.069447 0.094041
N1    N     N_R   0.499430 0.499140 0.142800 -0.136226
C26   C     C_R   0.570188 0.534006 0.074632 -0.161117
H15   H     H_    0.625727 0.565909 0.130769 0.186053
C27   C     C_R   0.570697 0.534651 0.931369 0.339942
N2    N     N_R   0.499430 0.499180 0.857150 -0.150876
C28   C     C_R   0.432264 0.452375 0.927041 0.062939
C29   C     C_3   0.342868 0.497681 0.918700 -0.498054
C30   C     C_3   0.342760 0.497495 0.072473 0.283653
H16   H     H_    0.338341 0.593305 0.875274 0.202807
H17   H     H_    0.299551 0.427047 0.871101 0.252591
H18   H     H_    0.336487 0.592073 0.118566 0.210195
N3    N     N_R   0.405208 0.870571 0.276256 0.221426
O9    O     O_R   0.350127 0.781452 0.297135 -0.395967
O10   O     O_R   0.413375 0.914258 0.154625 -0.401474
N4    N     N_R   0.085754 0.338454 0.685308 0.231472
O11   O     O_R   0.137730 0.335602 0.788442 -0.387197
O12   O     O_R   0.061908 0.233306 0.628827 -0.349419
N5    N     N_R   0.645906 0.577638 0.866771 0.223497
O13   O     O_R   0.719015 0.529875 0.900312 -0.410980
O14   O     O_R   0.644334 0.681957 0.800012 -0.411415
O15   O     O_3   0.285736 0.409582 0.127146 -0.704534
H19   H     H_    0.298049 0.325630 0.088353 0.354569
O16   O     O_3   0.918858 0.285730 0.411793 -0.723236
H20   H     H_    0.927050 0.238176 0.326480 0.345662
O17   O     O_3   0.078838 0.677473 0.346240 -0.713924
H21   H     H_    0.069265 0.769339 0.345139 0.358873

loop_
_geom_bond_atom_site_label_1
_geom_bond_atom_site_label_2
_geom_bond_distance
_ccdc_geom_bond_type
C28   C29   1.491822 S    
C12   H6    1.113514 S    
C21   C22   1.392516 A    
C17   C22   1.360424 A    
C3    C21   1.428223 S    
C27   N2    1.382316 A    
C11   C14   1.439655 S    
Zn1   O7    1.974348 S    
C12   C13   1.550612 S    
C15   C16   1.184483 T    
H1    C10   1.112610 S    
C9    C15   1.440404 S    
C17   C18   1.386502 A    
O1    C1    1.285484 A    
C19   H10   1.083751 S    
O7    C4    1.288842 A    
C25   C30   1.496929 S    
C29   C30   1.522448 S    
N3    O10   1.301398 A    
O5    C3    1.288816 A    
C6    C7    1.548544 S    
C5    N4    1.470077 S    
O15   H19   0.993759 S    
C9    C13   1.557033 S    
C30   O15   1.408452 S    
C13   O17   1.407065 S    
C24   H13   1.111841 S    
Zn2   O8    1.965280 S    
C5    C9    1.563459 S    
C8    C14   1.184895 T    
O3    Zn1   1.965280 S    
O17   H21   0.992907 S    
C13   H5    1.117130 S    
C26   H15   1.081612 S    
C10   C11   1.549420 S    
O3    C2    1.288272 A    
C30   H18   1.110557 S    
C11   C12   1.550551 S    
C25   C28   1.409899 A    
C10   H8    1.113807 S    
C20   N3    1.436486 S    
N5    O13   1.301475 A    
N5    O14   1.298271 A    
N4    O12   1.301388 A    
C23   C24   1.513566 S    
C18   C19   1.400636 A    
C6    H3    1.110468 S    
N1    C26   1.359516 A    
C23   H11   1.111723 S    
C20   C21   1.417350 A    
C2    C16   1.397457 S    
O8    C4    1.288503 A    
C6    C9    1.552126 S    
C17   C24   1.492403 S    
C22   C23   1.495658 S    
Zn2   N1    2.020243 S    
Zn1   O5    1.994105 S    
N2    C28   1.363475 A    
C5    C10   1.549291 S    
O1    Zn1   1.989577 S    
O2    Zn2   1.994105 S    
O16   H20   0.992881 S    
O6    C3    1.288538 A    
O4    Zn2   1.974347 S    
C29   H17   1.111366 S    
C7    C11   1.554754 S    
N4    O11   1.300981 A    
C4    C8    1.398221 S    
O2    C1    1.288032 A    
C19   C20   1.394838 A    
O4    C2    1.288855 A    
C6    H2    1.113135 S    
C29   H16   1.112059 S    
N3    O9    1.301123 A    
C27   N5    1.425982 S    
C23   H12   1.111948 S    
C7    H4    1.117171 S    
C12   H9    1.113858 S    
C1    C18   1.417476 S    
C7    O16   1.406550 S    
Zn2   O6    1.989577 S    
C25   N1    1.365011 A    
Zn1   N2    2.020076 S    
C26   C27   1.418522 A    
C5    H7    1.115662 S    
C24   H14   1.112457 S    
