data_mof_unit_35544.cif
_audit_creation_date              2013-03-05T16:22:27-0500
_audit_creation_method            fapswitch 2.2
_symmetry_space_group_name_H-M    P1
_symmetry_Int_Tables_number       1
_space_group_crystal_system       triclinic
_cell_length_a                    15.708194
_cell_length_b                    10.480393
_cell_length_c                    9.798149
_cell_angle_alpha                 89.629052
_cell_angle_beta                  89.876433
_cell_angle_gamma                 90.023649
_cell_volume                      1613.01242429

loop_
_atom_site_label
_atom_site_type_symbol
_atom_site_description
_atom_site_fract_x
_atom_site_fract_y
_atom_site_fract_z
_atom_type_partial_charge
O1    O     O_R   0.500000 0.313960 0.616610 -0.591481
O2    O     O_R   0.500000 0.686040 0.383390 -0.591473
O3    O     O_R   0.500040 0.313950 0.383350 -0.632503
O4    O     O_R   0.499960 0.686050 0.616650 -0.632503
C1    C     C_R   0.500036 0.257635 0.500507 0.860938
C2    C     C_R   0.499964 0.742365 0.499493 0.860942
O5    O     O_R   0.376760 0.499990 0.616610 -0.565860
O6    O     O_R   0.623240 0.500010 0.383390 -0.565882
O7    O     O_R   0.376790 0.499980 0.383350 -0.624298
O8    O     O_R   0.623210 0.500020 0.616650 -0.624287
C3    C     C_R   0.338162 0.500018 0.500112 0.894164
C4    C     C_R   0.661838 0.499982 0.499888 0.894166
Zn1   Zn    Zn3+2 0.499980 0.500010 0.655740 0.999338
Zn2   Zn    Zn3+2 0.500020 0.499990 0.344260 0.999322
C5    C     C_3   0.972576 0.389228 0.550011 0.147530
C6    C     C_3   0.027424 0.610772 0.449989 0.147531
C7    C     C_3   0.028790 0.403637 0.421561 -0.208796
C8    C     C_3   0.971210 0.596364 0.578439 -0.208793
H1    H     H_    0.054124 0.324577 0.358471 0.148185
H2    H     H_    0.945876 0.675423 0.641529 0.148189
H3    H     H_    0.947122 0.528276 0.265494 0.161724
H4    H     H_    0.052878 0.471724 0.734506 0.161728
C9    C     C_1   0.249203 0.500249 0.500423 -0.138082
C10   C     C_1   0.750797 0.499751 0.499577 -0.138096
C11   C     C_3   0.028068 0.484800 0.629331 -0.185639
C12   C     C_3   0.971932 0.515200 0.370669 -0.185644
C13   C     C_3   0.082939 0.500473 0.500312 0.131982
C14   C     C_3   0.917061 0.499528 0.499689 0.131984
C15   C     C_1   0.173866 0.500426 0.500520 -0.055713
C16   C     C_1   0.826134 0.499575 0.499480 -0.055717
C17   C     C_3   0.500391 0.039273 0.630414 -0.107743
C18   C     C_3   0.499609 0.960727 0.369586 -0.107742
C19   C     C_3   0.570254 0.957062 0.563540 -0.189659
C20   C     C_3   0.429746 0.042938 0.436460 -0.189661
H5    H     H_    0.627353 0.917166 0.614981 0.147294
H6    H     H_    0.372646 0.082834 0.385019 0.147292
H7    H     H_    0.500740 0.075280 0.736745 0.172140
H8    H     H_    0.499259 0.924720 0.263255 0.172139
C21   C     C_3   0.499960 0.877557 0.498386 0.020816
C22   C     C_3   0.500040 0.122442 0.501614 0.020816
C23   C     C_3   0.430095 0.957061 0.565084 -0.171248
C24   C     C_3   0.569905 0.042939 0.434916 -0.171248
H9    H     H_    0.373273 0.917193 0.617791 0.145574
H10   H     H_    0.626727 0.082807 0.382209 0.145572
C25   C     C_3   0.499155 0.384031 0.049714 -0.225919
C26   C     C_3   0.500845 0.615969 0.950286 -0.225880
C27   C     C_3   0.566440 0.440659 0.951072 -0.190458
C28   C     C_3   0.433560 0.559341 0.048927 -0.190465
H11   H     H_    0.622542 0.392500 0.905455 0.167316
H12   H     H_    0.377458 0.607500 0.094545 0.167313
H13   H     H_    0.497019 0.286933 0.095583 0.165668
H14   H     H_    0.502981 0.713067 0.904417 0.165663
N1    N     N_3   0.499940 0.500030 0.863290 -0.126416
N2    N     N_3   0.500060 0.499970 0.136710 -0.126421
C29   C     C_3   0.434334 0.444753 0.953919 0.435048
C30   C     C_3   0.565665 0.555247 0.046080 0.435042
C31   C     C_3   0.938258 0.263022 0.606335 -0.435569
C32   C     C_3   0.010884 0.174427 0.650306 -0.323826
C33   C     C_3   0.976673 0.046960 0.702814 -0.865305
H15   H     H_    0.936511 0.061731 0.794807 0.266280
H16   H     H_    0.938165 0.999663 0.622859 0.257805
H17   H     H_    0.030624 0.983480 0.730412 0.252655
H18   H     H_    0.053910 0.156714 0.562337 0.219663
H19   H     H_    0.048533 0.220149 0.732551 0.236547
H20   H     H_    0.896375 0.283153 0.695172 0.209852
H21   H     H_    0.899655 0.216445 0.525803 0.205278
C34   C     C_3   0.061742 0.736979 0.393667 -0.435575
C35   C     C_3   0.989117 0.825569 0.349683 -0.323834
C36   C     C_3   0.023327 0.953040 0.297185 -0.865328
H22   H     H_    0.061824 0.000337 0.377151 0.257807
H23   H     H_    0.063498 0.938274 0.205204 0.266284
H24   H     H_    0.969376 0.016515 0.269575 0.252659
H25   H     H_    0.951477 0.779846 0.267429 0.236551
H26   H     H_    0.946083 0.843277 0.437642 0.219674
H27   H     H_    0.100339 0.783559 0.474203 0.205281
H28   H     H_    0.103630 0.716848 0.304837 0.209851
N3    N     N_R   0.360058 0.380821 0.897968 0.214867
O9    O     O_R   0.284162 0.425514 0.920882 -0.417699
O10   O     O_R   0.369131 0.276071 0.829084 -0.404439
N4    N     N_R   0.639941 0.619183 0.102029 0.214864
O11   O     O_R   0.715845 0.574544 0.079031 -0.417707
O12   O     O_R   0.630864 0.723917 0.170939 -0.404425

loop_
_geom_bond_atom_site_label_1
_geom_bond_atom_site_label_2
_geom_bond_distance
_ccdc_geom_bond_type
C28   C29   1.524274 S    
H3    C12   1.110214 S    
C13   C15   1.428300 S    
C23   H9    1.110350 S    
C31   H21   1.111487 S    
C5    C14   1.528126 S    
C21   C23   1.526589 S    
N3    O9    1.300690 A    
O5    C3    1.293647 A    
C8    C11   1.551991 S    
C19   C21   1.526509 S    
C20   C22   1.526508 S    
C7    C12   1.551991 S    
C9    C15   1.183409 T    
C29   N3    1.455218 S    
C5    C11   1.542532 S    
C25   H13   1.110251 S    
C35   H26   1.110769 S    
C26   H14   1.110251 S    
C17   C22   1.529134 S    
C25   C27   1.546317 S    
O4    Zn1   1.984601 S    
C36   H23   1.110777 S    
C7    H1    1.110355 S    
C35   C36   1.525586 S    
H4    C11   1.110214 S    
C17   C19   1.543048 S    
C18   H8    1.110403 S    
C20   H6    1.110357 S    
C27   N1    1.488497 S    
C6    C13   1.528127 S    
C28   H12   1.110285 S    
C33   H15   1.110789 S    
C6    C12   1.542532 S    
C5    C31   1.527529 S    
O2    C2    1.285024 A    
C20   C23   1.543929 S    
C24   H10   1.110350 S    
C27   H11   1.110285 S    
Zn1   N1    2.033606 S    
N1    C29   1.474816 S    
C32   H19   1.111575 S    
N2    C30   1.474817 S    
C33   H16   1.110024 S    
C34   C35   1.532008 S    
C7    C13   1.536596 S    
C8    C14   1.536595 S    
N4    O12   1.300143 A    
N4    O11   1.300731 A    
C35   H25   1.111560 S    
C17   H7    1.110403 S    
C18   C20   1.543047 S    
C36   H24   1.110438 S    
C28   N2    1.488500 S    
O7    Zn2   1.972438 S    
O6    C4    1.293647 A    
N3    O10   1.300139 A    
C6    C34   1.527528 S    
O7    C3    1.293853 A    
O3    Zn2   1.984602 S    
O8    C4    1.293853 A    
O4    C2    1.287355 A    
Zn2   N2    2.033605 S    
C25   N2    1.488847 S    
O1    C1    1.285023 A    
C34   H27   1.111485 S    
C19   C24   1.543929 S    
C32   H18   1.110782 S    
C5    C7    1.542450 S    
C33   H17   1.110438 S    
O6    Zn2   1.973982 S    
C17   C23   1.543002 S    
C31   H20   1.111312 S    
C22   C24   1.526589 S    
O3    C1    1.287355 A    
O8    Zn1   1.972440 S    
C11   C13   1.536386 S    
C4    C10   1.397382 S    
C12   C14   1.536387 S    
C30   N4    1.455220 S    
C14   C16   1.428300 S    
C32   C33   1.525598 S    
C31   C32   1.532010 S    
C26   N1    1.488846 S    
C3    C9    1.397382 S    
C19   H5    1.110357 S    
C8    H2    1.110355 S    
C36   H22   1.110009 S    
O2    Zn2   1.989647 S    
C10   C16   1.183409 T    
C26   C28   1.546314 S    
O5    Zn1   1.973981 S    
O1    Zn1   1.989649 S    
C25   C29   1.523044 S    
C6    C8    1.542450 S    
C1    C22   1.416842 S    
C26   C30   1.523042 S    
C18   C21   1.529134 S    
C18   C24   1.543002 S    
C2    C21   1.416842 S    
C34   H28   1.111309 S    
C27   C30   1.524274 S    
