data_mof_unit_37262.cif
_audit_creation_date              2013-03-05T15:39:28-0500
_audit_creation_method            fapswitch 2.2
_symmetry_space_group_name_H-M    P1
_symmetry_Int_Tables_number       1
_space_group_crystal_system       triclinic
_cell_length_a                    16.784987
_cell_length_b                    16.891045
_cell_length_c                    16.815939
_cell_angle_alpha                 67.391382
_cell_angle_beta                  67.519412
_cell_angle_gamma                 66.89706
_cell_volume                      3894.84696065

loop_
_atom_site_label
_atom_site_type_symbol
_atom_site_description
_atom_site_fract_x
_atom_site_fract_y
_atom_site_fract_z
_atom_type_partial_charge
O1    O     O_R   0.124540 0.978640 0.385460 -0.612691
O2    O     O_R   0.875460 0.021360 0.614540 -0.601455
O3    O     O_R   0.978640 0.385460 0.124540 -0.595241
O4    O     O_R   0.021360 0.614540 0.875460 -0.586023
O5    O     O_R   0.385460 0.124540 0.978640 -0.583655
O6    O     O_R   0.614540 0.875460 0.021360 -0.595598
O7    O     O_R   0.614540 0.021360 0.875460 -0.591254
O8    O     O_R   0.385460 0.978640 0.124540 -0.605965
O9    O     O_R   0.875460 0.614540 0.021360 -0.585138
O10   O     O_R   0.124540 0.385460 0.978640 -0.603297
O11   O     O_R   0.021360 0.875460 0.614540 -0.571168
O12   O     O_R   0.978640 0.124540 0.385460 -0.578388
C1    C     C_R   0.577667 0.080462 0.583676 -0.108542
C2    C     C_R   0.397711 0.997455 0.402217 -0.187871
C3    C     C_R   0.967430 0.611906 0.616232 -0.059266
C4    C     C_R   0.981471 0.403592 0.402439 -0.170648
C5    C     C_R   0.602583 0.595697 0.017041 -0.119918
C6    C     C_R   0.405704 0.397336 0.981656 -0.124198
Cu1   Cu    Cu3+1 0.995180 0.995180 0.424630 1.126863
Cu2   Cu    Cu3+1 0.004820 0.004820 0.575370 1.164602
Cu3   Cu    Cu3+1 0.995180 0.424630 0.995180 1.126199
Cu4   Cu    Cu3+1 0.004820 0.575370 0.004820 1.153382
Cu5   Cu    Cu3+1 0.424630 0.995180 0.995180 1.132453
Cu6   Cu    Cu3+1 0.575370 0.004820 0.004820 1.155495
C7    C     C_R   0.016685 0.830855 0.568531 0.826315
C8    C     C_R   0.985257 0.168546 0.430338 0.855270
C9    C     C_R   0.828660 0.563679 0.032094 0.903153
C10   C     C_R   0.168584 0.430019 0.985072 0.851534
C11   C     C_R   0.564732 0.028528 0.828639 0.897005
C12   C     C_R   0.430439 0.985702 0.168745 0.837727
C13   C     C_R   0.435470 0.171206 0.969881 0.890024
C14   C     C_R   0.570090 0.831291 0.015224 0.851353
C15   C     C_R   0.971925 0.435224 0.171295 0.868349
C16   C     C_R   0.017579 0.568581 0.830917 0.855118
C17   C     C_R   0.171745 0.972870 0.435005 0.837012
C18   C     C_R   0.828189 0.027255 0.565167 0.865987
O13   O     O_R   0.013780 0.867370 0.487190 -0.552555
O14   O     O_R   0.986220 0.132630 0.512810 -0.522020
O15   O     O_R   0.867370 0.487190 0.013780 -0.507019
O16   O     O_R   0.132630 0.512810 0.986220 -0.536002
O17   O     O_R   0.487190 0.013780 0.867370 -0.508066
O18   O     O_R   0.512810 0.986220 0.132630 -0.513974
O19   O     O_R   0.512810 0.132630 0.986220 -0.515721
O20   O     O_R   0.487190 0.867370 0.013780 -0.541106
O21   O     O_R   0.986220 0.512810 0.132630 -0.503838
O22   O     O_R   0.013780 0.487190 0.867370 -0.549651
O23   O     O_R   0.132630 0.986220 0.512810 -0.488447
O24   O     O_R   0.867370 0.013780 0.487190 -0.479770
H1    H     H_    0.414849 0.180889 0.535729 0.202549
H2    H     H_    0.558109 0.901312 0.442828 0.157291
H3    H     H_    0.074020 0.604172 0.448500 0.116015
H4    H     H_    0.889522 0.393989 0.575940 0.160622
H5    H     H_    0.666129 0.427281 0.989901 0.204079
H6    H     H_    0.353076 0.575457 0.976815 0.186595
H7    H     H_    0.337312 0.139199 0.469572 0.175905
H8    H     H_    0.630957 0.936144 0.522064 0.190552
H9    H     H_    0.577156 0.337041 0.004501 0.201537
H10   H     H_    0.424224 0.647475 0.018785 0.183141
H11   H     H_    0.078218 0.520007 0.356108 0.166892
H12   H     H_    0.888201 0.472803 0.669030 0.210385
C19   C     C_R   0.528122 0.060376 0.538762 0.128164
C20   C     C_R   0.441523 0.016823 0.451960 0.197057
C21   C     C_R   0.974682 0.552328 0.564864 0.114929
C22   C     C_R   0.981324 0.453604 0.458193 0.188060
C23   C     C_R   0.552703 0.544715 0.007005 0.158243
C24   C     C_R   0.457419 0.448345 0.988905 0.167412
C25   C     C_R   0.567148 0.981565 0.510484 -0.068273
C26   C     C_R   0.401084 0.094195 0.481644 -0.027314
C27   C     C_R   0.927646 0.487660 0.600748 -0.061567
C28   C     C_R   0.034553 0.511928 0.423812 0.034059
C29   C     C_R   0.461699 0.582710 0.007029 -0.059739
C30   C     C_R   0.545432 0.407456 0.998024 -0.053004
C31   C     C_R   0.525487 0.961114 0.465757 -0.056917
C32   C     C_R   0.445277 0.117234 0.521559 -0.016069
C33   C     C_R   0.418456 0.538921 0.988390 -0.058384
C34   C     C_R   0.595123 0.457817 0.996613 -0.068964
C35   C     C_R   0.929290 0.440626 0.547479 -0.119014
C36   C     C_R   0.031683 0.560166 0.476763 -0.116894
C37   C     C_R   0.540292 0.084249 0.673813 0.375031
C38   C     C_R   0.428772 0.015835 0.307551 0.367749
C39   C     C_R   0.973257 0.700147 0.572247 0.242895
C40   C     C_R   0.007731 0.308906 0.430160 0.367208
C41   C     C_R   0.676042 0.551125 0.056461 0.348593
C42   C     C_R   0.309764 0.421119 0.013323 0.335567
C43   C     C_R   0.321039 0.965548 0.448709 0.313214
C44   C     C_R   0.670620 0.073495 0.543804 0.356952
C45   C     C_R   0.449492 0.322938 0.944308 0.353792
C46   C     C_R   0.579026 0.691234 0.986063 0.343638
C47   C     C_R   0.952691 0.449182 0.323283 0.293468
C48   C     C_R   0.960740 0.581303 0.708080 0.337216
C49   C     C_R   0.598477 0.048647 0.730021 -0.134255
C50   C     C_R   0.390133 0.989003 0.263044 -0.163991
C51   C     C_R   0.009461 0.738471 0.608677 -0.167426
C52   C     C_R   0.986406 0.262759 0.389535 -0.180182
C53   C     C_R   0.730707 0.601325 0.046846 -0.099296
C54   C     C_R   0.263382 0.387511 0.984864 -0.161071
C55   C     C_R   0.269206 0.965443 0.398501 -0.134355
C56   C     C_R   0.728698 0.044961 0.599532 -0.160335
C57   C     C_R   0.398017 0.268390 0.956202 -0.112713
C58   C     C_R   0.612317 0.736597 0.016121 -0.161470
C59   C     C_R   0.961400 0.398151 0.268686 -0.106455
C60   C     C_R   0.008470 0.610768 0.739355 -0.152823
C61   C     C_R   0.691493 0.028331 0.692055 -0.286826
C62   C     C_R   0.308333 0.969301 0.308256 -0.330008
C63   C     C_R   0.034553 0.688407 0.687963 -0.294927
C64   C     C_R   0.968859 0.307117 0.306384 -0.270874
C65   C     C_R   0.692776 0.692150 0.039450 -0.268358
C66   C     C_R   0.306819 0.306402 0.963958 -0.289963
S1    S     S_3+6 0.429315 0.155849 0.705970 0.026084
O25   O     O_2   0.361198 0.112710 0.717057 -0.263119
O26   O     O_2   0.411237 0.177135 0.791153 -0.282002
O27   O     O_3   0.417994 0.254119 0.626077 -0.529267
H13   H     H_    0.353978 0.288447 0.644732 0.376696
S2    S     S_3+6 0.508518 0.079211 0.245384 0.035648
O28   O     O_2   0.601188 0.015681 0.223984 -0.248518
O29   O     O_2   0.485758 0.141104 0.159851 -0.290896
O30   O     O_3   0.509114 0.142878 0.301065 -0.508187
H14   H     H_    0.552733 0.176459 0.258758 0.402441
S3    S     S_3+6 0.912783 0.765349 0.489255 0.096017
O31   O     O_2   0.859118 0.714683 0.484657 -0.179346
O32   O     O_2   0.848017 0.848679 0.514745 -0.233749
O33   O     O_3   0.982687 0.794458 0.386937 -0.453113
H15   H     H_    0.044209 0.759131 0.392566 0.314849
S4    S     S_3+6 0.077816 0.250056 0.504801 0.028657
O34   O     O_2   0.020365 0.224371 0.599010 -0.260952
O35   O     O_2   0.144011 0.167087 0.479254 -0.284054
O36   O     O_3   0.136392 0.313707 0.499950 -0.541434
H16   H     H_    0.172481 0.275805 0.543239 0.382377
S5    S     S_3+6 0.687955 0.443942 0.136670 0.023405
O37   O     O_2   0.756484 0.372584 0.093063 -0.275195
O38   O     O_2   0.719698 0.444644 0.208708 -0.259273
O39   O     O_3   0.588780 0.420189 0.184193 -0.515966
H17   H     H_    0.603019 0.357649 0.222217 0.403586
S6    S     S_3+6 0.250289 0.464752 0.108206 0.011107
O40   O     O_2   0.204834 0.563393 0.078884 -0.277738
O41   O     O_2   0.179693 0.417886 0.168682 -0.302149
O42   O     O_3   0.320743 0.447129 0.166427 -0.510085
H18   H     H_    0.282427 0.473927 0.216625 0.382334
S7    S     S_3+6 0.294386 0.921561 0.567879 0.054804
O43   O     O_2   0.234538 0.996436 0.610000 -0.177464
O44   O     O_2   0.246580 0.851700 0.598433 -0.287783
O45   O     O_3   0.387678 0.873944 0.603848 -0.498210
H19   H     H_    0.422004 0.822474 0.578070 0.345050
S8    S     S_3+6 0.708301 0.111695 0.424720 0.053849
O46   O     O_2   0.629791 0.167745 0.386024 -0.270784
O47   O     O_2   0.769860 0.167924 0.398229 -0.266421
O48   O     O_3   0.763812 0.022927 0.382782 -0.463319
H20   H     H_    0.781681 0.048822 0.317043 0.389053
S9    S     S_3+6 0.556507 0.309990 0.863280 0.017160
O49   O     O_2   0.628821 0.242469 0.906777 -0.281846
O50   O     O_2   0.554293 0.276960 0.793104 -0.250311
O51   O     O_3   0.580632 0.408468 0.813152 -0.527825
H21   H     H_    0.643479 0.393684 0.775406 0.383600
S10   S     S_3+6 0.535170 0.751774 0.891062 0.030577
O52   O     O_2   0.436020 0.796854 0.920461 -0.274032
O53   O     O_2   0.582349 0.822182 0.831585 -0.282770
O54   O     O_3   0.552645 0.683125 0.831613 -0.525456
H22   H     H_    0.526330 0.722183 0.781028 0.397845
S11   S     S_3+6 0.897703 0.566760 0.298119 0.060452
O55   O     O_2   0.967060 0.616530 0.244384 -0.202295
O56   O     O_2   0.833052 0.590962 0.244824 -0.277311
O57   O     O_3   0.839615 0.599341 0.392266 -0.457731
H23   H     H_    0.794797 0.565153 0.424140 0.349007
S12   S     S_3+6 0.856130 0.563763 0.781871 0.007437
O58   O     O_2   0.869176 0.466313 0.832054 -0.295488
O59   O     O_2   0.819998 0.618349 0.847110 -0.310007
O60   O     O_3   0.779784 0.597741 0.724767 -0.498921
H24   H     H_    0.727894 0.576817 0.769039 0.397411
H25   H     H_    0.735645 0.000803 0.735263 0.209372
H26   H     H_    0.273008 0.959922 0.271955 0.211972
H27   H     H_    0.066149 0.714356 0.714097 0.212067
H28   H     H_    0.964368 0.269706 0.269179 0.223095
H29   H     H_    0.728578 0.729176 0.046569 0.218072
H30   H     H_    0.268906 0.270556 0.958270 0.222299

loop_
_geom_bond_atom_site_label_1
_geom_bond_atom_site_label_2
_geom_bond_distance
_ccdc_geom_bond_type
Cu2   O14   1.959806 S    
C8    C52   1.475828 S    
O6    C14   1.295682 A    
C1    C37   1.418084 A    
C7    C51   1.476968 S    
O54   H22   0.990495 S    
O7    C11   1.297738 A    
O10   C10   1.298114 A    
C28   C36   1.397595 A    
C5    C46   1.429068 A    
C15   O21   1.292316 A    
C22   C35   1.399828 A    
C9    C53   1.469016 S    
O48   H20   0.990431 S    
C30   C34   1.394982 A    
C17   O23   1.283529 A    
S6    O42   1.682470 S    
H7    C26   1.083425 S    
C44   S8    1.784555 S    
C3    C39   1.410553 A    
Cu6   O18   1.958168 S    
C57   C66   1.383066 A    
C42   S6    1.787225 S    
C16   C60   1.467235 S    
C23   C34   1.404937 A    
C13   O19   1.287074 A    
C15   C59   1.477345 S    
S4    O35   1.502991 D    
S12   O58   1.503317 D    
Cu3   O22   1.957784 S    
S1    O26   1.500408 D    
S7    O45   1.681275 S    
O9    Cu4   1.944718 S    
O3    C15   1.305146 A    
C26   C32   1.400107 A    
C56   C61   1.395774 A    
C2    C20   1.488998 S    
O8    Cu5   1.955873 S    
O4    Cu4   1.955128 S    
C60   C63   1.395763 A    
C42   C54   1.413510 A    
C48   C60   1.415097 A    
Cu1   O13   1.959807 S    
C7    O13   1.277692 A    
C27   C35   1.394763 A    
C24   C30   1.405002 A    
C21   C27   1.409326 A    
C9    O15   1.296282 A    
O39   H17   0.990602 S    
C66   H30   1.083601 S    
C1    C44   1.419239 A    
C6    C42   1.428002 A    
Cu5   Cu6   2.666801 S    
S11   O56   1.503926 D    
C20   C31   1.402494 A    
C25   C31   1.401982 A    
C13   C57   1.467369 S    
C43   S7    1.788443 S    
S10   O53   1.503540 D    
S5    O39   1.682541 S    
C47   C59   1.419211 A    
C54   C66   1.386550 A    
Cu4   O16   1.943883 S    
C4    C47   1.417691 A    
Cu3   Cu4   2.682553 S    
S8    O48   1.681603 S    
C40   S4    1.788752 S    
O27   H13   0.991121 S    
C47   S11   1.785842 S    
C45   C57   1.409383 A    
S3    O32   1.501126 D    
O10   Cu3   1.944718 S    
C48   S12   1.780457 S    
O4    C16   1.299930 A    
O11   Cu2   1.960225 S    
O1    Cu1   1.948892 S    
C37   S1    1.785906 S    
O2    Cu2   1.948892 S    
C37   C49   1.420175 A    
C55   C62   1.390640 A    
C43   C55   1.426119 A    
S10   O54   1.682280 S    
C12   C50   1.480969 S    
S9    O51   1.682531 S    
O60   H24   0.990531 S    
O1    C17   1.308907 A    
Cu1   O24   1.951146 S    
C8    O14   1.286150 A    
S6    O41   1.503527 D    
C65   H29   1.083572 S    
C23   C29   1.405534 A    
Cu5   O20   1.952964 S    
C14   C58   1.470001 S    
O12   C8    1.301747 A    
C5    C41   1.428064 A    
C46   S10   1.786683 S    
C38   C50   1.431386 A    
C22   C28   1.400309 A    
C39   C51   1.435914 A    
C19   C25   1.411197 A    
S11   O55   1.502662 D    
O5    Cu5   1.956820 S    
S7    O43   1.502647 D    
O6    Cu6   1.956821 S    
O36   H16   0.990581 S    
C4    C40   1.414285 A    
C14   O20   1.287308 A    
S11   O57   1.681736 S    
C41   C53   1.406670 A    
S10   O52   1.503212 D    
C46   C58   1.415844 A    
C53   C65   1.386260 A    
S4    O36   1.682256 S    
C16   O22   1.288716 A    
S8    O47   1.503656 D    
C38   S2    1.795667 S    
C2    C38   1.419390 A    
S1    O27   1.682069 S    
H5    C34   1.076430 S    
H4    C35   1.083363 S    
C11   C49   1.478468 S    
O9    C9    1.299852 A    
C62   H26   1.083583 S    
O57   H23   0.990579 S    
S3    O33   1.684430 S    
O2    C18   1.306519 A    
C59   C64   1.393585 A    
C40   C52   1.420454 A    
C52   C64   1.392674 A    
C58   C65   1.387236 A    
C3    C21   1.505166 S    
C63   H27   1.084090 S    
C11   O17   1.289069 A    
O45   H19   0.990632 S    
C64   H28   1.083442 S    
Cu3   O15   1.943884 S    
S12   O60   1.683381 S    
C2    C43   1.417328 A    
C49   C61   1.395943 A    
S8    O46   1.503120 D    
S2    O29   1.502774 D    
S3    O31   1.502958 D    
S2    O28   1.503143 D    
S6    O40   1.503234 D    
C19   C32   1.409139 A    
C6    C24   1.503097 S    
H8    C25   1.083232 S    
O42   H18   0.990553 S    
C39   S3    1.793105 S    
C5    C23   1.502202 S    
C6    C45   1.429269 A    
Cu5   O17   1.958169 S    
C20   C26   1.401496 A    
C10   C54   1.465771 S    
O8    C12   1.305688 A    
Cu1   Cu2   2.670161 S    
S9    O50   1.503752 D    
S5    O37   1.503354 D    
H3    C36   1.080748 S    
C51   C63   1.397551 A    
C17   C55   1.482868 S    
O30   H14   0.990566 S    
C3    C48   1.401566 A    
C29   C33   1.394869 A    
S7    O44   1.503991 D    
H12   C27   1.071079 S    
C41   S5    1.783690 S    
C24   C33   1.406195 A    
H2    C31   1.082937 S    
O12   Cu1   1.960225 S    
S12   O59   1.500520 D    
C18   O24   1.286946 A    
H9    C30   1.075996 S    
C44   C56   1.429490 A    
S2    O30   1.680213 S    
O3    Cu3   1.955126 S    
H10   C29   1.078253 S    
C50   C62   1.392736 A    
H11   C28   1.083003 S    
H6    C33   1.078222 S    
O11   C7    1.308966 A    
Cu4   O21   1.957783 S    
C1    C19   1.508609 S    
O51   H21   0.990523 S    
C45   S9    1.783260 S    
S1    O25   1.503089 D    
C61   H25   1.083945 S    
Cu6   O19   1.952965 S    
C10   O16   1.292181 A    
H1    C32   1.070807 S    
C12   O18   1.282095 A    
C18   C56   1.488320 S    
C4    C22   1.482602 S    
O5    C13   1.297334 A    
O33   H15   0.989509 S    
S9    O49   1.503405 D    
Cu2   O23   1.951147 S    
O7    Cu6   1.955875 S    
S4    O34   1.503146 D    
S5    O38   1.503693 D    
C21   C36   1.411518 A    
