data_mof_unit_8195.cif
_audit_creation_date              2012-10-26T19:57:22-0400
_audit_creation_method            fapswitch 2.2
_symmetry_space_group_name_H-M    P1
_symmetry_Int_Tables_number       1
_space_group_crystal_system       triclinic
_cell_length_a                    12.996458
_cell_length_b                    10.904247
_cell_length_c                    9.734804
_cell_angle_alpha                 92.53382
_cell_angle_beta                  96.568102
_cell_angle_gamma                 90.130854
_cell_volume                      1369.15103545

loop_
_atom_site_label
_atom_site_type_symbol
_atom_type_description
_atom_site_fract_x
_atom_site_fract_y
_atom_site_fract_z
_atom_type_partial_charge
C1    C     C_R   0.501059 0.265786 0.496793 0.607715
C2    C     C_2   0.495133 0.134147 0.484754 -0.048791
C3    C     C_2   0.527202 0.411219 0.927405 0.080065
C4    C     C_R   0.300843 0.505189 0.473591 0.544592
C5    C     C_2   0.487505 0.405270 0.064733 0.345805
C6    C     C_R   0.504971 0.734968 0.504464 0.534287
C7    C     C_R   0.699122 0.503405 0.526281 0.570013
C8    C     C_R   0.812072 0.508447 0.540550 0.013593
C9    C     C_R   0.188274 0.520151 0.456609 -0.012263
C10   C     C_R   0.028383 0.598382 0.336081 -0.030317
C11   C     C_R   0.136589 0.583993 0.346131 -0.034030
C12   C     C_R   0.026232 0.487329 0.549359 0.025176
C13   C     C_R   0.132603 0.471937 0.555779 -0.122182
C14   C     C_1   0.806264 0.660277 0.360525 0.230507
C15   C     C_1   0.594518 0.315317 0.885022 0.339231
C16   C     C_1   0.977747 0.651029 0.211624 0.221842
C17   C     C_1   0.194261 0.638878 0.244685 0.253212
C18   C     C_1   0.517239 0.922954 0.659545 0.217057
C19   C     C_R   0.972057 0.553968 0.441632 0.017616
C20   C     C_R   0.864059 0.571204 0.444584 -0.025171
C21   C     C_R   0.867513 0.443822 0.644845 -0.084852
C22   C     C_R   0.974026 0.435372 0.650818 -0.104073
C23   C     C_2   0.552000 0.931513 0.418393 -0.112538
C24   C     C_2   0.521347 0.867264 0.521387 -0.070587
C25   C     C_2   0.568469 0.064896 0.433150 0.255403
Cu1   Cu    Cu3+1 0.500020 0.500020 0.638640 1.027610
Cu2   Cu    Cu3+1 0.499980 0.499980 0.361360 1.119655
H1    H     H_    0.424208 0.092992 0.511239 0.069634
H2    H     H_    0.449079 0.561869 0.884671 0.219911
H3    H     H_    0.541694 0.570458 0.122972 0.192754
H4    H     H_    0.828017 0.397259 0.720020 0.167949
H5    H     H_    0.015465 0.384457 0.732677 0.139378
H6    H     H_    0.172715 0.421334 0.639124 0.151744
H7    H     H_    0.567724 0.885229 0.321964 0.193146
H8    H     H_    0.307685 0.157603 0.946459 0.373896
H9    H     H_    0.833158 0.050227 0.342509 0.376161
N1    N     N_2   0.498860 0.498660 0.846770 -0.382625
N2    N     N_2   0.498840 0.498630 0.152900 -0.352134
N3    N     N_1   0.759183 0.731044 0.294398 -0.219427
N4    N     N_1   0.648879 0.238325 0.851773 -0.210498
N5    N     N_1   0.938483 0.692681 0.111641 -0.236418
N6    N     N_1   0.240032 0.682677 0.163860 -0.249274
N7    N     N_1   0.513993 0.966927 0.769381 -0.208833
O1    O     O_R   0.500020 0.321960 0.617050 -0.489718
O2    O     O_2   0.329013 0.308246 0.183467 -0.259272
O3    O     O_3   0.345316 0.233861 0.930605 -0.531506
O4    O     O_2   0.672518 0.208070 0.276354 -0.229923
O5    O     O_2   0.738116 0.197621 0.521523 -0.303653
O6    O     O_3   0.767157 0.009858 0.357054 -0.491892
O7    O     O_R   0.499980 0.321920 0.382890 -0.404057
O8    O     O_R   0.349010 0.500000 0.598060 -0.505018
O9    O     O_R   0.348980 0.499950 0.363910 -0.449800
O10   O     O_R   0.500020 0.678080 0.617110 -0.495670
O11   O     O_R   0.499980 0.678040 0.382950 -0.507949
O12   O     O_R   0.651020 0.500050 0.636090 -0.504335
O13   O     O_R   0.650990 0.500000 0.401940 -0.484206
O14   O     O_2   0.473178 0.172350 0.138881 -0.250107
S1    S     S_3+6 0.407718 0.277336 0.086177 0.067977
S2    S     S_3+6 0.688566 0.125327 0.396182 0.055194

loop_
_geom_bond_atom_site_label_1
_geom_bond_atom_site_label_2
_ccdc_geom_bond_type
C23   C24   D    
Cu1   N1    S    
C13   H6    S    
C25   S2    S    
C12   C22   A    
C9    C11   A    
C1    O7    A    
C1    O1    A    
Cu1   O8    S    
C19   C20   A    
O6    S2    S    
Cu2   O7    S    
C7    O12   A    
C10   C19   A    
C23   H7    S    
C6    C24   S    
Cu1   O12   S    
C8    C21   A    
O14   S1    D    
Cu2   O11   S    
Cu1   O1    S    
C7    C8    S    
C10   C16   S    
C21   C22   A    
O3    S1    S    
C18   N7    T    
C21   H4    S    
H3    N2    S    
Cu1   Cu2   S    
C8    C20   A    
C22   H5    S    
C7    O13   A    
C4    O9    A    
C18   C24   S    
C4    O8    A    
C5    S1    S    
C12   C19   A    
C6    O11   A    
C2    C25   D    
C23   C25   S    
Cu2   O9    S    
C15   N4    T    
O2    S1    D    
C10   C11   A    
Cu2   N2    S    
O4    S2    D    
Cu1   O10   S    
C14   C20   S    
C17   N6    T    
C3    C15   S    
C12   C13   A    
C3    N1    D    
O5    S2    D    
C1    C2    S    
H2    N1    S    
C9    C13   A    
Cu2   O13   S    
C11   C17   S    
C2    H1    S    
C6    O10   A    
C4    C9    S    
C5    N2    D    
H8    O3    S    
C16   N5    T    
H9    O6    S    
C14   N3    T    
C3    C5    S    
