data_mof_unit_23571.cif
_audit_creation_date              2012-12-10T17:51:30-0500
_audit_creation_method            fapswitch 2.2
_symmetry_space_group_name_H-M    P1
_symmetry_Int_Tables_number       1
_space_group_crystal_system       triclinic
_cell_length_a                    9.983091
_cell_length_b                    10.738118
_cell_length_c                    16.37589
_cell_angle_alpha                 94.447541
_cell_angle_beta                  88.200292
_cell_angle_gamma                 88.745602
_cell_volume                      1748.81809864

loop_
_atom_site_label
_atom_site_type_symbol
_atom_type_description
_atom_site_fract_x
_atom_site_fract_y
_atom_site_fract_z
_atom_type_partial_charge
C1    C     C_R   0.498404 0.736933 0.488895 0.909845
C2    C     C_R   0.517946 0.460029 0.257880 -0.157907
C3    C     C_R   0.246074 0.884784 0.454566 -0.293664
C4    C     C_R   0.484780 0.492480 0.653126 0.919665
C5    C     C_R   0.125906 0.954830 0.472433 0.546702
C6    C     C_R   0.132596 0.068937 0.520588 0.004353
C7    C     C_R   0.258628 0.116980 0.539121 -0.242332
C8    C     C_R   0.376919 0.059889 0.503700 0.004907
C9    C     C_R   0.371201 0.935013 0.474968 0.038609
C10   C     C_R   0.492496 0.865644 0.468263 -0.192676
C11   C     C_R   0.611597 0.925570 0.453313 -0.350175
C12   C     C_R   0.430385 0.502424 0.805653 0.003234
C13   C     C_R   0.614478 0.054888 0.460915 0.520096
C14   C     C_R   0.499839 0.122840 0.493888 -0.230643
C15   C     C_R   0.861043 0.685719 0.606818 0.407186
C16   C     C_R   0.500768 0.258954 0.500641 0.868876
C17   C     C_R   0.932270 0.792128 0.637233 0.442825
C18   C     C_R   0.071145 0.783310 0.638670 -0.034429
C19   C     C_R   0.136526 0.679551 0.598318 -0.304131
C20   C     C_R   0.069388 0.589135 0.549303 0.072970
C21   C     C_R   0.925257 0.589927 0.551180 0.016682
C22   C     C_R   0.933106 0.419377 0.449623 -0.111342
C23   C     C_R   0.392959 0.411167 0.135697 -0.204885
C24   C     C_R   0.075565 0.418863 0.449948 -0.094116
C25   C     C_R   0.515432 0.495424 0.345923 0.857785
C26   C     C_R   0.487964 0.441583 0.733255 -0.206503
C27   C     C_R   0.565010 0.331313 0.736908 -0.361077
C28   C     C_R   0.595037 0.286037 0.811636 0.504762
C29   C     C_R   0.553521 0.355437 0.883813 -0.105719
C30   C     C_R   0.473094 0.464961 0.881300 0.470777
C31   C     C_3   0.001304 0.838693 0.376860 -0.345702
C32   C     C_3   0.004110 0.138077 0.549808 -0.323576
C33   C     C_3   0.018205 0.240102 0.619932 -0.437764
C34   C     C_R   0.401719 0.475535 0.212305 0.517618
C35   C     C_3   0.881794 0.291189 0.651982 -0.807456
C36   C     C_3   0.746253 0.113420 0.356118 -0.299226
C37   C     C_3   0.738790 0.655872 0.723884 -0.322057
C38   C     C_3   0.753753 0.935712 0.640266 -0.249235
C39   C     C_3   0.317152 0.673121 0.234213 -0.336006
C40   C     C_3   0.151839 0.885672 0.681771 -0.334822
C41   C     C_3   0.129207 0.896495 0.775071 -0.318694
C42   C     C_3   0.228772 0.984644 0.816412 -0.951601
C43   C     C_3   0.527231 0.620711 0.975169 -0.349699
C44   C     C_3   0.318263 0.599469 0.804865 -0.364229
C45   C     C_R   0.627564 0.388686 0.222603 -0.294763
C46   C     C_3   0.184886 0.546063 0.834906 -0.303826
C47   C     C_3   0.135269 0.442398 0.775297 -0.858196
C48   C     C_3   0.586581 0.076184 0.813646 -0.345476
C49   C     C_R   0.619332 0.328059 0.144824 -0.192519
C50   C     C_R   0.501209 0.337988 0.101592 0.118475
C51   C     C_2   0.591302 0.313954 0.962947 -0.094320
C52   C     C_2   0.493296 0.289225 0.016124 -0.185801
H1    H     H_    0.602189 0.280009 0.680959 0.171244
H2    H     H_    0.393709 0.272173 0.993001 0.150859
H3    H     H_    0.302831 0.422298 0.101459 0.164785
H4    H     H_    0.690461 0.338249 0.983445 0.141509
H5    H     H_    0.035322 0.740934 0.383607 0.187846
H6    H     H_    0.062693 0.882197 0.329257 0.147159
H7    H     H_    0.897642 0.834397 0.354862 0.185135
H8    H     H_    0.815986 0.309777 0.600834 0.294600
H9    H     H_    0.834716 0.223157 0.690564 0.290675
H10   H     H_    0.893498 0.379579 0.690041 0.236150
H11   H     H_    0.071339 0.201702 0.671449 0.233969
H12   H     H_    0.704332 0.272516 0.118828 0.144101
H13   H     H_    0.076221 0.318366 0.598032 0.243769
H14   H     H_    0.959932 0.179269 0.496591 0.241895
H15   H     H_    0.933740 0.069310 0.571359 0.260154
H16   H     H_    0.665083 0.171188 0.331671 0.158637
H17   H     H_    0.747765 0.017296 0.325324 0.154359
H18   H     H_    0.843456 0.155088 0.340512 0.168564
H19   H     H_    0.799822 0.723993 0.760032 0.171837
H20   H     H_    0.775950 0.559983 0.732782 0.165406
H21   H     H_    0.635810 0.667257 0.751091 0.160994
H22   H     H_    0.766487 0.921152 0.572963 0.187852
H23   H     H_    0.703619 0.872342 0.438711 0.199220
H24   H     H_    0.737392 0.037076 0.655468 0.186700
H25   H     H_    0.662444 0.890177 0.662462 0.195255
H26   H     H_    0.336284 0.689673 0.168600 0.162601
H27   H     H_    0.402139 0.706672 0.271722 0.145302
H28   H     H_    0.226898 0.729501 0.255957 0.180649
H29   H     H_    0.332229 0.945663 0.805489 0.249390
H30   H     H_    0.221583 0.078317 0.792165 0.268325
H31   H     H_    0.206771 0.994840 0.883512 0.258145
H32   H     H_    0.026204 0.932258 0.792156 0.273295
H33   H     H_    0.141837 0.804006 0.798707 0.210024
H34   H     H_    0.242424 0.793744 0.421994 0.185789
H35   H     H_    0.260668 0.870087 0.666611 0.183570
H36   H     H_    0.122669 0.976297 0.659566 0.227028
H37   H     H_    0.544810 0.685311 0.926129 0.142756
H38   H     H_    0.623326 0.574666 0.990047 0.168586
H39   H     H_    0.490177 0.677793 0.030987 0.188708
H40   H     H_    0.117548 0.479112 0.714956 0.268271
H41   H     H_    0.209005 0.363129 0.767325 0.264941
H42   H     H_    0.039859 0.407156 0.800150 0.242715
H43   H     H_    0.195671 0.509164 0.895912 0.250118
H44   H     H_    0.106195 0.620682 0.842782 0.181876
H45   H     H_    0.265048 0.198634 0.581168 0.185101
H46   H     H_    0.342503 0.682913 0.845559 0.183345
H47   H     H_    0.305960 0.633127 0.743314 0.188404
H48   H     H_    0.648146 0.989387 0.816135 0.207830
H49   H     H_    0.528884 0.067075 0.756471 0.151040
H50   H     H_    0.517067 0.083684 0.868394 0.171908
H51   H     H_    0.883626 0.353190 0.408503 0.146349
H52   H     H_    0.241365 0.673321 0.605487 0.240349
H53   H     H_    0.132182 0.351195 0.409492 0.150605
H54   H     H_    0.717340 0.374749 0.256580 0.174190
N1    N     N_R   0.857140 0.501200 0.500750 -0.091206
N2    N     N_R   0.142740 0.501280 0.500770 -0.101096
O1    O     O_R   0.385310 0.683220 0.500000 -0.646382
O2    O     O_3   0.732354 0.112999 0.442107 -0.600849
O3    O     O_3   0.734000 0.674711 0.638848 -0.557550
O4    O     O_3   0.868476 0.895497 0.680051 -0.636105
O5    O     O_3   0.292052 0.546322 0.243902 -0.598028
O6    O     O_3   0.429937 0.531927 0.953337 -0.612798
O7    O     O_3   0.672738 0.178407 0.813853 -0.599122
O8    O     O_R   0.614640 0.683250 0.500010 -0.570288
O9    O     O_R   0.371780 0.500010 0.615800 -0.643969
O10   O     O_R   0.601110 0.500030 0.615800 -0.541564
O11   O     O_R   0.385360 0.316750 0.499990 -0.629086
O12   O     O_R   0.614690 0.316780 0.500000 -0.583280
O13   O     O_R   0.398890 0.499970 0.384200 -0.562995
O14   O     O_R   0.628220 0.499990 0.384200 -0.628456
O15   O     O_3   0.999910 0.909424 0.453262 -0.623304
Zn1   Zn    Zn3+2 0.346870 0.499980 0.499990 0.934918
Zn2   Zn    Zn3+2 0.653130 0.500020 0.500010 0.976476

loop_
_geom_bond_atom_site_label_1
_geom_bond_atom_site_label_2
_ccdc_geom_bond_type
C6    C32   S    
C41   C42   S    
C19   C20   A    
C42   H30   S    
C33   H13   S    
C7    C8    A    
C38   H24   S    
O11   Zn1   S    
C45   H54   S    
C34   O5    S    
C26   C27   A    
C13   O2    S    
C31   H6    S    
C28   C29   A    
O9    Zn1   S    
C29   C51   S    
C18   C19   A    
C16   O12   A    
C43   O6    S    
C30   O6    S    
C5    C6    A    
C44   H47   S    
C22   N1    A    
C51   H4    S    
C47   H40   S    
C31   H7    S    
C18   C40   S    
O13   Zn1   S    
C1    O1    A    
C44   H46   S    
C46   H43   S    
C52   H2    S    
C8    C9    A    
C39   O5    S    
C50   C52   S    
C24   N2    A    
O10   Zn2   S    
C2    C25   S    
C25   O14   A    
C2    C34   A    
C49   H12   S    
C13   C14   A    
C3    H34   S    
C4    O10   A    
C42   H29   S    
N2    Zn1   S    
C36   H18   S    
C2    C45   A    
C48   H48   S    
C43   H38   S    
C1    C10   S    
C51   C52   D    
C39   H26   S    
C15   O3    S    
N1    Zn2   S    
C16   O11   A    
O12   Zn2   S    
C23   C50   A    
C44   C46   S    
C41   H32   S    
C43   H39   S    
C22   H51   S    
C12   C26   A    
C35   H8    S    
C39   H27   S    
C29   C30   A    
C3    C9    A    
C28   O7    S    
C19   H52   S    
C45   C49   A    
C33   H11   S    
C23   C34   A    
C48   H50   S    
C36   H16   S    
C17   C18   A    
C47   H41   S    
C35   H9    S    
C43   H37   S    
C21   N1    A    
C32   H15   S    
C40   C41   S    
C1    O8    A    
O8    Zn2   S    
C48   O7    S    
C36   O2    S    
C22   C24   A    
C4    O9    A    
C38   O4    S    
C17   O4    S    
C36   H17   S    
C40   H35   S    
C32   H14   S    
C9    C10   A    
C15   C17   A    
C37   H21   S    
C46   C47   S    
C8    C14   A    
C7    H45   S    
C12   C30   A    
C42   H31   S    
C3    C5    A    
C4    C26   S    
C27   H1    S    
O1    Zn1   S    
C23   H3    S    
C6    C7    A    
C38   H25   S    
C41   H33   S    
C5    O15   S    
C39   H28   S    
C40   H36   S    
O14   Zn2   S    
C37   H19   S    
C31   O15   S    
C12   C44   S    
C11   H23   S    
C32   C33   S    
C11   C13   A    
C31   H5    S    
C48   H49   S    
C33   C35   S    
C47   H42   S    
C38   H22   S    
C35   H10   S    
C14   C16   S    
C37   O3    S    
C10   C11   A    
C15   C21   A    
C46   H44   S    
C20   C21   A    
C49   C50   A    
C37   H20   S    
C27   C28   A    
C24   H53   S    
C25   O13   A    
C20   N2    A    
