data_mof_unit_34559.cif
_audit_creation_date              2012-10-26T21:13:37-0400
_audit_creation_method            fapswitch 2.2
_symmetry_space_group_name_H-M    P1
_symmetry_Int_Tables_number       1
_space_group_crystal_system       triclinic
_cell_length_a                    9.07762
_cell_length_b                    10.81396
_cell_length_c                    9.541874
_cell_angle_alpha                 89.936227
_cell_angle_beta                  90.006988
_cell_angle_gamma                 90.179936
_cell_volume                      936.673042177

loop_
_atom_site_label
_atom_site_type_symbol
_atom_type_description
_atom_site_fract_x
_atom_site_fract_y
_atom_site_fract_z
_atom_type_partial_charge
C1    C     C_R   0.510624 0.262437 0.499915 0.539233
C2    C     C_R   0.576635 0.588121 0.926235 0.209930
C3    C     C_3   0.738246 0.612443 0.920299 -0.261675
C4    C     C_R   0.220658 0.499930 0.499976 0.555556
C5    C     C_3   0.738077 0.612742 0.079401 -0.276697
C6    C     C_R   0.503309 0.737768 0.499896 0.547351
C7    C     C_R   0.779340 0.500121 0.500027 0.549028
C8    C     C_1   0.065530 0.500025 0.499987 -0.060657
C9    C     C_1   0.934440 0.500096 0.500024 -0.064274
C10   C     C_R   0.532107 0.063109 0.625808 -0.021414
C11   C     C_R   0.538286 0.129620 0.499963 -0.050202
C12   C     C_R   0.557907 0.934023 0.375478 -0.100059
C13   C     C_R   0.570425 0.062963 0.374945 0.212525
C14   C     C_R   0.523267 0.870599 0.499790 -0.087793
C15   C     C_R   0.523588 0.936205 0.625134 0.064422
C16   C     C_3   0.421204 0.931938 0.747383 0.184774
C17   C     C_3   0.433651 0.072837 0.751599 0.137925
C18   C     C_R   0.576405 0.588340 0.073520 0.164529
C19   C     C_R   0.412100 0.421511 0.074557 0.016655
C20   C     C_R   0.411339 0.422124 0.925617 -0.016181
Cu1   Cu    Cu3+1 0.499990 0.499980 0.640670 0.955158
Cu2   Cu    Cu3+1 0.500010 0.500020 0.359330 0.953799
H1    H     H_    0.763509 0.704915 0.125014 0.142263
H2    H     H_    0.343559 0.356031 0.130497 0.143649
H3    H     H_    0.341637 0.357528 0.869811 0.123024
H4    H     H_    0.801449 0.534000 0.875503 0.149132
H5    H     H_    0.673966 0.190035 0.273216 0.339755
H6    H     H_    0.763778 0.704431 0.874040 0.168863
H7    H     H_    0.801299 0.534520 0.124876 0.156771
H8    H     H_    0.573299 0.884292 0.278047 0.175308
H9    H     H_    0.309766 0.895520 0.720591 0.065573
H10   H     H_    0.411629 0.872182 0.937329 0.334366
H11   H     H_    0.328283 0.122398 0.732474 0.081612
H12   H     H_    0.542684 0.199873 0.850200 0.339408
N1    N     N_R   0.500920 0.500930 0.147930 -0.239641
N2    N     N_R   0.500930 0.500890 0.852020 -0.242376
O1    O     O_R   0.500000 0.319640 0.618810 -0.523607
O2    O     O_3   0.487296 0.873363 0.862338 -0.632752
O3    O     O_3   0.510445 0.114136 0.870478 -0.622340
O4    O     O_R   0.500020 0.319680 0.381230 -0.483042
O5    O     O_R   0.288380 0.499980 0.618770 -0.499520
O6    O     O_R   0.288400 0.500020 0.381190 -0.496896
O7    O     O_R   0.499980 0.680320 0.618770 -0.464120
O8    O     O_R   0.500000 0.680360 0.381190 -0.508063
O9    O     O_R   0.711600 0.499980 0.618810 -0.502166
O10   O     O_R   0.711620 0.500020 0.381230 -0.507897
O11   O     O_3   0.608799 0.119177 0.250530 -0.649237

loop_
_geom_bond_atom_site_label_1
_geom_bond_atom_site_label_2
_ccdc_geom_bond_type
C20   H3    S    
H10   O2    S    
C6    C14   S    
C18   N1    A    
C5    H7    S    
C19   C20   A    
C5    H1    S    
C1    O1    A    
C4    C8    S    
Cu2   O4    S    
C4    O6    A    
C2    C3    S    
C4    O5    A    
Cu1   N2    S    
C19   N1    A    
Cu1   Cu2   S    
C16   H9    S    
Cu2   N1    S    
C11   C13   A    
Cu2   O6    S    
C17   H11   S    
Cu1   O5    S    
C7    O9    A    
C3    H6    S    
Cu2   O10   S    
C12   C14   A    
C19   H2    S    
Cu1   O9    S    
C10   C15   A    
Cu2   O8    S    
C2    C18   A    
C10   C11   A    
C10   C17   S    
H5    O11   S    
C15   C16   S    
C20   N2    A    
C7    O10   A    
Cu1   O1    S    
C12   C13   A    
C13   O11   S    
C17   O3    S    
C2    N2    A    
C7    C9    S    
C6    O7    A    
C8    C9    T    
C6    O8    A    
C5    C18   S    
C1    O4    A    
C12   H8    S    
C14   C15   A    
C3    H4    S    
Cu1   O7    S    
H12   O3    S    
C16   O2    S    
C16   C17   S    
C3    C5    S    
C1    C11   S    
