data_mof_unit_34253.cif
_audit_creation_date              2013-03-05T15:43:50-0500
_audit_creation_method            fapswitch 2.2
_symmetry_space_group_name_H-M    P1
_symmetry_Int_Tables_number       1
_space_group_crystal_system       triclinic
_cell_length_a                    13.523187
_cell_length_b                    13.53047
_cell_length_c                    27.490848
_cell_angle_alpha                 90.855416
_cell_angle_beta                  90.113291
_cell_angle_gamma                 60.080593
_cell_volume                      4359.189753

loop_
_atom_site_label
_atom_site_type_symbol
_atom_site_description
_atom_site_fract_x
_atom_site_fract_y
_atom_site_fract_z
_atom_type_partial_charge
O1    O     O_R   0.301710 0.195650 0.554160 -0.502291
O2    O     O_R   0.522390 0.158990 0.550460 -0.489627
C1    C     C_R   0.620143 0.101434 0.570211 0.552467
O3    O     O_R   0.694390 0.003530 0.554040 -0.507522
O4    O     O_R   0.657700 0.819660 0.549320 -0.493315
C2    C     C_R   0.598721 0.781343 0.569163 0.550721
O5    O     O_R   0.501930 0.803280 0.552920 -0.507249
O6    O     O_R   0.318170 0.023580 0.549580 -0.496338
C3    C     C_R   0.277855 0.121626 0.569589 0.552699
O7    O     O_R   0.303010 0.193990 0.446760 -0.521539
O8    O     O_R   0.523600 0.157450 0.450900 -0.500814
C4    C     C_R   0.621963 0.098694 0.430976 0.544699
O9    O     O_R   0.695690 0.001860 0.446640 -0.524242
O10   O     O_R   0.658900 0.818120 0.449760 -0.503909
C5    C     C_R   0.602023 0.775504 0.430508 0.545602
O11   O     O_R   0.503220 0.801620 0.445520 -0.524764
O12   O     O_R   0.319370 0.022040 0.450020 -0.504019
C6    C     C_R   0.277682 0.120592 0.431220 0.546010
Cr1   Cr    Cr6+3 0.417550 0.169090 0.500530 1.031165
Cr2   Cr    Cr6+3 0.669180 0.913420 0.499920 1.025617
Cr3   Cr    Cr6+3 0.413260 0.917540 0.499520 1.024513
O13   O     O_3   0.499990 0.000010 0.499990 -0.246103
C7    C     C_3   0.755380 0.598833 0.737202 -0.047307
C8    C     C_3   0.762084 0.679496 0.775888 -0.112452
H1    H     H_    0.841546 0.675055 0.789460 0.117096
H2    H     H_    0.829939 0.533312 0.716347 0.172184
H3    H     H_    0.665314 0.861245 0.741442 0.179596
C9    C     C_1   0.695519 0.612217 0.901019 0.009255
C10   C     C_1   0.626909 0.740916 0.617870 0.004589
C11   C     C_3   0.668169 0.586701 0.769411 -0.042120
C12   C     C_3   0.674562 0.668051 0.807353 0.045084
C13   C     C_3   0.568756 0.690458 0.744537 -0.131965
C14   C     C_3   0.656190 0.701665 0.713015 0.023538
C15   C     C_3   0.575372 0.771619 0.783073 -0.088330
C16   C     C_3   0.662848 0.783186 0.750654 -0.073503
C17   C     C_1   0.685115 0.642445 0.859373 -0.020881
C18   C     C_1   0.643117 0.719554 0.660480 -0.035758
H4    H     H_    0.501392 0.842155 0.802514 0.148168
H5    H     H_    0.489247 0.694892 0.731020 0.110247
H6    H     H_    0.668841 0.506377 0.777826 0.165811
C19   C     C_3   0.087771 0.124360 0.736557 -0.100210
C20   C     C_3   0.177806 0.053120 0.775670 -0.172178
H7    H     H_    0.194141 0.970086 0.790024 0.115246
H8    H     H_    0.027606 0.102330 0.718523 0.124455
H9    H     H_    0.353949 0.003275 0.739322 0.198506
C21   C     C_1   0.094213 0.200897 0.901342 0.018303
C22   C     C_1   0.229050 0.136302 0.617160 0.012734
C23   C     C_3   0.054030 0.231877 0.767695 0.264448
C24   C     C_3   0.141740 0.162516 0.806346 0.021117
C25   C     C_3   0.140262 0.254749 0.741556 -0.096053
C26   C     C_3   0.176379 0.145708 0.711094 0.014331
C27   C     C_3   0.230593 0.182799 0.780210 -0.091087
C28   C     C_3   0.267185 0.073173 0.748911 -0.056721
C29   C     C_1   0.120097 0.179254 0.858962 -0.004460
C30   C     C_1   0.200407 0.141361 0.658984 -0.016917
H10   H     H_    0.288051 0.208013 0.798512 0.163911
H11   H     H_    0.122498 0.338558 0.727550 0.117523
C31   C     C_3   0.609687 0.282851 0.741632 -0.135450
C32   C     C_3   0.550971 0.245067 0.779889 -0.095302
H12   H     H_    0.463785 0.297684 0.795318 0.115827
H13   H     H_    0.572319 0.368665 0.725385 0.122285
C33   C     C_1   0.691313 0.207477 0.903377 0.001489
C34   C     C_1   0.635580 0.134474 0.618253 0.017476
C35   C     C_3   0.721363 0.224917 0.771715 -0.097329
C36   C     C_3   0.662648 0.186498 0.808768 0.008237
C37   C     C_3   0.762465 0.111741 0.742683 -0.140370
C38   C     C_3   0.650854 0.169624 0.713182 0.036129
C39   C     C_3   0.704369 0.073377 0.780778 -0.097759
C40   C     C_3   0.593987 0.132730 0.751200 0.265288
C41   C     C_1   0.674343 0.196615 0.861195 -0.035722
C42   C     C_1   0.643981 0.154221 0.660532 -0.002746
H14   H     H_    0.740991 0.987503 0.796925 0.117296
H15   H     H_    0.849484 0.058202 0.727238 0.116221
H16   H     H_    0.773472 0.262500 0.783619 0.210551
C43   C     C_R   0.735859 0.702524 0.359877 -0.137478
C44   C     C_R   0.748152 0.684125 0.309555 0.016165
C45   C     C_R   0.763044 0.662309 0.207731 0.016085
C46   C     C_R   0.852628 0.659843 0.234500 -0.133197
C47   C     C_R   0.844877 0.671497 0.285157 -0.135352
C48   C     C_R   0.772940 0.641983 0.157529 -0.136650
H17   H     H_    0.852579 0.619430 0.139231 0.119176
H18   H     H_    0.799378 0.712161 0.380232 0.116716
H19   H     H_    0.928501 0.648817 0.216275 0.092107
H20   H     H_    0.914344 0.670632 0.305219 0.093242
C49   C     C_R   0.684398 0.638705 0.132110 -0.004634
C50   C     C_R   0.555447 0.703670 0.356889 -0.129086
C51   C     C_R   0.562874 0.692783 0.306779 0.013592
C52   C     C_R   0.658741 0.684549 0.282804 0.065411
C53   C     C_R   0.472507 0.696856 0.280243 -0.132434
C54   C     C_R   0.476150 0.694537 0.229782 -0.133146
C55   C     C_R   0.572125 0.683757 0.205614 0.013680
C56   C     C_R   0.664404 0.677704 0.232028 0.065114
C57   C     C_R   0.580588 0.670429 0.155566 -0.130153
C58   C     C_R   0.636523 0.718241 0.383099 -0.003131
H21   H     H_    0.510668 0.671269 0.135795 0.128370
H22   H     H_    0.405446 0.697990 0.209711 0.095277
H23   H     H_    0.398286 0.703819 0.298498 0.092574
H24   H     H_    0.479572 0.713227 0.374687 0.128789
C59   C     C_R   0.217570 0.054559 0.357763 -0.133955
C60   C     C_R   0.189965 0.069092 0.308359 0.014349
C61   C     C_R   0.149268 0.095761 0.207772 0.015392
C62   C     C_R   0.173895 0.993274 0.229942 -0.126188
C63   C     C_R   0.195107 0.979677 0.279886 -0.125080
C64   C     C_R   0.125173 0.111832 0.158048 -0.133288
H25   H     H_    0.121936 0.045816 0.136444 0.119367
H26   H     H_    0.246775 0.972035 0.373979 0.123797
H27   H     H_    0.177420 0.923538 0.208641 0.101092
H28   H     H_    0.215846 0.899272 0.296208 0.099427
C65   C     C_R   0.099269 0.215749 0.136815 -0.002263
C66   C     C_R   0.178385 0.250403 0.364028 -0.128311
C67   C     C_R   0.154868 0.264834 0.314719 0.013480
C68   C     C_R   0.162459 0.173363 0.286491 0.062454
C69   C     C_R   0.130517 0.367211 0.292791 -0.125402
C70   C     C_R   0.116033 0.378297 0.242749 -0.124402
C71   C     C_R   0.122834 0.288239 0.214413 0.012061
C72   C     C_R   0.144932 0.185648 0.236199 0.062348
C73   C     C_R   0.103605 0.301117 0.164808 -0.127313
C74   C     C_R   0.217043 0.143557 0.385004 -0.004311
H29   H     H_    0.083397 0.381848 0.148847 0.130072
H30   H     H_    0.098981 0.457403 0.226226 0.098583
H31   H     H_    0.125289 0.437649 0.314169 0.100696
H32   H     H_    0.175989 0.319975 0.385120 0.129286
C75   C     C_R   0.570551 0.237122 0.363334 -0.133502
C76   C     C_R   0.575833 0.255769 0.313655 0.015641
C77   C     C_R   0.585944 0.289027 0.213409 0.012922
C78   C     C_R   0.512400 0.380550 0.243944 -0.126914
C79   C     C_R   0.506471 0.363738 0.293696 -0.127409
C80   C     C_R   0.598513 0.305815 0.164225 -0.134728
H33   H     H_    0.553507 0.391235 0.149741 0.126560
H34   H     H_    0.509470 0.305638 0.386721 0.116733
H35   H     H_    0.460239 0.465156 0.229428 0.106220
H36   H     H_    0.448771 0.435339 0.316621 0.103406
C81   C     C_R   0.677444 0.213988 0.135075 -0.004158
C82   C     C_R   0.720095 0.039460 0.352106 -0.126534
C83   C     C_R   0.722896 0.055315 0.302611 0.010048
C84   C     C_R   0.650439 0.163614 0.283102 0.062457
C85   C     C_R   0.795031 0.963307 0.272234 -0.125911
C86   C     C_R   0.795767 0.978266 0.222403 -0.126072
C87   C     C_R   0.726563 0.086193 0.202735 0.013523
C88   C     C_R   0.653384 0.179507 0.233003 0.062682
C89   C     C_R   0.735068 0.103576 0.153729 -0.128499
C90   C     C_R   0.641454 0.128404 0.382417 -0.000589
H37   H     H_    0.794526 0.032287 0.131012 0.127291
H38   H     H_    0.852711 0.906271 0.199457 0.104308
H39   H     H_    0.850910 0.879929 0.287058 0.105967
H40   H     H_    0.774225 0.954766 0.366304 0.131596
O14   O     O_R   0.818720 0.150820 0.967160 -0.507401
O15   O     O_R   0.006410 0.181720 0.970200 -0.496973
C91   C     C_R   0.048540 0.236356 0.949597 0.551988
O16   O     O_R   0.027890 0.334070 0.964920 -0.499715
O17   O     O_R   0.809600 0.521790 0.967960 -0.488366
C92   C     C_R   0.711515 0.563127 0.948310 0.551667
O18   O     O_R   0.635520 0.542770 0.964420 -0.510340
O19   O     O_R   0.665950 0.325030 0.970100 -0.493737
C93   C     C_R   0.722162 0.225308 0.951121 0.549141
O20   O     O_R   0.816620 0.158530 0.074540 -0.520331
O21   O     O_R   0.004460 0.188870 0.069750 -0.500744
C94   C     C_R   0.046873 0.246213 0.088769 0.545803
O22   O     O_R   0.025800 0.341780 0.072300 -0.524742
O23   O     O_R   0.807650 0.528950 0.067500 -0.504881
C95   C     C_R   0.707499 0.575764 0.086094 0.544436
O24   O     O_R   0.633420 0.550490 0.071810 -0.524462
O25   O     O_R   0.664000 0.332180 0.069640 -0.502896
C96   C     C_R   0.718319 0.234409 0.089275 0.546733
Cr4   Cr    Cr6+3 0.909170 0.177380 0.020380 1.025650
Cr5   Cr    Cr6+3 0.912710 0.429210 0.018220 1.030013
Cr6   Cr    Cr6+3 0.657170 0.432570 0.019030 1.024448
O26   O     O_3   0.826350 0.346390 0.019210 -0.245771
N1    N     N_R   0.935637 0.318545 0.775045 0.045057
O27   O     O_R   0.866257 0.345888 0.738488 -0.434079
O28   O     O_R   0.896760 0.361320 0.818101 -0.380524
N2    N     N_R   0.523266 0.081543 0.743040 0.042886
O29   O     O_R   0.493966 0.043344 0.780175 -0.434081
O30   O     O_R   0.495007 0.067534 0.699310 -0.380836

loop_
_geom_bond_atom_site_label_1
_geom_bond_atom_site_label_2
_geom_bond_distance
_ccdc_geom_bond_type
C37   C39   1.552335 S    
C51   C52   1.408782 A    
C45   C56   1.411057 A    
C78   C79   1.398861 A    
C49   C95   1.458469 S    
N1    O27   1.299332 A    
C67   C68   1.410475 A    
C44   C47   1.402531 A    
C84   C88   1.400827 A    
C80   H33   1.084360 S    
C66   C74   1.401995 A    
C5    C58   1.458862 S    
C70   C71   1.400091 A    
C54   C55   1.399595 A    
C65   C73   1.403811 A    
C83   C84   1.408551 A    
O4    Cr2   1.930422 S    
C45   C46   1.402574 A    
N2    O29   1.299209 A    
C64   C65   1.404551 A    
O8    Cr1   1.928485 S    
C61   C62   1.403223 A    
C77   C78   1.403913 A    
C78   H35   1.083633 S    
C85   H39   1.082548 S    
C50   C58   1.402996 A    
C43   C58   1.404160 A    
C73   H29   1.084649 S    
C20   C28   1.553160 S    
C47   H20   1.083510 S    
C7    H2    1.107553 S    
C82   C90   1.403726 A    
C5    O11   1.267781 A    
O16   Cr5   2.045176 S    
C21   C91   1.435288 S    
C33   C93   1.429601 S    
C33   C41   1.202708 T    
C15   C16   1.552795 S    
C19   C20   1.556512 S    
C13   H5    1.110186 S    
C79   H36   1.083610 S    
O14   Cr4   2.044887 S    
C66   C67   1.385990 A    
C49   C57   1.401800 A    
C46   H19   1.083127 S    
O21   C94   1.278661 A    
C52   C56   1.397304 A    
O6    C3    1.271849 A    
C71   C73   1.384935 A    
C77   C80   1.399015 A    
C25   C27   1.551950 S    
O17   C92   1.276776 A    
C63   H28   1.083182 S    
O23   Cr5   1.927548 S    
O14   C93   1.270199 A    
C6    C74   1.461756 S    
C12   C17   1.466359 S    
C38   C42   1.468600 S    
C39   H14   1.110345 S    
C36   C39   1.535643 S    
C31   H13   1.110083 S    
C23   C25   1.530330 S    
C37   C38   1.544056 S    
H9    C28   1.107901 S    
C32   H12   1.110171 S    
C57   H21   1.084904 S    
Cr3   O13   1.981410 S    
O18   Cr6   2.047540 S    
Cr5   O26   1.981645 S    
O15   Cr4   1.929319 S    
N1    O28   1.300349 A    
C75   C90   1.404449 A    
C65   C94   1.462102 S    
C64   H25   1.084240 S    
Cr6   O26   1.983141 S    
N2    O30   1.300341 A    
C95   O24   1.269198 A    
C77   C88   1.411216 A    
C31   C35   1.553254 S    
C82   H40   1.084809 S    
O1    Cr1   2.046591 S    
C8    C16   1.548442 S    
C76   C84   1.412532 A    
C7    C11   1.550306 S    
O10   Cr2   1.925738 S    
C75   C76   1.400928 A    
Cr1   O13   1.982832 S    
O1    C3    1.273844 A    
C8    H1    1.110049 S    
O21   Cr4   1.927022 S    
C55   C56   1.409778 A    
C46   C47   1.397387 A    
C39   C40   1.533997 S    
C7    C14   1.529573 S    
C31   C32   1.556360 S    
O5    Cr3   2.048050 S    
C37   H15   1.110069 S    
C60   C63   1.403296 A    
C14   C18   1.463687 S    
C23   N1    1.449344 S    
C53   H23   1.083703 S    
C38   C40   1.527960 S    
C40   N2    1.449115 S    
C13   C15   1.548893 S    
O25   Cr6   1.928751 S    
C43   C44   1.397416 A    
C48   C49   1.404528 A    
C55   C57   1.382485 A    
C59   C60   1.398340 A    
O7    Cr1   2.045238 S    
C7    C8    1.547301 S    
C24   C27   1.540643 S    
C21   C29   1.206156 T    
O12   C6    1.277715 A    
C12   C15   1.535501 S    
C11   H6    1.110140 S    
C62   H27   1.083610 S    
C67   C69   1.399908 A    
C70   H30   1.083069 S    
O15   C91   1.275076 A    
C9    C17   1.205728 T    
O19   C93   1.275928 A    
C82   C83   1.384149 A    
C32   C40   1.534500 S    
C76   C79   1.403565 A    
C23   C24   1.526772 S    
C34   C42   1.206515 T    
C3    C22   1.431849 S    
Cr4   O26   1.982906 S    
C51   C53   1.399689 A    
C75   H34   1.084217 S    
C94   O22   1.267908 A    
C19   H8    1.110209 S    
O19   Cr6   1.926276 S    
C20   H7    1.109990 S    
C1    O3    1.271970 A    
C81   C96   1.460367 S    
C68   C72   1.400558 A    
C27   C28   1.554575 S    
C50   C51   1.381737 A    
C22   C30   1.204040 T    
C69   C70   1.388950 A    
C45   C48   1.396740 A    
C83   C85   1.399829 A    
C59   H26   1.084312 S    
C44   C52   1.411553 A    
C35   H16   1.101755 S    
O9    Cr2   2.046511 S    
O2    Cr1   1.928072 S    
C15   H4    1.109872 S    
C25   H11   1.110321 S    
Cr2   O13   1.983284 S    
C48   H17   1.084313 S    
O6    Cr3   1.927071 S    
C87   C88   1.411134 A    
O11   Cr3   2.044008 S    
C54   H22   1.083952 S    
C2    O5    1.270761 A    
C1    C34   1.436004 S    
C61   C64   1.399457 A    
O17   Cr5   1.929802 S    
C85   C86   1.388524 A    
C81   C89   1.400726 A    
O22   Cr5   2.046300 S    
H3    C16   1.106299 S    
C13   C14   1.535845 S    
C9    C92   1.435070 S    
C89   H37   1.084999 S    
O2    C1    1.277351 A    
C53   C54   1.387519 A    
C8    C12   1.537516 S    
C86   H38   1.084014 S    
C91   O16   1.272381 A    
C32   C36   1.535985 S    
C59   C74   1.405511 A    
C11   C13   1.545349 S    
C87   C89   1.385845 A    
C11   C12   1.538604 S    
C71   C72   1.408948 A    
O4    C2    1.274819 A    
O20   Cr4   2.045841 S    
O7    C6    1.269703 A    
C35   C36   1.539155 S    
C14   C16   1.536235 S    
C19   C23   1.536054 S    
C4    C90   1.461590 S    
C26   C30   1.463386 S    
C62   C63   1.398072 A    
C50   H24   1.084745 S    
O23   C95   1.278313 A    
O12   Cr3   1.929464 S    
O25   C96   1.277246 A    
C86   C87   1.399626 A    
C20   C24   1.544076 S    
O24   Cr6   2.043438 S    
O3    Cr2   2.043229 S    
C27   H10   1.109542 S    
C31   C38   1.543985 S    
C2    C10   1.431536 S    
C69   H31   1.083938 S    
C4    O9    1.268128 A    
O20   C96   1.270255 A    
C43   H18   1.084260 S    
C10   C18   1.204012 T    
C61   C72   1.412072 A    
C25   C26   1.537016 S    
O10   C5    1.279023 A    
C92   O18   1.271217 A    
C60   C68   1.411087 A    
C26   C28   1.541146 S    
C36   C41   1.461426 S    
C80   C81   1.405670 A    
C19   C26   1.537488 S    
C66   H32   1.084785 S    
C24   C29   1.467992 S    
O8    C4    1.279210 A    
C35   C37   1.551478 S    
