data_mof_unit_61940.cif
_audit_creation_date              2012-12-10T17:21:02-0500
_audit_creation_method            fapswitch 2.2
_symmetry_space_group_name_H-M    P1
_symmetry_Int_Tables_number       1
_space_group_crystal_system       triclinic
_cell_length_a                    38.654328
_cell_length_b                    21.694189
_cell_length_c                    21.72349
_cell_angle_alpha                 90.000255
_cell_angle_beta                  55.771335
_cell_angle_gamma                 90.000016
_cell_volume                      15061.6040089

loop_
_atom_site_label
_atom_site_type_symbol
_atom_type_description
_atom_site_fract_x
_atom_site_fract_y
_atom_site_fract_z
_atom_type_partial_charge
C1    C     C_R   0.999223 0.500012 0.382034 0.830630
C2    C     C_R   0.000778 0.500012 0.617966 0.830628
C3    C     C_R   0.499222 0.000012 0.382034 0.830633
C4    C     C_R   0.500777 0.000012 0.617966 0.830635
C5    C     C_3   0.708815 0.499971 0.791227 0.184109
C6    C     C_3   0.291185 0.499970 0.208773 0.184117
C7    C     C_3   0.208815 0.999971 0.791227 0.184116
C8    C     C_3   0.791185 0.999971 0.208773 0.184110
C9    C     C_3   0.763894 0.531672 0.785249 -0.163137
C10   C     C_3   0.236104 0.531896 0.214898 -0.163140
C11   C     C_3   0.263895 0.031887 0.785108 -0.163138
C12   C     C_3   0.736105 0.031731 0.214790 -0.163135
C13   C     C_3   0.736047 0.558291 0.761134 -0.156710
C14   C     C_3   0.263952 0.558276 0.239134 -0.156715
C15   C     C_3   0.236047 0.058277 0.760877 -0.156711
C16   C     C_3   0.763952 0.058287 0.238937 -0.156709
C17   C     C_1   0.837122 0.500004 0.663255 -0.064287
C18   C     C_1   0.162878 0.500003 0.336745 -0.064288
C19   C     C_1   0.337122 0.000004 0.663255 -0.064289
C20   C     C_1   0.662878 0.000003 0.336745 -0.064289
C21   C     C_1   0.662888 0.499976 0.837108 -0.068396
C22   C     C_1   0.337112 0.499975 0.162892 -0.068396
C23   C     C_1   0.162888 0.999976 0.837108 -0.068396
C24   C     C_1   0.837112 0.999976 0.162892 -0.068396
C25   C     C_R   0.031036 0.527629 0.251925 -0.199109
C26   C     C_R   0.968967 0.527635 0.748073 -0.199107
C27   C     C_R   0.531035 0.027630 0.251926 -0.199114
C28   C     C_R   0.468962 0.027625 0.748077 -0.199115
C29   C     C_R   0.032244 0.526653 0.186870 -0.165146
C30   C     C_R   0.967759 0.526659 0.813128 -0.165149
C31   C     C_R   0.532243 0.026655 0.186871 -0.165147
C32   C     C_R   0.467755 0.026649 0.813131 -0.165143
C33   C     C_R   0.999661 0.499099 0.186552 -0.050200
C34   C     C_R   0.000339 0.499099 0.813448 -0.050196
C35   C     C_R   0.499661 0.999099 0.186552 -0.050200
C36   C     C_R   0.500339 0.999099 0.813448 -0.050204
C37   C     C_R   0.966133 0.471728 0.251281 -0.211975
C38   C     C_R   0.033865 0.471723 0.748721 -0.211978
C39   C     C_R   0.466133 0.971726 0.251280 -0.211979
C40   C     C_R   0.533869 0.971733 0.748717 -0.211977
C41   C     C_R   0.964594 0.471690 0.317098 -0.016405
C42   C     C_R   0.035404 0.471685 0.682903 -0.016401
C43   C     C_R   0.464595 0.971689 0.317098 -0.016399
C44   C     C_R   0.535407 0.971695 0.682899 -0.016400
C45   C     C_R   0.919826 0.500016 0.580671 0.872468
C46   C     C_R   0.080174 0.500016 0.419330 0.872463
C47   C     C_R   0.419826 0.000016 0.580671 0.872466
C48   C     C_R   0.580174 0.000016 0.419329 0.872474
C49   C     C_R   0.997720 0.500049 0.316765 -0.077385
C50   C     C_R   0.002281 0.500050 0.683235 -0.077388
C51   C     C_R   0.497719 0.000049 0.316765 -0.077383
C52   C     C_R   0.502280 0.000050 0.683235 -0.077380
C53   C     C_R   0.500000 0.380965 1.000000 0.776510
C54   C     C_R   1.000000 0.880965 1.000000 0.776509
C55   C     C_R   0.580174 0.499970 0.919853 0.821308
C56   C     C_R   0.419825 0.499970 0.080147 0.821307
C57   C     C_R   0.080174 0.999970 0.919853 0.821309
C58   C     C_R   0.919825 0.999970 0.080147 0.821307
C59   C     C_R   0.500000 0.618774 0.000000 0.777097
C60   C     C_R   0.000000 0.118774 0.000000 0.777097
C61   C     C_R   0.000000 0.380748 1.000000 0.790474
C62   C     C_R   0.500000 0.880748 1.000000 0.790474
C63   C     C_R   0.999968 0.499714 0.119262 0.799445
C64   C     C_R   0.000032 0.499715 0.880738 0.799445
C65   C     C_R   0.499968 0.999714 0.119262 0.799444
C66   C     C_R   0.500032 0.999714 0.880738 0.799448
C67   C     C_R   1.000000 0.619012 1.000000 0.786381
C68   C     C_R   0.500000 0.119012 1.000000 0.786381
C69   C     C_R   0.473166 0.282031 0.066470 -0.174199
C70   C     C_R   0.526833 0.282030 0.933530 -0.174200
C71   C     C_R   0.973166 0.782031 0.066470 -0.174199
C72   C     C_R   0.026834 0.782030 0.933530 -0.174200
C73   C     C_R   0.972649 0.717946 0.066215 -0.175592
C74   C     C_R   0.027351 0.717946 0.933785 -0.175593
C75   C     C_R   0.472649 0.217946 0.066215 -0.175593
C76   C     C_R   0.527350 0.217946 0.933785 -0.175591
C77   C     C_R   1.000000 0.685871 1.000000 -0.013452
C78   C     C_R   0.500000 0.185871 1.000000 -0.013452
C79   C     C_3   0.736122 0.468279 0.715009 -0.154026
C80   C     C_3   0.263879 0.468054 0.284844 -0.154049
C81   C     C_3   0.236121 0.968063 0.715150 -0.154046
C82   C     C_3   0.763878 0.968219 0.284952 -0.154030
C83   C     C_R   0.500000 0.314105 1.000000 -0.007895
C84   C     C_R   1.000000 0.814105 1.000000 -0.007894
C85   C     C_R   0.526837 0.717717 0.012746 -0.170623
C86   C     C_R   0.473163 0.717717 0.987254 -0.170622
C87   C     C_R   0.026836 0.217717 0.012747 -0.170623
C88   C     C_R   0.973163 0.217717 0.987254 -0.170622
C89   C     C_R   0.027353 0.281804 0.011458 -0.169951
C90   C     C_R   0.972647 0.281803 0.988542 -0.169950
C91   C     C_R   0.527353 0.781804 0.011458 -0.169951
C92   C     C_R   0.472647 0.781803 0.988542 -0.169951
C93   C     C_R   0.000000 0.313883 1.000000 -0.011546
C94   C     C_R   0.500000 0.813883 1.000000 -0.011546
C95   C     C_R   0.500000 0.685639 0.000000 -0.007926
C96   C     C_R   1.000000 0.185639 0.000000 -0.007926
C97   C     C_3   0.764051 0.526599 0.684222 -0.143847
C98   C     C_3   0.235949 0.526360 0.315899 -0.143820
C99   C     C_3   0.264051 0.026370 0.684106 -0.143821
C100  C     C_3   0.735949 0.026536 0.315810 -0.143839
C101  C     C_1   0.874871 0.500023 0.625609 -0.128990
C102  C     C_1   0.125129 0.500022 0.374391 -0.128994
C103  C     C_1   0.374871 0.000023 0.625609 -0.128992
C104  C     C_1   0.625128 0.000022 0.374391 -0.128987
C105  C     C_1   0.625134 0.499979 0.874864 -0.170518
C106  C     C_1   0.374866 0.499979 0.125136 -0.170518
C107  C     C_1   0.125134 0.999979 0.874864 -0.170518
C108  C     C_1   0.874866 0.999979 0.125136 -0.170519
C109  C     C_3   0.763972 0.441661 0.739121 -0.153768
C110  C     C_3   0.236028 0.441675 0.260611 -0.153820
C111  C     C_3   0.263972 0.941675 0.739378 -0.153815
C112  C     C_3   0.736028 0.941664 0.260807 -0.153781
C113  C     C_3   0.791201 0.499982 0.709036 0.182146
C114  C     C_3   0.208799 0.499981 0.290964 0.182151
C115  C     C_3   0.291201 0.999982 0.709036 0.182148
C116  C     C_3   0.708798 0.999981 0.290964 0.182146
C117  C     C_3   0.735970 0.473352 0.816031 -0.157336
C118  C     C_3   0.264029 0.473590 0.183848 -0.157336
C119  C     C_3   0.235971 0.973581 0.816147 -0.157336
C120  C     C_3   0.764030 0.973414 0.183936 -0.157335
Cu1   Cu    Cu3+1 0.000000 0.438200 0.500000 1.004477
Cu2   Cu    Cu3+1 0.500000 0.938200 0.500000 1.004474
Cu3   Cu    Cu3+1 0.000000 0.561810 0.500000 0.972785
Cu4   Cu    Cu3+1 0.500000 0.061810 0.500000 0.972788
Cu5   Cu    Cu3+1 0.500010 0.499870 0.938220 0.959810
Cu6   Cu    Cu3+1 0.499990 0.499870 0.061780 0.959813
Cu7   Cu    Cu3+1 0.000010 0.999870 0.938220 0.959812
Cu8   Cu    Cu3+1 0.999990 0.999870 0.061780 0.959811
Cu9   Cu    Cu3+1 0.041440 0.499890 0.958590 0.954625
Cu10  Cu    Cu3+1 0.958560 0.499890 0.041410 0.954627
Cu11  Cu    Cu3+1 0.541440 0.999890 0.958590 0.954626
Cu12  Cu    Cu3+1 0.458560 0.999890 0.041410 0.954626
H1    H     H_    0.776079 0.548495 0.629520 0.140263
H2    H     H_    0.223923 0.548061 0.370698 0.140288
H3    H     H_    0.276078 0.048078 0.629310 0.140287
H4    H     H_    0.723921 0.048381 0.370538 0.140270
H5    H     H_    0.452211 0.306579 0.118042 0.139729
H6    H     H_    0.547789 0.306578 0.881958 0.139730
H7    H     H_    0.952210 0.806579 0.118041 0.139729
H8    H     H_    0.047789 0.806578 0.881958 0.139729
H9    H     H_    0.951520 0.693401 0.117703 0.141102
H10   H     H_    0.048479 0.693399 0.882297 0.141101
H11   H     H_    0.451521 0.193401 0.117703 0.141100
H12   H     H_    0.548479 0.193399 0.882297 0.141101
H13   H     H_    0.547795 0.693170 0.022364 0.139514
H14   H     H_    0.452205 0.693170 0.977637 0.139515
H15   H     H_    0.047794 0.193170 0.022364 0.139515
H16   H     H_    0.952205 0.193170 0.977637 0.139515
H17   H     H_    0.048484 0.306348 0.020646 0.140501
H18   H     H_    0.951516 0.306348 0.979354 0.140500
H19   H     H_    0.548484 0.806348 0.020646 0.140500
H20   H     H_    0.451516 0.806348 0.979354 0.140501
H21   H     H_    0.724233 0.442198 0.686571 0.135855
H22   H     H_    0.275768 0.441789 0.313160 0.135847
H23   H     H_    0.224232 0.941805 0.686828 0.135846
H24   H     H_    0.775767 0.942090 0.313358 0.135851
H25   H     H_    0.724096 0.606277 0.770653 0.134756
H26   H     H_    0.275904 0.606247 0.229836 0.134776
H27   H     H_    0.224096 0.106250 0.770185 0.134774
H28   H     H_    0.775904 0.106270 0.229476 0.134760
H29   H     H_    0.775786 0.557751 0.813684 0.132267
H30   H     H_    0.224212 0.558158 0.186585 0.132282
H31   H     H_    0.275787 0.058143 0.813427 0.132280
H32   H     H_    0.724213 0.057857 0.186386 0.132269
H33   H     H_    0.723954 0.451445 0.870722 0.134266
H34   H     H_    0.276044 0.451878 0.129059 0.134269
H35   H     H_    0.223955 0.951862 0.870933 0.134268
H36   H     H_    0.776046 0.951559 0.129219 0.134266
H37   H     H_    0.775928 0.393678 0.729593 0.136321
H38   H     H_    0.224072 0.393706 0.269918 0.136310
H39   H     H_    0.275928 0.893704 0.730061 0.136309
H40   H     H_    0.724072 0.893684 0.270277 0.136316
H41   H     H_    0.056478 0.549153 0.251493 0.135256
H42   H     H_    0.943526 0.549164 0.748503 0.135257
H43   H     H_    0.556477 0.049156 0.251495 0.135256
H44   H     H_    0.443519 0.049146 0.748510 0.135252
H45   H     H_    0.058255 0.548207 0.137189 0.148550
H46   H     H_    0.941749 0.548217 0.862808 0.148546
H47   H     H_    0.558254 0.048210 0.137190 0.148549
H48   H     H_    0.441741 0.048199 0.862815 0.148552
H49   H     H_    0.940964 0.450755 0.250383 0.186994
H50   H     H_    0.059032 0.450746 0.749620 0.186990
H51   H     H_    0.440965 0.950753 0.250382 0.186995
H52   H     H_    0.559039 0.950763 0.749613 0.186997
O1    O     O_R   0.000010 0.447810 0.409820 -0.576167
O2    O     O_R   0.999990 0.447810 0.590180 -0.576162
O3    O     O_R   0.500010 0.947810 0.409820 -0.576162
O4    O     O_R   0.499990 0.947810 0.590180 -0.576169
O5    O     O_R   0.034990 0.499890 0.055220 -0.589805
O6    O     O_R   0.965010 0.499890 0.944780 -0.589803
O7    O     O_R   0.534990 0.999890 0.055220 -0.589804
O8    O     O_R   0.465010 0.999890 0.944780 -0.589806
O9    O     O_R   0.965000 0.499930 0.125200 -0.587357
O10   O     O_R   0.035000 0.499930 0.874800 -0.587357
O11   O     O_R   0.465000 0.999930 0.125200 -0.587357
O12   O     O_R   0.535000 0.999930 0.874800 -0.587359
O13   O     O_R   0.035030 0.590070 0.965060 -0.586333
O14   O     O_R   0.964970 0.590070 0.034940 -0.586333
O15   O     O_R   0.535030 0.090070 0.965060 -0.586333
O16   O     O_R   0.464970 0.090070 0.034940 -0.586332
O17   O     O_R   0.000010 0.552200 0.409870 -0.586525
O18   O     O_R   0.999990 0.552200 0.590130 -0.586530
O19   O     O_R   0.500010 0.052200 0.409870 -0.586529
O20   O     O_R   0.499990 0.052200 0.590130 -0.586525
O21   O     O_R   0.939540 0.447810 0.560460 -0.564831
O22   O     O_R   0.060460 0.447810 0.439540 -0.564825
O23   O     O_R   0.439540 0.947810 0.560460 -0.564826
O24   O     O_R   0.560460 0.947810 0.439540 -0.564834
O25   O     O_R   0.939550 0.552200 0.560510 -0.589983
O26   O     O_R   0.060450 0.552200 0.439490 -0.589986
O27   O     O_R   0.439550 0.052200 0.560510 -0.589986
O28   O     O_R   0.560450 0.052200 0.439490 -0.589982
O29   O     O_R   0.500010 0.409700 0.947870 -0.585363
O30   O     O_R   0.499990 0.409700 0.052130 -0.585364
O31   O     O_R   0.000010 0.909700 0.947870 -0.585364
O32   O     O_R   0.999990 0.909700 0.052130 -0.585363
O33   O     O_R   0.560470 0.499890 0.887380 -0.578583
O34   O     O_R   0.439530 0.499890 0.112620 -0.578580
O35   O     O_R   0.060470 0.999890 0.887380 -0.578582
O36   O     O_R   0.939530 0.999890 0.112620 -0.578581
O37   O     O_R   0.560460 0.499990 0.991770 -0.580041
O38   O     O_R   0.439540 0.499990 0.008230 -0.580042
O39   O     O_R   0.060460 0.999990 0.991770 -0.580043
O40   O     O_R   0.939540 0.999990 0.008230 -0.580041
O41   O     O_R   0.500010 0.590060 0.947790 -0.583861
O42   O     O_R   0.499990 0.590060 0.052210 -0.583861
O43   O     O_R   0.000010 0.090060 0.947790 -0.583861
O44   O     O_R   0.999990 0.090060 0.052210 -0.583861
O45   O     O_R   0.034970 0.409720 0.965020 -0.584682
O46   O     O_R   0.965030 0.409720 0.034980 -0.584681
O47   O     O_R   0.534970 0.909720 0.965020 -0.584682
O48   O     O_R   0.465030 0.909720 0.034980 -0.584681
C121  C     C_2   0.927474 0.443612 0.384659 0.827674
O49   O     O_2   0.916216 0.460959 0.446798 -0.614271
O50   O     O_R   0.904441 0.398205 0.377010 -0.767463
H53   H     H_    0.879680 0.383033 0.426736 0.335828
C122  C     C_2   0.072522 0.443601 0.615344 0.827669
O51   O     O_2   0.083782 0.460945 0.553204 -0.614267
O52   O     O_R   0.095551 0.398190 0.622996 -0.767467
H54   H     H_    0.120311 0.383013 0.573272 0.335829
C123  C     C_2   0.427475 0.943608 0.384657 0.827665
O53   O     O_2   0.416218 0.960951 0.446798 -0.614266
O54   O     O_R   0.404443 0.898203 0.377007 -0.767472
H55   H     H_    0.379682 0.883029 0.426731 0.335828
C124  C     C_2   0.572530 0.943622 0.615337 0.827666
O55   O     O_2   0.583786 0.960969 0.553199 -0.614272
O56   O     O_R   0.595565 0.898219 0.622983 -0.767467
H56   H     H_    0.620327 0.883050 0.573256 0.335828

loop_
_geom_bond_atom_site_label_1
_geom_bond_atom_site_label_2
_ccdc_geom_bond_type
C80   C110  S    
C56   O38   A    
C88   C96   A    
C124  O56   S    
C53   O30   A    
C47   O27   A    
C16   H28   S    
C69   H5    S    
C9    C117  S    
Cu11  O15   S    
O52   H54   S    
C2    O18   A    
C100  C116  S    
C97   H1    S    
C38   H50   S    
C90   H18   S    
Cu10  O9    S    
C11   C119  S    
C110  C118  S    
C56   O34   A    
Cu9   O10   S    
C85   C91   A    
Cu6   O37   S    
Cu7   O35   S    
C68   O16   A    
C55   O33   A    
C73   H9    S    
Cu5   O38   S    
C43   C123  S    
C54   O32   A    
C46   C102  S    
C120  H36   S    
C19   C103  T    
C87   H15   S    
Cu4   O20   S    
C68   O15   A    
C8    C82   S    
C7    C119  S    
C32   C36   A    
C76   C78   A    
C34   C64   S    
C38   C42   A    
C26   C50   A    
C99   C115  S    
C36   C66   S    
C4    O20   A    
C6    C14   S    
C35   C65   S    
O54   H55   S    
C48   C104  S    
Cu3   O26   S    
Cu12  O48   S    
C71   C73   A    
Cu12  O16   S    
C122  O51   D    
C3    O19   A    
C25   C29   A    
C111  C119  S    
C123  O53   D    
C18   C102  T    
C41   C49   A    
C31   H47   S    
C59   O42   A    
C9    C13   S    
C17   C101  T    
Cu6   O30   S    
C8    C24   S    
Cu1   O2    S    
C12   C120  S    
Cu5   O29   S    
C37   H49   S    
C12   C16   S    
C29   C33   A    
C117  H33   S    
C45   O21   A    
C74   C77   A    
Cu9   O5    S    
C92   H20   S    
Cu12  O11   S    
C61   O45   A    
O50   H53   S    
C63   O9    A    
C24   C108  T    
Cu1   O21   S    
C5    C79   S    
C11   C115  S    
C121  O49   D    
Cu8   O36   S    
C40   C44   A    
C5    C13   S    
C10   C114  S    
C109  C113  S    
Cu12  O8    S    
C55   O37   A    
C82   H24   S    
C44   C52   A    
C6    C22   S    
C7    C15   S    
C74   H10   S    
C1    O17   A    
C8    C16   S    
C34   C38   A    
C124  O55   D    
Cu7   O43   S    
C18   C114  S    
Cu6   O42   S    
C11   C15   S    
Cu1   O22   S    
C48   O28   A    
C86   H14   S    
Cu8   O39   S    
C13   H25   S    
C42   C122  S    
C109  H37   S    
C14   C98   S    
C68   C78   S    
C54   O31   A    
C33   C63   S    
C58   C108  S    
C47   C103  S    
C79   C109  S    
Cu4   O19   S    
C17   C113  S    
C53   O29   A    
C81   C111  S    
C36   C40   A    
C65   O11   A    
C72   C74   A    
C1    C49   S    
C10   C14   S    
C27   H43   S    
C20   C116  S    
C30   C34   A    
C16   C100  S    
C71   H7    S    
Cu4   O28   S    
C67   O13   A    
C46   O26   A    
C27   C31   A    
C118  H34   S    
C45   O25   A    
C66   O8    A    
C60   O44   A    
C82   C112  S    
C11   H31   S    
C109  C117  S    
C35   C39   A    
C2    O2    A    
C15   H27   S    
C69   C83   A    
Cu2   O24   S    
C10   C118  S    
C79   H21   S    
Cu11  O12   S    
C111  C115  S    
C64   O6    A    
C28   C32   A    
C42   C50   A    
Cu8   O44   S    
Cu3   O17   S    
C23   C107  T    
C87   C96   A    
C48   O24   A    
C92   C94   A    
C61   O46   A    
C30   H46   S    
C99   H3    S    
C13   C97   S    
C39   H51   S    
C85   C95   A    
Cu9   O45   S    
C9    H29   S    
C70   C83   A    
C121  O50   S    
C56   C106  S    
C72   C84   A    
C75   H11   S    
C44   C124  S    
C59   C95   S    
C110  H38   S    
C22   C106  T    
C7    C81   S    
C88   C90   A    
C70   H6    S    
C62   O48   A    
C122  O52   S    
C2    C50   S    
C65   O7    A    
Cu5   Cu6   S    
Cu6   O34   S    
C31   C35   A    
C70   C76   A    
C97   C113  S    
Cu7   Cu8   S    
C119  H35   S    
C112  C116  S    
C8    C120  S    
C90   C93   A    
C112  C120  S    
C71   C84   A    
C57   O39   A    
C67   O14   A    
Cu11  O47   S    
C46   O22   A    
C26   H42   S    
C110  C114  S    
C58   O40   A    
Cu3   O18   S    
C80   C98   S    
C67   C77   S    
C82   C100  S    
Cu2   O23   S    
C79   C97   S    
C28   H44   S    
C15   C99   S    
C76   H12   S    
C3    O3    A    
C66   O12   A    
O56   H56   S    
C80   H22   S    
Cu2   O4    S    
C20   C104  T    
Cu4   O27   S    
Cu11  O7    S    
C12   C116  S    
C57   O35   A    
C98   H2    S    
C58   O36   A    
C81   H23   S    
C47   O23   A    
C81   C99   S    
C53   C83   S    
C60   O43   A    
C9    C113  S    
C1    O1    A    
C4    O4    A    
C62   C94   S    
C88   H16   S    
Cu9   Cu10  S    
C37   C41   A    
C63   O5    A    
C91   C94   A    
C91   H19   S    
C27   C51   A    
C28   C52   A    
C19   C115  S    
Cu7   O31   S    
Cu2   O3    S    
C112  H40   S    
C41   C121  S    
C12   H32   S    
C43   C51   A    
C7    C23   S    
Cu7   O40   S    
Cu3   O25   S    
C54   C84   S    
C89   H17   S    
C55   C105  S    
C3    C51   S    
C33   C37   A    
C69   C75   A    
C111  H39   S    
C4    C52   S    
C89   C93   A    
Cu11  Cu12  S    
C59   O41   A    
C75   C78   A    
C25   C49   A    
C14   H26   S    
Cu1   Cu3   S    
C64   O10   A    
C98   C114  S    
C86   C95   A    
Cu5   O41   S    
Cu1   O1    S    
Cu8   O32   S    
C25   H41   S    
C72   H8    S    
C5    C21   S    
C39   C43   A    
C73   C77   A    
C10   H30   S    
C62   O47   A    
C6    C80   S    
C5    C117  S    
C100  H4    S    
C57   C107  S    
C87   C89   A    
Cu10  O46   S    
C32   H48   S    
C86   C92   A    
C60   C96   S    
C123  O54   S    
C85   H13   S    
Cu10  O14   S    
C61   C93   S    
Cu2   Cu4   S    
C6    C118  S    
Cu9   O13   S    
C21   C105  T    
Cu10  O6    S    
C29   H45   S    
Cu5   O33   S    
C40   H52   S    
C26   C30   A    
C45   C101  S    
