data_mof_unit_25296.cif
_audit_creation_date              2012-12-10T19:15:16-0500
_audit_creation_method            fapswitch 2.2
_symmetry_space_group_name_H-M    P1
_symmetry_Int_Tables_number       1
_space_group_crystal_system       triclinic
_cell_length_a                    10.6507
_cell_length_b                    9.692254
_cell_length_c                    23.393439
_cell_angle_alpha                 90.083828
_cell_angle_beta                  89.465781
_cell_angle_gamma                 89.202996
_cell_volume                      2414.54643572

loop_
_atom_site_label
_atom_site_type_symbol
_atom_type_description
_atom_site_fract_x
_atom_site_fract_y
_atom_site_fract_z
_atom_type_partial_charge
C1    C     C_R   0.257402 0.500665 0.499791 0.964072
C2    C     C_R   0.272165 0.622297 0.969584 -0.153318
C3    C     C_R   0.268044 0.619229 0.029093 -0.155326
C4    C     C_R   0.366113 0.556698 0.059769 -0.015523
C5    C     C_R   0.468770 0.496038 0.030205 -0.019634
C6    C     C_R   0.567674 0.432964 0.060529 -0.018520
C7    C     C_R   0.669423 0.372482 0.030752 -0.155464
C8    C     C_R   0.673366 0.375115 0.971305 -0.156198
C9    C     C_R   0.364958 0.553715 0.119502 0.504306
C10   C     C_R   0.562681 0.433405 0.120146 0.510659
C11   C     C_R   0.482114 0.621250 0.237349 -0.117736
C12   C     C_R   0.497419 0.499864 0.389240 0.861209
C13   C     C_R   0.493138 0.622817 0.296424 -0.175668
C14   C     C_R   0.485679 0.499101 0.327257 -0.085039
C15   C     C_R   0.463556 0.374598 0.298541 -0.172534
C16   C     C_R   0.451838 0.373503 0.239556 -0.115913
C17   C     C_R   0.462734 0.496464 0.208931 0.307447
C18   C     C_R   0.438984 0.395104 0.762408 -0.203028
C19   C     C_R   0.443722 0.390832 0.703254 0.654371
C20   C     C_R   0.495501 0.501401 0.672897 -0.189169
C21   C     C_R   0.542047 0.615775 0.702299 -0.270222
C22   C     C_R   0.538479 0.620402 0.761942 0.156415
C23   C     C_R   0.742124 0.498961 0.502289 1.012318
C24   C     C_R   0.486353 0.508290 0.791740 0.210691
C25   C     C_3   0.069458 0.614883 0.540812 0.482519
C26   C     C_3   0.073433 0.359702 0.524795 0.480146
C27   C     C_3   0.925745 0.615484 0.540836 0.483310
C28   C     C_3   0.929932 0.356366 0.524080 0.484362
C29   C     C_3   0.068604 0.519970 0.435034 0.067046
C30   C     C_3   0.120439 0.500668 0.499130 -0.327625
C31   C     C_3   0.877973 0.497067 0.502050 -0.279667
C32   C     C_3   0.922370 0.516915 0.439260 -0.660165
C33   C     C_3   0.383612 0.082804 0.472933 0.516904
C34   C     C_3   0.383381 0.920330 0.473614 0.548320
C35   C     C_3   0.609772 0.079691 0.466816 0.534526
C36   C     C_3   0.609217 0.917025 0.466390 0.546625
C37   C     C_3   0.506393 0.081379 0.557697 -0.546776
C38   C     C_3   0.507806 0.918718 0.557682 -0.604304
C39   C     C_R   0.499127 0.500159 0.610710 1.019491
C40   C     C_R   0.578116 0.443415 0.881095 0.500051
C41   C     C_R   0.380996 0.564936 0.880139 0.520150
C42   C     C_R   0.374357 0.562763 0.939790 -0.026514
C43   C     C_R   0.472913 0.499052 0.970182 -0.020654
C44   C     C_R   0.575758 0.438523 0.940698 -0.023378
H1    H     H_    0.195341 0.671607 0.947069 0.196530
H2    H     H_    0.582922 0.700758 0.678851 0.193038
H3    H     H_    0.102742 0.717799 0.529244 0.029217
H4    H     H_    0.110313 0.269608 0.500373 0.017875
H5    H     H_    0.891555 0.717057 0.524967 0.016733
H6    H     H_    0.900778 0.271686 0.495034 0.017917
H7    H     H_    0.877570 0.610277 0.420573 0.231442
H8    H     H_    0.884102 0.431118 0.413244 0.216955
H9    H     H_    0.188192 0.666357 0.050925 0.194363
H10   H     H_    0.300546 0.120541 0.497786 0.042653
H11   H     H_    0.302687 0.886941 0.500209 0.001469
H12   H     H_    0.591831 0.119532 0.579319 0.249390
H13   H     H_    0.594879 0.879870 0.578511 0.232157
H14   H     H_    0.424750 0.119731 0.583403 0.282920
H15   H     H_    0.428156 0.881012 0.584218 0.243715
H16   H     H_    0.697709 0.114003 0.487461 0.027289
H17   H     H_    0.697679 0.879140 0.486242 0.015460
H18   H     H_    0.746376 0.323335 0.053237 0.194857
H19   H     H_    0.753164 0.327837 0.949483 0.196792
H20   H     H_    0.491168 0.716279 0.213464 0.157522
H21   H     H_    0.509040 0.720169 0.317752 0.246551
H22   H     H_    0.455651 0.278147 0.321505 0.245244
H23   H     H_    0.436611 0.277018 0.217441 0.155315
H24   H     H_    0.398083 0.310332 0.785839 0.164959
N1    N     N_R   0.482079 0.506581 0.852483 -0.350047
N2    N     N_R   0.462611 0.493397 0.148114 -0.356358
N3    N     N_3   0.499750 0.138610 0.498760 -0.177183
N4    N     N_3   0.499750 0.861390 0.498760 -0.163444
O1    O     O_R   0.314910 0.616040 0.499990 -0.626951
O2    O     O_R   0.314910 0.383960 0.499990 -0.613309
O3    O     O_R   0.500080 0.616070 0.416130 -0.535630
O4    O     O_R   0.500080 0.383930 0.416130 -0.539291
O5    O     O_R   0.685320 0.616040 0.499970 -0.636041
O6    O     O_R   0.685320 0.383960 0.499970 -0.615373
O7    O     O_R   0.500150 0.616010 0.583820 -0.640287
O8    O     O_R   0.500150 0.383990 0.583820 -0.571603
O9    O     O_2   0.675346 0.386019 0.851757 -0.534392
O10   O     O_2   0.287542 0.624281 0.849870 -0.537140
O11   O     O_2   0.267417 0.610285 0.148876 -0.558845
O12   O     O_2   0.657681 0.376064 0.150119 -0.546939
Zn1   Zn    Zn3+2 0.500150 0.654960 0.499970 1.020385
Zn2   Zn    Zn3+2 0.500150 0.345040 0.499970 1.056678
F1    F     F_    0.394744 0.280571 0.675937 -0.633472
C45   C     C_3   0.592583 0.743624 0.792404 -0.394334
C46   C     C_3   0.508209 0.871868 0.785308 -0.348303
C47   C     C_3   0.561451 0.995642 0.816858 -0.769161
H25   H     H_    0.568813 0.973308 0.863281 0.254972
H26   H     H_    0.655765 0.021044 0.799510 0.281902
H27   H     H_    0.498272 0.086483 0.811220 0.256798
H28   H     H_    0.499660 0.898207 0.739256 0.242481
H29   H     H_    0.412865 0.850657 0.802594 0.269626
H30   H     H_    0.604631 0.722784 0.838698 0.206827
H31   H     H_    0.687675 0.764063 0.774583 0.230618
F2    F     F_    0.113751 0.594394 0.595847 -0.526763
F3    F     F_    0.116742 0.339704 0.580037 -0.505980
F4    F     F_    0.879184 0.601513 0.596134 -0.549709
F5    F     F_    0.882544 0.327340 0.578171 -0.543610
C48   C     C_3   0.112430 0.656086 0.403303 -0.309354
C49   C     C_3   0.066348 0.799666 0.424639 -0.385963
C50   C     C_3   0.065902 0.906726 0.376698 -0.773419
H32   H     H_    0.160066 0.912397 0.356104 0.309806
H33   H     H_    0.995291 0.880049 0.343977 0.259501
H34   H     H_    0.041052 0.009704 0.394743 0.237778
H35   H     H_    0.970758 0.798055 0.443119 0.206148
H36   H     H_    0.130184 0.839269 0.457070 0.230187
H37   H     H_    0.216441 0.656069 0.399622 0.229752
H38   H     H_    0.077597 0.650929 0.358957 0.218122
C51   C     C_3   0.115165 0.392789 0.396967 -0.403390
C52   C     C_3   0.089457 0.400721 0.332126 -0.362372
C53   C     C_3   0.107595 0.260233 0.303353 -0.790507
H39   H     H_    0.202418 0.217025 0.312582 0.282315
H40   H     H_    0.035072 0.187659 0.318746 0.262203
H41   H     H_    0.098113 0.271660 0.256362 0.260721
H42   H     H_    0.992148 0.438073 0.324123 0.244154
H43   H     H_    0.156690 0.472363 0.311501 0.230022
H44   H     H_    0.218000 0.377365 0.401423 0.226141
H45   H     H_    0.069893 0.297182 0.412233 0.197547
F6    F     F_    0.368959 0.131870 0.417758 -0.605894
F7    F     F_    0.366478 0.868755 0.419032 -0.601064
F8    F     F_    0.613256 0.130191 0.411461 -0.572234
F9    F     F_    0.610720 0.867812 0.410761 -0.579248

loop_
_geom_bond_atom_site_label_1
_geom_bond_atom_site_label_2
_ccdc_geom_bond_type
C45   H30   S    
C34   F7    S    
O4    Zn2   S    
C11   C13   A    
C41   C42   A    
C29   C51   S    
C19   C20   A    
C50   H33   S    
C53   H39   S    
C7    C8    A    
C7    H18   S    
C13   H21   S    
C37   C38   S    
C18   C24   A    
C1    O2    A    
C35   F8    S    
C52   C53   S    
C29   C32   S    
C19   F1    S    
C5    C6    A    
C18   H24   S    
C15   C16   A    
C38   H13   S    
C33   H10   S    
C18   C19   A    
C46   H28   S    
C50   H32   S    
O8    Zn2   S    
C52   H43   S    
C37   H12   S    
C28   H6    S    
C28   F5    S    
O3    Zn1   S    
C32   H8    S    
C36   F9    S    
C16   C17   A    
C49   H35   S    
C22   C45   S    
C25   H3    S    
C45   H31   S    
C26   H4    S    
C26   F3    S    
C45   C46   S    
O6    Zn2   S    
C5    C43   A    
C35   N3    S    
C17   N2    S    
C21   C22   A    
C48   H38   S    
C51   C52   S    
C24   N1    S    
N4    Zn1   S    
C2    H1    S    
C38   N4    S    
C27   F4    S    
C40   N1    A    
C27   C31   S    
C8    C44   A    
C9    N2    A    
C11   H20   S    
C51   H44   S    
C20   C39   S    
C15   H22   S    
C23   O5    A    
C52   H42   S    
C35   H16   S    
C35   C36   S    
C23   C31   S    
C46   H29   S    
C43   C44   A    
C32   H7    S    
C29   C30   S    
N3    Zn2   S    
C47   H26   S    
C31   C32   S    
C33   C34   S    
C34   H11   S    
C16   H23   S    
O2    Zn2   S    
O1    Zn1   S    
C9    O11   S    
C10   N2    A    
C12   C14   S    
C26   C30   S    
C12   O4    A    
C33   F6    S    
C22   C24   A    
C48   H37   S    
C42   C43   A    
C3    C4    A    
C34   N4    S    
O7    Zn1   S    
C27   H5    S    
C47   H27   S    
C41   N1    A    
C21   H2    S    
C25   C30   S    
C11   C17   A    
C40   O9    S    
C28   C31   S    
C37   H14   S    
C4    C5    A    
C6    C10   A    
C53   H40   S    
C6    C7    A    
C25   C27   S    
C26   C28   S    
C49   H36   S    
C1    O1    A    
C39   O8    A    
C37   N3    S    
C2    C3    A    
C46   C47   S    
C51   H45   S    
C3    H9    S    
C47   H25   S    
C2    C42   A    
C41   O10   S    
C10   O12   S    
C1    C30   S    
C29   C48   S    
C23   O6    A    
C48   C49   S    
C53   H41   S    
C33   N3    S    
C8    H19   S    
O5    Zn1   S    
C38   H15   S    
C36   N4    S    
C25   F2    S    
C40   C44   A    
C20   C21   A    
C12   O3    A    
C49   C50   S    
C14   C15   A    
C4    C9    A    
C13   C14   A    
C50   H34   S    
C36   H17   S    
C39   O7    A    
