data_mof_unit_50629.cif
_audit_creation_date              2012-12-11T17:17:12-0500
_audit_creation_method            fapswitch 2.2
_symmetry_space_group_name_H-M    P1
_symmetry_Int_Tables_number       1
_space_group_crystal_system       triclinic
_cell_length_a                    6.940762
_cell_length_b                    13.361025
_cell_length_c                    14.70354
_cell_angle_alpha                 98.884555
_cell_angle_beta                  89.829699
_cell_angle_gamma                 90.243332
_cell_volume                      1347.1667196

loop_
_atom_site_label
_atom_site_type_symbol
_atom_type_description
_atom_site_fract_x
_atom_site_fract_y
_atom_site_fract_z
_atom_type_partial_charge
O1    O     O_R   0.354890 0.151580 0.148210 -0.534551
O2    O     O_R   0.645110 0.848420 0.851790 -0.530942
O3    O     O_R   0.682370 0.152980 0.336770 -0.540287
O4    O     O_R   0.317630 0.847020 0.663230 -0.541705
O5    O     O_R   0.854980 0.348430 0.351800 -0.541769
O6    O     O_R   0.145020 0.651570 0.648200 -0.540145
C1    C     C_R   0.513551 0.130922 0.365989 0.708049
C2    C     C_R   0.486448 0.869013 0.634002 0.704029
O7    O     O_R   0.684450 0.139580 0.148000 -0.522764
O8    O     O_R   0.315550 0.860420 0.852000 -0.537020
O9    O     O_R   0.857080 0.334940 0.161680 -0.531297
O10   O     O_R   0.142920 0.665060 0.838320 -0.542525
C3    C     C_R   0.515476 0.112474 0.114167 0.761226
C4    C     C_R   0.484435 0.887226 0.886067 0.753578
O11   O     O_R   0.352790 0.165070 0.338330 -0.529711
O12   O     O_R   0.647210 0.834930 0.661670 -0.529304
O13   O     O_3   0.522170 0.314120 0.254710 -0.379746
O14   O     O_3   0.477830 0.685880 0.745290 -0.374887
V1    V     V_3+5 0.796120 0.238110 0.249130 1.515806
V2    V     V_3+5 0.203880 0.761890 0.750870 1.487063
O15   O     O_R   0.186930 0.347040 0.163240 -0.547987
O16   O     O_R   0.813070 0.652960 0.836760 -0.538156
C5    C     C_R   0.018619 0.368285 0.133278 0.740188
C6    C     C_R   0.981479 0.631360 0.866300 0.729987
O17   O     O_R   0.184850 0.360440 0.352010 -0.542975
O18   O     O_R   0.815150 0.639560 0.647990 -0.541084
C7    C     C_R   0.015830 0.387340 0.385986 0.718047
C8    C     C_R   0.984169 0.612665 0.614010 0.726148
V3    V     V_3+5 0.296410 0.261900 0.250880 1.485522
V4    V     V_3+5 0.703590 0.738100 0.749120 1.497623
O19   O     O_3   0.020490 0.185890 0.245290 -0.350575
O20   O     O_3   0.979510 0.814110 0.754710 -0.357141
C9    C     C_1   0.005147 0.466918 0.466345 -0.171550
C10   C     C_1   0.994853 0.533089 0.533651 -0.170729
C11   C     C_3   0.094528 0.584636 0.029715 0.040474
C12   C     C_3   0.906079 0.414629 0.968813 0.014138
C13   C     C_3   0.919663 0.544670 0.078796 -0.191906
C14   C     C_3   0.080997 0.454812 0.919978 -0.193183
H1    H     H_    0.854733 0.581995 0.144383 0.145494
H2    H     H_    0.146136 0.417732 0.854347 0.145126
C15   C     C_3   0.009862 0.437701 0.062004 -0.101334
C16   C     C_3   0.990532 0.561337 0.936829 -0.082531
C17   C     C_3   0.186391 0.478211 0.014175 -0.150147
C18   C     C_3   0.814325 0.521036 0.984625 -0.129270
H3    H     H_    0.339518 0.460938 0.026674 0.142254
H4    H     H_    0.661200 0.538125 0.971954 0.152915
C19   C     C_3   0.398075 0.959222 0.427456 0.034301
C20   C     C_3   0.601981 0.040619 0.572699 0.022578
C21   C     C_3   0.575207 0.909163 0.465033 -0.161030
C22   C     C_3   0.424839 0.090748 0.535107 -0.166343
H5    H     H_    0.636631 0.834299 0.436326 0.146526
H6    H     H_    0.363463 0.165606 0.563871 0.145087
C23   C     C_3   0.494700 0.938953 0.563394 -0.090148
C24   C     C_3   0.505365 0.060941 0.436643 -0.087358
C25   C     C_3   0.315984 0.987698 0.525647 -0.178615
C26   C     C_3   0.684184 0.012201 0.474508 -0.169688
H7    H     H_    0.163993 0.977020 0.545928 0.159664
H8    H     H_    0.836200 0.022777 0.454153 0.158701
C27   C     C_1   0.504775 0.032784 0.033894 -0.163999
C28   C     C_1   0.494942 0.966658 0.966538 -0.158970
C29   C     C_2   0.199418 0.681683 0.062084 0.718154
O21   O     O_2   0.370836 0.680296 0.080607 -0.563175
O22   O     O_R   0.100603 0.773480 0.069502 -0.662258
H9    H     H_    0.187252 0.834046 0.089873 0.300532
C30   C     C_2   0.798573 0.320351 0.930035 0.747959
O23   O     O_2   0.700176 0.319837 0.861219 -0.529042
O24   O     O_R   0.812850 0.233433 0.971448 -0.669265
H10   H     H_    0.736016 0.174564 0.937616 0.291967
C31   C     C_2   0.280054 0.912033 0.347051 0.720966
O25   O     O_2   0.143180 0.957904 0.321799 -0.558792
O26   O     O_R   0.325117 0.814942 0.302512 -0.656856
H11   H     H_    0.230385 0.789450 0.251872 0.315021
C32   C     C_2   0.719427 0.085738 0.654081 0.730804
O27   O     O_2   0.676356 0.168382 0.696854 -0.530015
O28   O     O_R   0.878090 0.033070 0.680390 -0.665585
H12   H     H_    0.946161 0.071064 0.736291 0.296430

loop_
_geom_bond_atom_site_label_1
_geom_bond_atom_site_label_2
_ccdc_geom_bond_type
V4    O20   S    
O13   V3    S    
C32   O27   D    
O4    C2    A    
V1    O19   S    
C19   C21   S    
C7    C9    S    
O9    V1    S    
C22   C24   S    
C11   C13   S    
C14   C16   S    
O3    C1    A    
O12   V4    S    
C6    C16   S    
C31   O26   S    
O9    C5    A    
C29   O22   S    
C11   C16   S    
O7    C3    A    
C19   C31   S    
O5    C7    A    
O7    V1    S    
O6    C8    A    
O8    V2    S    
C21   H5    S    
C22   H6    S    
O3    V1    S    
O14   V4    S    
C11   C17   S    
C20   C22   S    
C8    C10   S    
C27   C28   T    
C2    O12   A    
C15   C17   S    
C12   C15   S    
C29   O21   D    
C16   C18   S    
C18   H4    S    
O11   V3    S    
C23   C25   S    
O15   C5    A    
O17   V3    S    
C20   C23   S    
C24   C26   S    
O24   H10   S    
O8    C4    A    
C12   C30   S    
C30   O24   S    
O15   V3    S    
O28   H12   S    
O10   V2    S    
O1    V3    S    
C9    C10   T    
C11   C29   S    
C17   H3    S    
C19   C24   S    
O5    V1    S    
O18   V4    S    
C25   H7    S    
O16   C6    A    
C12   C18   S    
O1    C3    A    
C32   O28   S    
C4    C28   S    
C19   C25   S    
V2    O20   S    
C20   C26   S    
O16   V4    S    
C20   C32   S    
C2    C23   S    
C3    C27   S    
O17   C7    A    
C21   C26   S    
O6    V2    S    
O10   C6    A    
O18   C8    A    
C22   C25   S    
C5    C15   S    
O2    V4    S    
C13   C18   S    
C12   C14   S    
O26   H11   S    
V3    O19   S    
C14   H2    S    
C21   C23   S    
C1    O11   A    
O13   V1    S    
C26   H8    S    
O14   V2    S    
C13   C15   S    
C31   O25   D    
O2    C4    A    
O22   H9    S    
O4    V2    S    
C14   C17   S    
C13   H1    S    
C30   O23   D    
C1    C24   S    
