data_mof_unit_13617.cif
_audit_creation_date              2012-12-11T15:52:26-0500
_audit_creation_method            fapswitch 2.2
_symmetry_space_group_name_H-M    P1
_symmetry_Int_Tables_number       1
_space_group_crystal_system       triclinic
_cell_length_a                    11.142869
_cell_length_b                    11.138207
_cell_length_c                    18.783564
_cell_angle_alpha                 90.059642
_cell_angle_beta                  89.953736
_cell_angle_gamma                 119.962462
_cell_volume                      2019.69054371

loop_
_atom_site_label
_atom_site_type_symbol
_atom_type_description
_atom_site_fract_x
_atom_site_fract_y
_atom_site_fract_z
_atom_type_partial_charge
C1    C     C_R   0.544758 0.427072 0.139807 0.529522
C2    C     C_3   0.018215 0.738725 0.461364 -0.275518
C3    C     C_3   0.721791 0.980356 0.453060 -0.269595
C4    C     C_3   0.262260 0.282220 0.460719 -0.275488
C5    C     C_R   0.522842 0.452677 0.356026 0.555362
C6    C     C_R   0.542636 0.061899 0.353355 0.560336
C7    C     C_R   0.932122 0.478324 0.355446 0.553886
C8    C     C_R   0.457648 0.517657 0.647205 0.548332
C9    C     C_R   0.060405 0.542463 0.647064 0.547360
C10   C     C_R   0.479383 0.934072 0.645203 0.545313
C11   C     C_R   0.512716 0.012639 0.918984 -0.000021
C12   C     C_R   0.573026 0.117860 0.139837 0.529317
C13   C     C_R   0.987394 0.500288 0.918959 0.000146
C14   C     C_R   0.499736 0.487225 0.918953 0.000324
C15   C     C_R   0.916848 0.461149 0.064415 0.001365
C16   C     C_R   0.544266 0.083089 0.064467 0.001611
C17   C     C_R   0.538772 0.455772 0.064412 0.001096
C18   C     C_R   0.418304 0.038797 0.953883 0.027575
C19   C     C_R   0.961076 0.379573 0.953665 0.027886
C20   C     C_R   0.620271 0.581587 0.953764 0.027895
C21   C     C_R   0.919974 0.354731 0.024568 0.028824
C22   C     C_R   0.434634 0.079882 0.024799 0.029187
C23   C     C_R   0.882147 0.455134 0.139813 0.529767
C24   C     C_R   0.645113 0.565277 0.024646 0.028973
C25   C     C_R   0.642523 0.066512 0.027672 -0.171979
C26   C     C_R   0.933594 0.576174 0.027798 -0.171691
C27   C     C_R   0.423925 0.357568 0.027690 -0.171885
C28   C     C_R   0.964772 0.595241 0.956494 -0.175295
C29   C     C_R   0.630371 0.035446 0.956346 -0.175185
C30   C     C_R   0.404932 0.369665 0.956382 -0.174995
C31   C     C_3   0.265312 0.956418 0.954363 -0.085689
C32   C     C_3   0.043441 0.308826 0.954028 -0.085562
C33   C     C_3   0.690817 0.734636 0.954273 -0.085565
C34   C     C_R   0.456436 0.519276 0.852353 0.540639
C35   C     C_3   0.992847 0.270335 0.031205 -0.109087
C36   C     C_3   0.277470 0.007027 0.031585 -0.108818
C37   C     C_3   0.729386 0.722493 0.031414 -0.109120
C38   C     C_R   0.491162 0.969218 0.570473 0.024266
C39   C     C_R   0.988383 0.499732 0.579362 0.018456
C40   C     C_R   0.500875 0.486881 0.579972 0.017361
C41   C     C_R   0.964681 0.488519 0.430652 0.019587
C42   C     C_R   0.497665 0.994588 0.421911 0.014656
C43   C     C_R   0.514939 0.473544 0.431617 0.019080
C44   C     C_R   0.568918 0.929636 0.528400 0.049696
C45   C     C_R   0.062782 0.543566 0.852355 0.541152
C46   C     C_R   0.958681 0.591215 0.542562 0.027787
C47   C     C_R   0.408230 0.366573 0.542884 0.022263
C48   C     C_R   0.948055 0.585352 0.469958 0.044291
C49   C     C_R   0.571665 0.940171 0.455701 0.019649
C50   C     C_R   0.415418 0.361347 0.470355 0.037766
C51   C     C_R   0.402295 0.014593 0.462453 -0.164745
C52   C     C_R   0.970490 0.381833 0.467653 -0.165945
C53   C     C_R   0.624049 0.583025 0.469183 -0.151751
C54   C     C_R   0.979038 0.385719 0.542188 -0.169906
C55   C     C_R   0.399993 0.003207 0.536688 -0.172274
C56   C     C_R   0.480701 0.937229 0.852357 0.541803
C57   C     C_R   0.617760 0.588801 0.543626 -0.153735
C58   C     C_3   0.194167 0.007820 0.900993 -0.278566
C59   C     C_3   0.281576 0.101999 0.838943 -0.396126
C60   C     C_3   0.992120 0.186383 0.900513 -0.278471
C61   C     C_3   0.897524 0.179414 0.838662 -0.396679
C62   C     C_3   0.813131 0.805756 0.900752 -0.278426
C63   C     C_3   0.820566 0.717988 0.838980 -0.396722
C64   C     C_3   0.098126 0.305180 0.091212 -0.267677
C65   C     C_3   0.208692 0.456104 0.098588 -0.421317
C66   C     C_3   0.207103 0.901738 0.091597 -0.267632
C67   C     C_3   0.718604 0.972503 0.533345 -0.267820
C68   C     C_3   0.247462 0.791103 0.098849 -0.421543
C69   C     C_3   0.694512 0.792910 0.091551 -0.267592
C70   C     C_3   0.543632 0.752682 0.098929 -0.420996
C71   C     C_3   0.029331 0.746804 0.541516 -0.268858
C72   C     C_3   0.252705 0.286888 0.540675 -0.269280
Cr1   Cr    Cr6+3 0.769160 0.541570 0.250690 0.983919
Cr2   Cr    Cr6+3 0.458430 0.227590 0.250690 0.982938
Cr3   Cr    Cr6+3 0.772410 0.230840 0.250690 0.981192
Cr4   Cr    Cr6+3 0.541570 0.769160 0.749310 0.974776
Cr5   Cr    Cr6+3 0.227590 0.458430 0.749310 0.971370
Cr6   Cr    Cr6+3 0.230840 0.772410 0.749310 0.972059
H1    H     H_    0.723359 0.066498 0.056535 0.139351
H2    H     H_    0.923563 0.158380 0.034457 0.101305
H3    H     H_    0.234834 0.076388 0.034977 0.101243
H4    H     H_    0.841306 0.765049 0.034625 0.101379
H5    H     H_    0.339189 0.051452 0.437821 0.135595
H6    H     H_    0.974115 0.299538 0.439078 0.116909
H7    H     H_    0.710506 0.665485 0.441141 0.123563
H8    H     H_    0.990432 0.306938 0.569811 0.113751
H9    H     H_    0.331204 0.025496 0.567479 0.118175
H10   H     H_    0.697522 0.677138 0.571834 0.116207
H11   H     H_    0.736250 0.890010 0.554369 0.136311
H12   H     H_    0.933640 0.657050 0.056783 0.139406
H13   H     H_    0.138263 0.797661 0.559709 0.173341
H14   H     H_    0.206733 0.350189 0.557722 0.170471
H15   H     H_    0.948932 0.774726 0.439828 0.132075
H16   H     H_    0.791150 0.086798 0.433747 0.163869
H17   H     H_    0.223819 0.176032 0.439727 0.133549
H18   H     H_    0.780803 0.075004 0.559543 0.133779
H19   H     H_    0.965279 0.786296 0.566504 0.120265
H20   H     H_    0.208634 0.183349 0.566208 0.124000
H21   H     H_    0.120048 0.781741 0.434074 0.141183
H22   H     H_    0.737651 0.899462 0.427352 0.125581
H23   H     H_    0.343125 0.276848 0.056613 0.139449
H24   H     H_    0.222709 0.343216 0.432512 0.138165
H25   H     H_    0.388273 0.179886 0.855026 0.160995
H26   H     H_    0.285183 0.041211 0.793335 0.176054
H27   H     H_    0.231705 0.158125 0.816863 0.129230
H28   H     H_    0.109760 0.915039 0.875815 0.147206
H29   H     H_    0.145125 0.057877 0.930287 0.106805
H30   H     H_    0.819325 0.207719 0.855017 0.160985
H31   H     H_    0.957874 0.244192 0.793142 0.175472
H32   H     H_    0.841900 0.073477 0.816413 0.129303
H33   H     H_    0.084851 0.194922 0.875160 0.147572
H34   H     H_    0.987788 0.693141 0.933970 0.141253
H35   H     H_    0.942496 0.087333 0.929711 0.106685
H36   H     H_    0.792622 0.611665 0.855388 0.161013
H37   H     H_    0.755755 0.713140 0.793400 0.175137
H38   H     H_    0.926486 0.768394 0.816781 0.129605
H39   H     H_    0.804105 0.889590 0.875300 0.147823
H40   H     H_    0.912141 0.855599 0.929983 0.106603
H41   H     H_    0.268917 0.497760 0.048857 0.143113
H42   H     H_    0.160584 0.517410 0.114076 0.163295
H43   H     H_    0.278631 0.464299 0.142533 0.165437
H44   H     H_    0.041699 0.270042 0.142462 0.176999
H45   H     H_    0.705289 0.012560 0.933674 0.141421
H46   H     H_    0.145528 0.239883 0.083845 0.121436
H47   H     H_    0.228819 0.730797 0.049108 0.143216
H48   H     H_    0.356806 0.839235 0.114200 0.163139
H49   H     H_    0.185871 0.721230 0.142848 0.165193
H50   H     H_    0.228387 0.958213 0.142864 0.176795
H51   H     H_    0.094482 0.854333 0.084330 0.121704
H52   H     H_    0.502131 0.771629 0.049273 0.143043
H53   H     H_    0.482277 0.643227 0.114136 0.163199
H54   H     H_    0.535348 0.814198 0.143055 0.165366
H55   H     H_    0.729641 0.771510 0.142750 0.177059
H56   H     H_    0.307148 0.294829 0.933784 0.141470
H57   H     H_    0.759705 0.905584 0.084344 0.121807
H58   H     H_    0.228849 0.844164 0.949384 0.153234
H59   H     H_    0.155649 0.384474 0.949117 0.153379
H60   H     H_    0.615081 0.771186 0.949465 0.153121
O1    O     O_R   0.911480 0.572650 0.170990 -0.537593
O2    O     O_R   0.528970 0.640340 0.824320 -0.509191
O3    O     O_R   0.111370 0.471030 0.824320 -0.508536
O4    O     O_R   0.359660 0.888630 0.824320 -0.508098
O5    O     O_R   0.909980 0.572450 0.331530 -0.516306
O6    O     O_R   0.427550 0.337530 0.331530 -0.516491
O7    O     O_R   0.662470 0.090020 0.331530 -0.521758
O8    O     O_R   0.572450 0.909980 0.668470 -0.522266
O9    O     O_R   0.337530 0.427550 0.668470 -0.528272
O10   O     O_R   0.090020 0.662470 0.668470 -0.528026
O11   O     O_R   0.638950 0.528780 0.324500 -0.503309
O12   O     O_R   0.427350 0.338830 0.170990 -0.537085
O13   O     O_R   0.471220 0.110170 0.324500 -0.504900
O14   O     O_R   0.889830 0.361050 0.324500 -0.504082
O15   O     O_R   0.528780 0.638950 0.675500 -0.511237
O16   O     O_R   0.110170 0.471220 0.675500 -0.515504
O17   O     O_R   0.361050 0.889830 0.675500 -0.515945
O18   O     O_3   0.666667 0.333333 0.250560 -0.291774
O19   O     O_3   0.333333 0.666667 0.749440 -0.240747
O20   O     O_R   0.661170 0.088520 0.170990 -0.537905
O21   O     O_R   0.572650 0.911480 0.829010 -0.546371
O22   O     O_R   0.338830 0.427350 0.829010 -0.546504
O23   O     O_R   0.088520 0.661170 0.829010 -0.546349
O24   O     O_R   0.640340 0.528970 0.175680 -0.517349
O25   O     O_R   0.471030 0.111370 0.175680 -0.518392
O26   O     O_R   0.888630 0.359660 0.175680 -0.517331

loop_
_geom_bond_atom_site_label_1
_geom_bond_atom_site_label_2
_ccdc_geom_bond_type
C44   C49   A    
C40   C47   A    
C66   C68   S    
Cr4   O21   S    
C37   C69   S    
Cr4   O15   S    
C70   H52   S    
C61   H31   S    
C7    O5    A    
C3    C49   S    
C11   C18   A    
C72   H20   S    
C28   H34   S    
C71   H19   S    
C62   C63   S    
C68   H48   S    
C14   C34   S    
C59   H26   S    
C31   C58   S    
C23   O1    A    
C19   C21   A    
C56   O21   A    
Cr6   O4    S    
Cr2   O25   S    
C72   H14   S    
C36   C66   S    
Cr6   O17   S    
C39   C54   A    
C19   C32   S    
C65   H42   S    
C35   H2    S    
C9    C39   S    
C5    O11   A    
C58   H29   S    
C52   H6    S    
C61   H30   S    
C45   O23   A    
C62   H39   S    
C63   H36   S    
Cr3   O18   S    
C43   C53   A    
C38   C55   A    
C20   C24   A    
C33   C62   S    
C30   H56   S    
C4    H24   S    
C16   C22   A    
C13   C28   A    
C35   C64   S    
C65   H43   S    
Cr5   O9    S    
C41   C52   A    
Cr6   O10   S    
C42   C51   A    
C66   H51   S    
C63   H37   S    
C15   C23   S    
C5    C43   S    
Cr4   O8    S    
C69   H57   S    
C18   C22   A    
C27   C30   A    
C45   O3    A    
C60   H35   S    
C14   C30   A    
C61   H32   S    
C3    H22   S    
C6    O13   A    
C52   C54   A    
C47   C50   A    
Cr5   O3    S    
Cr4   O2    S    
C25   C29   A    
C46   C48   A    
Cr4   O19   S    
C17   C24   A    
Cr5   O22   S    
C13   C19   A    
Cr2   O12   S    
C17   C27   A    
C32   C35   S    
C12   C16   S    
C54   H8    S    
C6    O7    A    
C53   C57   A    
C15   C26   A    
Cr1   O1    S    
C36   H3    S    
C2    C48   S    
C58   C59   S    
C64   H46   S    
C27   H23   S    
Cr3   O7    S    
C4    C50   S    
C60   C61   S    
C58   H28   S    
C38   C44   A    
Cr1   O24   S    
C14   C20   A    
Cr5   O16   S    
C4    H17   S    
Cr6   O19   S    
C33   H60   S    
C70   H54   S    
C24   C37   S    
C65   H41   S    
Cr2   O18   S    
C1    O12   A    
C59   H27   S    
C8    O15   A    
C68   H49   S    
C46   C71   S    
C10   O8    A    
C39   C46   A    
C20   C33   S    
Cr3   O20   S    
C2    H21   S    
C67   H18   S    
C37   H4    S    
C8    O9    A    
C63   H38   S    
C2    C71   S    
C51   H5    S    
C4    C72   S    
C23   O26   A    
Cr1   O5    S    
C16   C25   A    
Cr2   O6    S    
C69   H55   S    
C40   C57   A    
Cr1   O11   S    
C25   H1    S    
C26   C28   A    
C2    H15   S    
C3    C67   S    
C31   H58   S    
C5    O6    A    
C10   O17   A    
C9    O16   A    
C43   C50   A    
C21   C35   S    
C26   H12   S    
Cr3   O14   S    
C22   C36   S    
C9    O10   A    
C1    C17   S    
C57   H10   S    
C10   C38   S    
C59   H25   S    
C64   C65   S    
C56   O4    A    
C32   H59   S    
C60   H33   S    
C12   O25   A    
C13   C45   S    
C64   H44   S    
C29   H45   S    
Cr1   O18   S    
C34   O2    A    
C70   H53   S    
C41   C48   A    
C66   H50   S    
C3    H16   S    
C51   C55   A    
C7    C41   S    
C55   H9    S    
C69   C70   S    
Cr2   O13   S    
C33   C37   S    
C47   C72   S    
C62   H40   S    
C1    O24   A    
C42   C49   A    
C7    O14   A    
C15   C21   A    
C71   H13   S    
C11   C29   A    
Cr6   O23   S    
C6    C42   S    
C67   H11   S    
C32   C60   S    
C31   C36   S    
Cr3   O26   S    
C44   C67   S    
C53   H7    S    
C18   C31   S    
C8    C40   S    
C12   O20   A    
C68   H47   S    
C11   C56   S    
Cr5   O19   S    
C34   O22   A    
