data_mof_unit_57617.cif
_audit_creation_date              2012-12-10T18:52:59-0500
_audit_creation_method            fapswitch 2.2
_symmetry_space_group_name_H-M    P1
_symmetry_Int_Tables_number       1
_space_group_crystal_system       triclinic
_cell_length_a                    9.948062
_cell_length_b                    10.710633
_cell_length_c                    16.792574
_cell_angle_alpha                 92.188391
_cell_angle_beta                  83.408029
_cell_angle_gamma                 90.174934
_cell_volume                      1776.12256161

loop_
_atom_site_label
_atom_site_type_symbol
_atom_type_description
_atom_site_fract_x
_atom_site_fract_y
_atom_site_fract_z
_atom_type_partial_charge
C1    C     C_R   0.500170 0.739790 0.500045 0.854432
C2    C     C_R   0.499829 0.260210 0.499957 0.854439
C3    C     C_R   0.618775 0.937186 0.511915 -0.167804
C4    C     C_R   0.381223 0.062814 0.488097 -0.167799
C5    C     C_R   0.618464 0.065057 0.512141 -0.127801
C6    C     C_R   0.381534 0.934944 0.487870 -0.127826
C7    C     C_R   0.499739 0.127590 0.500127 -0.047982
C8    C     C_R   0.500260 0.872410 0.499881 -0.047972
C9    C     C_R   0.937135 0.418831 0.450164 0.003228
C10   C     C_R   0.062865 0.581173 0.549833 0.003252
C11   C     C_R   0.081530 0.422529 0.447759 0.023248
C12   C     C_R   0.918469 0.577467 0.552243 0.023237
C13   C     C_R   0.478958 0.499847 0.652644 0.832081
C14   C     C_R   0.521042 0.500155 0.347355 0.832099
C15   C     C_R   0.460073 0.509165 0.739077 -0.121015
C16   C     C_R   0.539921 0.490828 0.260922 -0.121073
C17   C     C_R   0.522917 0.608979 0.776227 -0.132909
C18   C     C_R   0.477056 0.391033 0.223778 -0.132889
C19   C     C_R   0.508907 0.622645 0.858926 -0.088709
C20   C     C_R   0.491060 0.377356 0.141080 -0.088724
C21   C     C_R   0.432373 0.536090 0.904528 0.094772
C22   C     C_R   0.567612 0.463879 0.095471 0.094734
C23   C     C_R   0.363195 0.439943 0.868240 -0.072376
C24   C     C_R   0.636807 0.560010 0.131751 -0.072350
C25   C     C_R   0.376525 0.424602 0.784713 -0.046906
C26   C     C_R   0.623481 0.575366 0.215278 -0.046891
C27   C     C_2   0.446972 0.530957 0.988769 0.053151
C28   C     C_2   0.553013 0.469005 0.011229 0.053145
H1    H     H_    0.584083 0.675528 0.741081 0.162941
H2    H     H_    0.415875 0.324506 0.258930 0.162988
H3    H     H_    0.306561 0.372769 0.905420 0.191942
H4    H     H_    0.693453 0.627162 0.094565 0.191951
H5    H     H_    0.436466 0.303784 0.112506 0.167276
H6    H     H_    0.563487 0.696231 0.887504 0.167269
H7    H     H_    0.711182 0.889637 0.521525 0.166999
H8    H     H_    0.288812 0.110363 0.478492 0.166991
H9    H     H_    0.710623 0.114465 0.522088 0.192317
H10   H     H_    0.289374 0.885536 0.477925 0.192291
N1    N     N_R   0.142790 0.500030 0.500020 -0.186316
N2    N     N_R   0.857210 0.499970 0.499980 -0.186318
O1    O     O_R   0.385380 0.683250 0.500010 -0.633952
O2    O     O_R   0.614620 0.316750 0.499990 -0.633904
O3    O     O_R   0.614710 0.683220 0.500000 -0.655534
O4    O     O_R   0.385290 0.316780 0.500000 -0.655543
O5    O     O_R   0.371780 0.500040 0.615800 -0.652303
O6    O     O_R   0.628220 0.499960 0.384200 -0.652320
O7    O     O_R   0.601110 0.500010 0.615800 -0.606149
O8    O     O_R   0.398890 0.499990 0.384200 -0.606116
Zn1   Zn    Zn3+2 0.346870 0.500020 0.500000 0.937114
Zn2   Zn    Zn3+2 0.653130 0.499980 0.500000 0.937113
C29   C     C_2   0.689213 0.683695 0.253131 0.445853
H11   H     H_    0.666385 0.706800 0.316651 0.075531
O9    O     O_2   0.769582 0.749583 0.213435 -0.523145
C30   C     C_2   0.310810 0.316264 0.746851 0.445871
H12   H     H_    0.333680 0.293149 0.683331 0.075492
O10   O     O_2   0.230407 0.250384 0.786537 -0.523122
I1    I     I_    0.703670 0.376241 0.929810 -0.238583
I2    I     I_    0.296331 0.623729 0.070191 -0.238590
C31   C     C_2   0.872394 0.320095 0.403491 0.515109
H13   H     H_    0.784742 0.339336 0.374079 0.113357
O11   O     O_2   0.916137 0.213321 0.398674 -0.574567
C32   C     C_2   0.127604 0.679917 0.596502 0.515022
H14   H     H_    0.215308 0.660700 0.625874 0.113399
O12   O     O_2   0.083806 0.786676 0.601355 -0.574530
C33   C     C_2   0.165692 0.350605 0.383454 0.524278
H15   H     H_    0.254394 0.300766 0.395215 0.078868
O13   O     O_2   0.136656 0.348001 0.314691 -0.556516
C34   C     C_2   0.834307 0.649365 0.616561 0.524333
H16   H     H_    0.745575 0.699178 0.604813 0.078862
O14   O     O_2   0.863369 0.651967 0.685319 -0.556454

loop_
_geom_bond_atom_site_label_1
_geom_bond_atom_site_label_2
_ccdc_geom_bond_type
O4    Zn1   S    
C12   N2    A    
C6    C8    A    
C6    H10   S    
O3    Zn2   S    
C15   C17   A    
C32   H14   S    
C18   H2    S    
O5    Zn1   S    
C1    C8    S    
C17   H1    S    
O6    Zn2   S    
C18   C20   A    
C2    C7    S    
C13   C15   S    
C3    H7    S    
C9    C11   A    
C24   H4    S    
C19   H6    S    
C21   C27   S    
C31   H13   S    
C14   O6    A    
C16   C18   A    
C22   C28   S    
C28   I1    S    
C13   O5    A    
C12   C34   S    
C10   C32   S    
C10   C12   A    
O2    Zn2   S    
C4    C7    A    
N2    Zn2   S    
C20   H5    S    
C22   C24   A    
O1    Zn1   S    
O8    Zn1   S    
C17   C19   A    
C2    O2    A    
C3    C8    A    
O7    Zn2   S    
C14   C16   S    
C21   C23   A    
C16   C26   A    
C11   N1    A    
C30   O10   D    
N1    Zn1   S    
C31   O11   D    
C4    C6    A    
C15   C25   A    
C5    H9    S    
C20   C22   A    
C29   H11   S    
C3    C5    A    
C23   C25   A    
C25   C30   S    
C13   O7    A    
C33   H15   S    
C1    O1    A    
C27   C28   D    
C5    C7    A    
C34   O14   D    
C14   O8    A    
C30   H12   S    
C10   N1    A    
C32   O12   D    
C29   O9    D    
C26   C29   S    
C9    C31   S    
C19   C21   A    
C1    O3    A    
C9    N2    A    
C2    O4    A    
C11   C33   S    
C4    H8    S    
C24   C26   A    
C34   H16   S    
C33   O13   D    
C27   I2    S    
C23   H3    S    
