data_mof_unit_36365.cif
_audit_creation_date              2012-12-10T16:55:45-0500
_audit_creation_method            fapswitch 2.2
_symmetry_space_group_name_H-M    P1
_symmetry_Int_Tables_number       1
_space_group_crystal_system       triclinic
_cell_length_a                    7.854587
_cell_length_b                    8.553262
_cell_length_c                    10.475064
_cell_angle_alpha                 92.261234
_cell_angle_beta                  84.549718
_cell_angle_gamma                 93.605862
_cell_volume                      698.773658054

loop_
_atom_site_label
_atom_site_type_symbol
_atom_type_description
_atom_site_fract_x
_atom_site_fract_y
_atom_site_fract_z
_atom_type_partial_charge
C1    C     C_R   0.545404 0.794381 0.496860 0.955715
C2    C     C_R   0.454596 0.205618 0.503140 0.955716
C3    C     C_R   0.500004 0.500776 0.742223 0.936023
C4    C     C_R   0.499996 0.499225 0.257778 0.936024
C5    C     C_3   0.339660 0.522952 0.971327 -0.209080
C6    C     C_3   0.660340 0.477049 0.028673 -0.209080
C7    C     C_3   0.451194 0.637100 0.049801 0.444630
C8    C     C_3   0.548806 0.362902 0.950199 0.444629
C9    C     C_3   0.501008 0.499211 0.122783 -0.149991
C10   C     C_3   0.498992 0.500790 0.877217 -0.149992
C11   C     C_3   0.390419 0.383258 0.046286 -0.223003
C12   C     C_3   0.609581 0.616744 0.953714 -0.223005
C13   C     C_2   0.569230 0.958006 0.495090 -0.282044
C14   C     C_2   0.430769 0.041994 0.504910 -0.282044
H1    H     H_    0.209474 0.542963 0.944689 0.211205
H2    H     H_    0.790526 0.457038 0.055311 0.211205
H3    H     H_    0.302837 0.287767 0.088111 0.228358
H4    H     H_    0.697164 0.712234 0.911889 0.228358
H5    H     H_    0.700151 0.008773 0.485754 0.214070
H6    H     H_    0.299849 0.991226 0.514246 0.214070
N1    N     N_2   0.950320 0.457950 0.465730 0.139232
N2    N     N_2   0.049680 0.542050 0.534270 0.139232
O1    O     O_R   0.389250 0.738570 0.508410 -0.598873
O2    O     O_R   0.610750 0.261430 0.491590 -0.598873
O3    O     O_R   0.678390 0.711620 0.486450 -0.585667
O4    O     O_R   0.321610 0.288380 0.513550 -0.585666
O5    O     O_R   0.355460 0.513510 0.697030 -0.612684
O6    O     O_R   0.644540 0.486490 0.302970 -0.612685
O7    O     O_R   0.644600 0.486560 0.675070 -0.572260
O8    O     O_R   0.355400 0.513440 0.324930 -0.572261
Zn1   Zn    Zn3+2 0.306940 0.517990 0.514670 1.119565
Zn2   Zn    Zn3+2 0.693060 0.482010 0.485330 1.119565
Cl1   Cl    Cl    0.387383 0.819485 0.120840 -0.539170
Cl2   Cl    Cl    0.612617 0.180516 0.879160 -0.539169
Cl3   Cl    Cl    0.039473 0.319930 0.359612 -0.476022
Cl4   Cl    Cl    0.960527 0.680070 0.640388 -0.476023

loop_
_geom_bond_atom_site_label_1
_geom_bond_atom_site_label_2
_ccdc_geom_bond_type
O2    Zn2   S    
C1    O1    A    
N1    Cl3   S    
N2    Cl4   S    
C6    C9    S    
C3    O5    A    
C5    C10   S    
C2    O4    A    
C3    C10   S    
C8    Cl2   S    
C13   C14   D    
C1    O3    A    
C7    Cl1   S    
C7    C12   S    
C10   C12   S    
O3    Zn2   S    
C8    C11   S    
C6    C12   S    
C8    C10   S    
C4    O6    A    
C5    C11   S    
O7    Zn2   S    
C7    C9    S    
C9    C11   S    
O5    Zn1   S    
C2    O2    A    
O8    Zn1   S    
C2    C14   S    
N1    Zn2   S    
C5    H1    S    
C1    C13   S    
N2    Zn1   S    
C13   H5    S    
C6    H2    S    
C14   H6    S    
O6    Zn2   S    
C5    C7    S    
C12   H4    S    
C3    O7    A    
C11   H3    S    
C6    C8    S    
C4    C9    S    
N1    N2    D    
O4    Zn1   S    
C4    O8    A    
O1    Zn1   S    
