data_mof_unit_47293.cif
_audit_creation_date              2013-03-05T16:12:46-0500
_audit_creation_method            fapswitch 2.2
_symmetry_space_group_name_H-M    P1
_symmetry_Int_Tables_number       1
_space_group_crystal_system       triclinic
_cell_length_a                    10.611858
_cell_length_b                    9.791138
_cell_length_c                    27.74583
_cell_angle_alpha                 89.961724
_cell_angle_beta                  90.106452
_cell_angle_gamma                 90.089241
_cell_volume                      2882.84272738

loop_
_atom_site_label
_atom_site_type_symbol
_atom_site_description
_atom_site_fract_x
_atom_site_fract_y
_atom_site_fract_z
_atom_type_partial_charge
O1    O     O_R   0.316770 0.614620 0.500000 -0.615733
O2    O     O_R   0.683230 0.385380 0.500000 -0.618454
O3    O     O_R   0.683230 0.614620 0.500000 -0.642246
O4    O     O_R   0.316770 0.385380 0.500000 -0.593553
C1    C     C_R   0.263899 0.499280 0.510351 0.890753
C2    C     C_R   0.741877 0.499482 0.503285 0.883301
O5    O     O_R   0.500030 0.614650 0.428760 -0.628179
O6    O     O_R   0.499970 0.385350 0.571240 -0.618942
O7    O     O_R   0.499970 0.614650 0.571240 -0.639377
O8    O     O_R   0.500030 0.385350 0.428760 -0.598218
C3    C     C_R   0.496511 0.500130 0.406068 0.955114
C4    C     C_R   0.503228 0.500086 0.593935 0.901502
Zn1   Zn    Zn3+2 0.500000 0.653120 0.500000 0.966210
Zn2   Zn    Zn3+2 0.500000 0.346880 0.500000 0.998246
C5    C     C_R   0.384683 0.544092 0.178386 0.513238
C6    C     C_R   0.610678 0.546572 0.821556 0.516143
O9    O     O_2   0.279939 0.562018 0.205021 -0.559814
O10   O     O_2   0.715295 0.566109 0.794948 -0.551060
N1    N     N_R   0.496504 0.521140 0.201581 -0.351601
N2    N     N_R   0.499138 0.521961 0.798336 -0.352184
C7    C     C_R   0.607108 0.507879 0.177199 0.500113
C8    C     C_R   0.388564 0.507441 0.822684 0.500943
C9    C     C_R   0.562894 0.610119 0.279887 -0.087072
C10   C     C_R   0.432449 0.608936 0.719761 -0.077826
C11   C     C_R   0.561173 0.604241 0.329777 -0.257826
C12   C     C_R   0.435290 0.602909 0.669886 -0.252074
C13   C     C_R   0.422611 0.404878 0.326424 -0.035452
C14   C     C_R   0.576096 0.405949 0.673842 -0.045427
C15   C     C_R   0.429801 0.408907 0.276197 -0.186410
C16   C     C_R   0.567790 0.410005 0.724034 -0.184977
C17   C     C_R   0.497802 0.512266 0.253009 0.315792
C18   C     C_R   0.498244 0.512387 0.746926 0.313492
C19   C     C_R   0.494622 0.536714 0.101791 -0.092817
C20   C     C_R   0.500674 0.537572 0.898118 -0.092099
C21   C     C_R   0.379694 0.549835 0.127453 -0.043920
C22   C     C_R   0.615528 0.552266 0.872483 -0.044970
C23   C     C_R   0.265801 0.569057 0.101208 0.194101
C24   C     C_R   0.729235 0.572810 0.898747 0.192249
C25   C     C_R   0.608757 0.517774 0.127106 -0.005570
C26   C     C_R   0.386724 0.517357 0.872776 -0.005554
C27   C     C_R   0.492342 0.501940 0.353507 -0.068206
C28   C     C_R   0.505977 0.501840 0.646476 -0.041664
H1    H     H_    0.378026 0.335211 0.254724 0.141523
H2    H     H_    0.620030 0.337310 0.745728 0.143117
C29   C     C_R   0.382529 0.536087 0.974175 0.070834
C30   C     C_R   0.612708 0.537217 0.025727 0.070985
C31   C     C_R   0.613668 0.550168 0.974880 -0.001520
C32   C     C_R   0.381474 0.548506 0.025040 -0.001708
C33   C     C_R   0.499033 0.541797 0.949156 0.074029
C34   C     C_R   0.496181 0.541312 0.050755 0.073714
C35   C     C_R   0.270852 0.514432 0.947521 -0.225497
C36   C     C_R   0.724550 0.516569 0.052349 -0.225414
C37   C     C_R   0.273230 0.504848 0.897797 -0.135864
C38   C     C_R   0.722295 0.506644 0.102065 -0.137732
O11   O     O_2   0.280727 0.482270 0.798309 -0.556717
O12   O     O_2   0.715196 0.484074 0.201550 -0.559535
C39   C     C_R   0.268931 0.568233 0.050877 -0.211183
C40   C     C_R   0.726062 0.571592 0.949072 -0.210601
H3    H     H_    0.381791 0.677413 0.649483 0.156321
H4    H     H_    0.614248 0.679724 0.349941 0.164707
H5    H     H_    0.379458 0.688990 0.737396 0.154055
H6    H     H_    0.614659 0.690934 0.262015 0.151293
H7    H     H_    0.185064 0.487188 0.879016 0.189037
H8    H     H_    0.810604 0.489883 0.120824 0.188380
H9    H     H_    0.180301 0.498706 0.964216 0.138190
H10   H     H_    0.815176 0.501949 0.035627 0.137911
H11   H     H_    0.181509 0.587637 0.032263 0.140765
H12   H     H_    0.813297 0.592006 0.967712 0.140753
C41   C     C_R   0.069713 0.369129 0.526976 -0.061014
C42   C     C_R   0.937870 0.617555 0.530992 -0.036629
C43   C     C_R   0.941037 0.368885 0.517323 -0.017680
C44   C     C_R   0.068939 0.617055 0.536311 -0.056407
C45   C     C_R   0.876050 0.496341 0.515231 -0.197137
C46   C     C_R   0.133600 0.495251 0.526408 -0.272795
C47   C     C_R   0.561713 0.072090 0.535233 -0.045997
C48   C     C_R   0.437369 0.927809 0.464980 -0.037350
C49   C     C_R   0.437352 0.071988 0.464999 -0.031011
C50   C     C_R   0.561623 0.927947 0.535265 -0.077073
H13   H     H_    0.610836 0.126847 0.563364 0.190410
H14   H     H_    0.387259 0.872847 0.437076 0.145078
H15   H     H_    0.387172 0.126657 0.437140 0.173156
H16   H     H_    0.610446 0.873149 0.563487 0.173450
N3    N     N_R   0.500000 0.857200 0.500000 -0.101064
N4    N     N_R   0.500000 0.142800 0.500000 -0.107512
C51   C     C_2   0.334771 0.304336 0.348111 0.392465
H17   H     H_    0.313962 0.209958 0.329166 0.059925
O13   O     O_2   0.278907 0.328856 0.385534 -0.549878
C52   C     C_2   0.665543 0.306898 0.652501 0.422924
H18   H     H_    0.687592 0.213225 0.671674 0.072398
O14   O     O_2   0.721314 0.332040 0.615095 -0.538499
C53   C     C_3   0.138632 0.589183 0.124780 -0.766276
H19   H     H_    0.061603 0.602607 0.098023 0.194014
H20   H     H_    0.113833 0.498158 0.146694 0.268325
H21   H     H_    0.139971 0.682582 0.147435 0.269481
C54   C     C_3   0.856271 0.594673 0.875203 -0.761225
H22   H     H_    0.933157 0.608918 0.901977 0.193958
H23   H     H_    0.881818 0.504084 0.853277 0.268544
H24   H     H_    0.854223 0.688174 0.852567 0.271213
C55   C     C_2   0.138605 0.239432 0.537362 0.575441
H25   H     H_    0.207627 0.237065 0.566285 0.042664
O15   O     O_2   0.124984 0.138322 0.512148 -0.514949
C56   C     C_2   0.867100 0.742024 0.544588 0.567059
H26   H     H_    0.831779 0.810445 0.516916 0.077967
O16   O     O_2   0.849713 0.768978 0.587000 -0.540698
C57   C     C_2   0.878115 0.234887 0.509262 0.579743
H27   H     H_    0.837901 0.210903 0.474271 0.040350
O17   O     O_2   0.870238 0.151491 0.541870 -0.523849
C58   C     C_2   0.139369 0.739538 0.553917 0.503166
H28   H     H_    0.225545 0.726097 0.574516 0.045229
O18   O     O_2   0.104486 0.855397 0.544748 -0.509733

loop_
_geom_bond_atom_site_label_1
_geom_bond_atom_site_label_2
_geom_bond_distance
_ccdc_geom_bond_type
C10   H5    1.082997 S    
C13   C15   1.396344 A    
C54   H22   1.111098 S    
Zn2   N4    1.998175 S    
O3    C2    1.291650 A    
N1    C17   1.429512 S    
C54   H24   1.110086 S    
C32   C39   1.407715 A    
C31   C33   1.411567 A    
C51   H17   1.085601 S    
C5    N1    1.367691 A    
C57   O17   1.221224 D    
C19   C25   1.411410 A    
O1    C1    1.292598 A    
C21   C23   1.422567 A    
C10   C12   1.385517 A    
C47   N4    1.364550 A    
C25   C38   1.396393 A    
C29   C35   1.411561 A    
C30   C36   1.411503 A    
C58   H28   1.085635 S    
C41   C43   1.391020 A    
C35   H9    1.078298 S    
C14   C28   1.418035 A    
C1    C46   1.453971 S    
C13   C51   1.482735 S    
C13   C27   1.418481 A    
O7    Zn1   2.011932 S    
C24   C40   1.396828 A    
C50   N3    1.364520 A    
C9    H6    1.083009 S    
C44   C58   1.494009 S    
C24   C54   1.513956 S    
C14   C52   1.482519 S    
C4    C28   1.458154 S    
C11   H4    1.083760 S    
C49   H15   1.079973 S    
C12   H3    1.083723 S    
O3    Zn1   1.981190 S    
C6    N2    1.367722 A    
C32   C34   1.411628 A    
C15   H1    1.084262 S    
C16   H2    1.084280 S    
O2    C2    1.281209 A    
C39   H11   1.078007 S    
C48   N3    1.364525 A    
C5    C21   1.415157 A    
C47   C50   1.411320 A    
C36   C38   1.383020 A    
C51   O13   1.220763 D    
C23   C53   1.513939 S    
C48   C49   1.411676 A    
C44   C46   1.404391 A    
O8    Zn2   2.011938 S    
C11   C27   1.403187 A    
C53   H19   1.111096 S    
C43   C45   1.427855 A    
C49   N4    1.364863 A    
C19   C34   1.416848 A    
C35   C37   1.383164 A    
C9    C17   1.395793 A    
O5    C3    1.286776 A    
C10   C18   1.395834 A    
C53   H20   1.110129 S    
C50   H16   1.080877 S    
C55   H25   1.085739 S    
C7    C25   1.393293 A    
C29   C33   1.420017 A    
O6    C4    1.288589 A    
C8    C26   1.393471 A    
C42   C45   1.423852 A    
C54   H23   1.110136 S    
C41   C46   1.407906 A    
C56   O16   1.220573 D    
C41   C55   1.493893 S    
C40   H12   1.078037 S    
C55   O15   1.220860 D    
C52   O14   1.220446 D    
C43   C57   1.488053 S    
C20   C26   1.411414 A    
O1    Zn1   1.980037 S    
C36   H10   1.078339 S    
C12   C28   1.403147 A    
C2    C45   1.461654 S    
N2    C18   1.429565 S    
C29   C32   1.416664 A    
C5    O9    1.347675 S    
C30   C34   1.419977 A    
C30   C31   1.416460 A    
C20   C33   1.416839 A    
O6    Zn2   2.012427 S    
N1    C7    1.362234 A    
C48   H14   1.081621 S    
N2    C8    1.362259 A    
O4    C1    1.282166 A    
C7    O12   1.350640 S    
C42   C56   1.481905 S    
C8    O11   1.350612 S    
C57   H27   1.085474 S    
Zn1   N3    1.998175 S    
C22   C24   1.422537 A    
C15   C17   1.399072 A    
C6    C22   1.414978 A    
C53   H21   1.110086 S    
C16   C18   1.399232 A    
C37   H7    1.083786 S    
C38   H8    1.083784 S    
C14   C16   1.396161 A    
C19   C21   1.419410 A    
C58   O18   1.220304 D    
C3    C27   1.459042 S    
C20   C22   1.419396 A    
C9    C11   1.385539 A    
O4    Zn2   1.981190 S    
C56   H26   1.085268 S    
O2    Zn2   1.980037 S    
O7    C4    1.286480 A    
O8    C3    1.288356 A    
O5    Zn1   2.012432 S    
C52   H18   1.085577 S    
C6    O10   1.347702 S    
C26   C37   1.396430 A    
C42   C44   1.398436 A    
C47   H13   1.080076 S    
C23   C39   1.396952 A    
C31   C40   1.407658 A    
