data_mof_unit_43759.cif
_audit_creation_date              2012-12-10T18:42:35-0500
_audit_creation_method            fapswitch 2.2
_symmetry_space_group_name_H-M    P1
_symmetry_Int_Tables_number       1
_space_group_crystal_system       triclinic
_cell_length_a                    8.585281
_cell_length_b                    10.627897
_cell_length_c                    9.85968
_cell_angle_alpha                 90.03479
_cell_angle_beta                  98.723855
_cell_angle_gamma                 90.101434
_cell_volume                      889.221798319

loop_
_atom_site_label
_atom_site_type_symbol
_atom_type_description
_atom_site_fract_x
_atom_site_fract_y
_atom_site_fract_z
_atom_type_partial_charge
C1    C     C_R   0.503609 0.260245 0.500351 0.909568
C2    C     C_R   0.496396 0.739755 0.499649 0.909575
C3    C     C_R   0.201107 0.499825 0.464041 0.976768
C4    C     C_R   0.798893 0.500173 0.535959 0.976761
C5    C     C_2   0.035898 0.499853 0.444750 -0.340749
C6    C     C_2   0.964102 0.500141 0.555249 -0.340749
C7    C     C_R   0.618679 0.062326 0.441477 0.166665
C8    C     C_R   0.381334 0.937671 0.558526 0.166658
C9    C     C_R   0.612798 0.933120 0.440936 -0.222139
C10   C     C_R   0.387221 0.066877 0.559072 -0.222132
C11   C     C_R   0.495520 0.872064 0.499554 -0.101864
C12   C     C_R   0.504492 0.127935 0.500452 -0.101863
C13   C     C_R   0.597278 0.578769 0.084749 -0.053329
C14   C     C_R   0.402721 0.421232 0.915250 -0.053329
C15   C     C_R   0.597198 0.578760 0.940973 -0.043922
C16   C     C_R   0.402800 0.421242 0.059027 -0.043919
H1    H     H_    0.973820 0.499616 0.339993 0.184427
H2    H     H_    0.026180 0.500378 0.660006 0.184425
H3    H     H_    0.701117 0.880125 0.397430 0.173999
H4    H     H_    0.298895 0.119871 0.602577 0.173994
H5    H     H_    0.675139 0.641790 0.149405 0.133596
H6    H     H_    0.324860 0.358212 0.850595 0.133594
H7    H     H_    0.674965 0.641790 0.896894 0.139859
H8    H     H_    0.325031 0.358214 0.103106 0.139859
N1    N     N_R   0.499960 0.499970 0.857200 -0.084491
N2    N     N_R   0.500040 0.500030 0.142800 -0.084490
O1    O     O_R   0.499990 0.316750 0.614620 -0.623670
O2    O     O_R   0.500010 0.683250 0.385380 -0.623666
O3    O     O_R   0.499990 0.316780 0.385290 -0.599576
O4    O     O_R   0.500010 0.683220 0.614710 -0.599579
O5    O     O_R   0.271750 0.499990 0.587840 -0.611278
O6    O     O_R   0.728250 0.500010 0.412160 -0.611279
O7    O     O_R   0.271750 0.500010 0.358510 -0.625045
O8    O     O_R   0.728250 0.499990 0.641490 -0.625047
Zn1   Zn    Zn3+2 0.500000 0.499980 0.653120 0.976675
Zn2   Zn    Zn3+2 0.500000 0.500020 0.346880 0.976677
I1    I     I_    0.807604 0.150515 0.360912 -0.355489
I2    I     I_    0.192364 0.849481 0.639045 -0.355496

loop_
_geom_bond_atom_site_label_1
_geom_bond_atom_site_label_2
_ccdc_geom_bond_type
C4    O8    A    
C13   C15   A    
C2    O4    A    
C14   H6    S    
C15   H7    S    
C7    I1    S    
C13   H5    S    
C16   H8    S    
C3    O5    A    
C9    C11   A    
O3    Zn2   S    
C4    O6    A    
C1    C12   S    
C10   C12   A    
O4    Zn1   S    
N1    Zn1   S    
C8    C11   A    
C5    C6    D    
C2    C11   S    
O6    Zn2   S    
C1    O3    A    
C14   C16   A    
C8    I2    S    
C14   N1    A    
C16   N2    A    
C7    C12   A    
C6    H2    S    
O5    Zn1   S    
C13   N2    A    
C15   N1    A    
C5    H1    S    
C3    O7    A    
C7    C9    A    
O7    Zn2   S    
O2    Zn2   S    
C4    C6    S    
O8    Zn1   S    
N2    Zn2   S    
C1    O1    A    
C2    O2    A    
O1    Zn1   S    
C9    H3    S    
C8    C10   A    
C10   H4    S    
C3    C5    S    
