data_mof_unit_12321.cif
_audit_creation_date              2012-12-11T14:26:49-0500
_audit_creation_method            fapswitch 2.2
_symmetry_space_group_name_H-M    P1
_symmetry_Int_Tables_number       1
_space_group_crystal_system       triclinic
_cell_length_a                    15.126375
_cell_length_b                    14.914379
_cell_length_c                    14.826841
_cell_angle_alpha                 109.996527
_cell_angle_beta                  108.967888
_cell_angle_gamma                 109.335027
_cell_volume                      2578.40097102

loop_
_atom_site_label
_atom_site_type_symbol
_atom_type_description
_atom_site_fract_x
_atom_site_fract_y
_atom_site_fract_z
_atom_type_partial_charge
C1    C     C_R   0.987569 0.797000 0.077902 -0.278179
C2    C     C_R   0.219171 0.769281 0.314850 -0.056202
C3    C     C_R   0.902620 0.409280 0.205896 -0.124269
C4    C     C_R   0.795837 0.196359 0.702139 -0.127223
C5    C     C_R   0.294158 0.586001 0.987814 -0.049936
C6    C     C_R   0.923826 0.500127 0.296813 0.069255
C7    C     C_R   0.296312 0.491652 0.929353 -0.002987
C8    C     C_R   0.321371 0.809555 0.326953 0.076935
C9    C     C_R   0.935084 0.133021 0.931203 0.233492
C10   C     C_3   0.474007 0.396780 0.818330 0.249529
C11   C     C_3   0.363572 0.395460 0.802306 0.209704
C12   C     C_R   0.706776 0.131892 0.702438 0.193513
C13   C     C_3   0.547125 0.471011 0.023098 -0.486858
C14   C     C_3   0.567657 0.598146 0.936349 -0.464152
C15   C     C_3   0.569034 0.493697 0.934898 0.170032
C16   C     C_R   0.042547 0.588164 0.773529 -0.124238
C17   C     C_3   0.390320 0.486880 0.921827 0.079020
C18   C     C_3   0.442216 0.463852 0.013438 -0.306888
C19   C     C_3   0.476621 0.605286 0.954922 0.289082
C20   C     C_2   0.449308 0.873675 0.515357 0.342166
C21   C     C_2   0.419219 0.891897 0.429841 0.280691
C22   C     C_2   0.543124 0.961370 0.621883 -0.109977
C23   C     C_R   0.974661 0.494135 0.670178 0.130763
C24   C     C_2   0.635791 0.014509 0.625735 -0.180852
C25   C     C_2   0.833978 0.429896 0.483030 0.208033
C26   C     C_2   0.938463 0.488923 0.564301 -0.329571
C27   C     C_2   0.814081 0.415316 0.372304 0.188377
C28   C     C_R   0.687231 0.409103 0.935785 -0.146464
C29   C     C_2   0.869190 0.504316 0.365755 0.069904
C30   C     C_2   0.932434 0.956562 0.854138 0.583944
C31   C     C_2   0.890213 0.015892 0.892792 -0.367853
C32   C     C_2   0.937358 0.880093 0.892732 -0.041358
C33   C     C_2   0.010523 0.922437 0.999769 0.422350
C34   C     C_R   0.675072 0.501555 0.959665 0.057825
C35   C     C_R   0.951251 0.404579 0.684625 -0.137045
C36   C     C_R   0.776475 0.593534 0.043433 0.210850
C37   C     C_R   0.705279 0.196278 0.793797 -0.094960
C38   C     C_R   0.079995 0.794757 0.989301 0.442618
C39   C     C_R   0.036689 0.851158 0.034395 0.004533
C40   C     C_3   0.320468 0.432832 0.716742 -0.374206
C41   C     C_3   0.256018 0.347129 0.592541 -0.726096
C42   C     C_3   0.275513 0.271288 0.750994 -0.348330
C43   C     C_3   0.287495 0.209283 0.814950 -0.847503
C44   C     C_3   0.741106 0.370130 0.498416 -0.365819
C45   C     C_R   0.993469 0.590507 0.298505 -0.080982
C46   C     C_3   0.651244 0.397508 0.464061 -0.775623
C47   C     C_3   0.739263 0.299455 0.273943 -0.396698
C48   C     C_3   0.787821 0.224711 0.277772 -0.845738
C49   C     C_3   0.881636 0.614625 0.438418 -0.385272
C50   C     C_3   0.775206 0.614369 0.393021 -0.852623
C51   C     C_3   0.860078 0.757977 0.810900 -0.436329
C52   C     C_3   0.884820 0.717160 0.717852 -0.771189
C53   C     C_3   0.799927 0.700241 0.134448 -0.398639
C54   C     C_3   0.894967 0.745992 0.246639 -0.899514
C55   C     C_R   0.207349 0.404349 0.907015 -0.122545
C56   C     C_R   0.312230 0.770374 0.223217 -0.013838
C57   C     C_R   0.908460 0.197807 0.996066 -0.115554
C58   C     C_R   0.997663 0.196804 0.902772 -0.051826
Cl1   Cl    Cl    0.505720 0.396031 0.710863 -0.669068
Cl2   Cl    Cl    0.539045 0.711730 0.097549 -0.701608
Cl3   Cl    Cl    0.374605 0.748612 0.506659 -0.646686
Cl4   Cl    Cl    0.485996 0.019713 0.438521 -0.623311
Cl5   Cl    Cl    0.015226 0.988378 0.796260 -0.664191
Cl6   Cl    Cl    0.096120 0.065127 0.094491 -0.568693
Cl7   Cl    Cl    0.191550 0.855801 0.974465 -0.611831
H1    H     H_    0.966790 0.834832 0.136824 0.180309
H2    H     H_    0.828471 0.166909 0.651016 0.102976
H3    H     H_    0.543342 0.392064 0.012820 0.158866
H4    H     H_    0.388772 0.384194 0.000601 0.178247
H5    H     H_    0.641988 0.676786 0.993418 0.195185
H6    H     H_    0.556560 0.595008 0.857486 0.179563
H7    H     H_    0.438934 0.635740 0.903606 0.077996
H8    H     H_    0.612564 0.533971 0.108612 0.204021
H9    H     H_    0.458128 0.523714 0.094640 0.227121
H10   H     H_    0.079938 0.670911 0.789474 0.169275
H11   H     H_    0.528916 0.993926 0.689956 0.138205
H12   H     H_    0.176700 0.318199 0.860405 0.122599
H13   H     H_    0.647679 0.977725 0.556613 0.169948
H14   H     H_    0.002123 0.532010 0.550922 0.155175
H15   H     H_    0.838740 0.984890 0.924433 0.126909
H16   H     H_    0.625193 0.323715 0.883555 0.123599
H17   H     H_    0.904273 0.318607 0.621524 0.113325
H18   H     H_    0.656355 0.167965 0.828056 0.080461
H19   H     H_    0.024012 0.676010 0.353190 0.091547
H20   H     H_    0.297028 0.302352 0.567389 0.301193
H21   H     H_    0.174215 0.286900 0.569298 0.217289
H22   H     H_    0.245510 0.389483 0.544442 0.258818
H23   H     H_    0.375873 0.790391 0.202723 0.158870
H24   H     H_    0.266169 0.462818 0.733344 0.176796
H25   H     H_    0.387184 0.503680 0.728309 0.220987
H26   H     H_    0.241062 0.119505 0.754820 0.280452
H27   H     H_    0.371500 0.229937 0.863212 0.238536
H28   H     H_    0.252578 0.220897 0.870025 0.269441
H29   H     H_    0.193162 0.259873 0.719171 0.190758
H30   H     H_    0.275445 0.222089 0.675227 0.225845
H31   H     H_    0.681766 0.486277 0.516450 0.247615
H32   H     H_    0.616893 0.375468 0.376217 0.240958
H33   H     H_    0.585432 0.350226 0.475023 0.298109
H34   H     H_    0.848599 0.169446 0.019512 0.099198
H35   H     H_    0.707293 0.279968 0.449736 0.218450
H36   H     H_    0.767710 0.391877 0.585606 0.217400
H37   H     H_    0.871683 0.263792 0.293224 0.254549
H38   H     H_    0.789174 0.206827 0.344859 0.259566
H39   H     H_    0.738059 0.145745 0.198100 0.264898
H40   H     H_    0.662180 0.262968 0.273450 0.222021
H41   H     H_    0.713653 0.299279 0.194939 0.178623
H42   H     H_    0.788317 0.698260 0.438877 0.268945
H43   H     H_    0.741640 0.588056 0.304030 0.253090
H44   H     H_    0.715261 0.557401 0.402703 0.262379
H45   H     H_    0.016922 0.169502 0.838334 0.150080
H46   H     H_    0.908703 0.634336 0.524992 0.212154
H47   H     H_    0.943360 0.685276 0.444911 0.199234
H48   H     H_    0.854814 0.742959 0.657839 0.274351
H49   H     H_    0.972802 0.750586 0.750954 0.282154
H50   H     H_    0.844723 0.626175 0.674275 0.240618
H51   H     H_    0.861317 0.707194 0.850647 0.203994
H52   H     H_    0.776409 0.743574 0.775031 0.215963
H53   H     H_    0.873193 0.690203 0.278546 0.264265
H54   H     H_    0.968860 0.754914 0.242374 0.257952
H55   H     H_    0.912071 0.827870 0.305314 0.270874
H56   H     H_    0.197616 0.789515 0.378867 0.124519
H57   H     H_    0.810759 0.762954 0.109261 0.190701
H58   H     H_    0.731184 0.688234 0.149296 0.246305
H59   H     H_    0.845420 0.324360 0.168887 0.118830
H60   H     H_    0.341381 0.668353 0.005682 0.164333
H61   H     H_    0.468661 0.319689 0.813955 0.099619
N1    N     N_R   0.993980 0.704500 0.053430 -0.059868
N2    N     N_R   0.053690 0.556380 0.849240 -0.046268
N3    N     N_R   0.790390 0.443640 0.997160 -0.062549
N4    N     N_R   0.998260 0.443670 0.792970 -0.050598
N5    N     N_R   0.845830 0.556350 0.053430 -0.046085
N6    N     N_R   0.792820 0.295510 0.849240 -0.045639
N7    N     N_R   0.051260 0.704510 0.997160 -0.090295
N8    N     N_R   0.001740 0.556330 0.207030 -0.039295
N9    N     N_R   0.154170 0.443650 0.946570 -0.043537
N10   N     N_R   0.207180 0.704490 0.150760 -0.054548
N11   N     N_R   0.948740 0.295490 0.002840 -0.049727
N12   N     N_R   0.006020 0.295500 0.946570 -0.063006
N13   N     N_R   0.149890 0.704480 0.207030 -0.056796
N14   N     N_R   0.946310 0.443620 0.150760 -0.038601
N15   N     N_R   0.209610 0.556360 0.002840 -0.049272
N16   N     N_R   0.850110 0.295520 0.792970 -0.052109
Ni1   Ni    Ni4+2 0.997880 0.629240 0.129060 0.224409
Ni2   Ni    Ni4+2 0.002120 0.370760 0.870940 0.209111
Ni3   Ni    Ni4+2 0.129260 0.629260 0.000000 0.279170
Ni4   Ni    Ni4+2 0.870740 0.370740 0.000000 0.209551

loop_
_geom_bond_atom_site_label_1
_geom_bond_atom_site_label_2
_ccdc_geom_bond_type
C30   C32   S    
C6    C45   A    
C54   H55   S    
C27   C29   D    
C16   H10   S    
C14   H6    S    
C7    C55   A    
C3    C6    A    
C8    C56   A    
C31   H15   S    
C29   C49   S    
C52   H48   S    
C41   H21   S    
C45   N8    A    
C33   C39   S    
C13   C18   S    
C2    N13   A    
C28   N3    A    
C10   C15   S    
N8    N14   A    
C30   C31   D    
C55   H12   S    
N2    Ni3   S    
C2    H56   S    
C48   H39   S    
C12   C37   A    
C11   C42   S    
C9    C58   A    
C23   C26   S    
C20   Cl3   S    
C36   C53   S    
C43   H28   S    
N8    Ni1   S    
N13   Ni1   S    
C47   H40   S    
C22   H11   S    
C40   H24   S    
C4    C12   A    
N4    Ni2   S    
C15   C34   S    
C34   C36   A    
N10   Ni3   S    
N15   Ni3   S    
C49   H46   S    
C58   N12   A    
C18   H4    S    
C46   H33   S    
C28   C34   A    
C18   H9    S    
C42   H29   S    
C54   H54   S    
C50   H43   S    
C14   H5    S    
C19   H7    S    
N10   N13   A    
C25   C44   S    
C56   N10   A    
C35   H17   S    
C44   C46   S    
C1    H1    S    
N6    N16   A    
C41   H22   S    
C42   H30   S    
C1    N1    A    
N11   Ni4   S    
C53   H58   S    
C36   N5    A    
N14   Ni4   S    
C5    C7    A    
C9    C31   S    
C17   C19   S    
C51   H51   S    
C7    C17   S    
C25   C26   D    
C53   C54   S    
C48   H38   S    
C50   H44   S    
C43   H26   S    
C26   H14   S    
C51   C52   S    
N2    N4    A    
C32   C51   S    
C5    N15   A    
C47   C48   S    
C38   Cl7   S    
C47   H41   S    
C48   H37   S    
C17   C18   S    
N3    Ni4   S    
C57   N11   A    
N1    Ni1   S    
C16   N2    A    
C35   N4    A    
C21   Cl4   S    
C49   H47   S    
C10   H61   S    
C24   H13   S    
C40   C41   S    
C46   H32   S    
C20   C22   S    
C16   C23   A    
C23   C35   A    
C54   H53   S    
C50   H42   S    
C22   C24   D    
C45   H19   S    
N7    Ni3   S    
C42   C43   S    
N16   Ni2   S    
N5    Ni1   S    
C3    H59   S    
C52   H50   S    
C27   C47   S    
C11   C17   S    
C28   H16   S    
C58   H45   S    
C14   C19   S    
C2    C8    A    
N1    N7    A    
C13   H8    S    
C8    C21   S    
C4    H2    S    
C44   H36   S    
C52   H49   S    
C19   Cl2   S    
C25   C27   S    
C41   H20   S    
N11   N12   A    
C12   C24   S    
C43   H27   S    
C37   N6    A    
C53   H57   S    
N6    Ni4   S    
C32   C33   D    
C13   C15   S    
C10   Cl1   S    
N12   Ni2   S    
C4    N16   A    
C44   H35   S    
C38   C39   A    
C33   Cl6   S    
C55   N9    A    
C51   H52   S    
C9    C57   A    
C11   C40   S    
N9    Ni2   S    
C56   H23   S    
C10   C11   S    
C1    C39   A    
N9    N15   A    
C6    C29   S    
C46   H31   S    
C20   C21   D    
C49   C50   S    
C5    H60   S    
C14   C15   S    
C37   H18   S    
C3    N14   A    
C40   H25   S    
C30   Cl5   S    
C38   N7    A    
N3    N5    A    
C13   H3    S    
C57   H34   S    
