data_mof_unit_17402.cif
_audit_creation_date              2012-12-10T17:26:13-0500
_audit_creation_method            fapswitch 2.2
_symmetry_space_group_name_H-M    P1
_symmetry_Int_Tables_number       1
_space_group_crystal_system       triclinic
_cell_length_a                    10.111529
_cell_length_b                    10.825434
_cell_length_c                    27.669795
_cell_angle_alpha                 90.21923
_cell_angle_beta                  80.921439
_cell_angle_gamma                 95.506275
_cell_volume                      2976.84282115

loop_
_atom_site_label
_atom_site_type_symbol
_atom_type_description
_atom_site_fract_x
_atom_site_fract_y
_atom_site_fract_z
_atom_type_partial_charge
C1    C     C_R   0.556371 0.732744 0.498056 0.952162
C2    C     C_R   0.608781 0.550962 0.120992 -0.012301
C3    C     C_R   0.499892 0.506374 0.646794 -0.044924
C4    C     C_R   0.500001 0.492955 0.353220 -0.048339
C5    C     C_R   0.596514 0.573450 0.020865 0.069077
C6    C     C_R   0.404308 0.420231 0.979034 0.094063
C7    C     C_R   0.420405 0.398132 0.028084 -0.085770
C8    C     C_R   0.579745 0.596127 0.971982 -0.105072
C9    C     C_R   0.509201 0.481892 0.049673 0.042179
C10   C     C_R   0.491218 0.512337 0.950314 0.056702
C11   C     C_R   0.705163 0.632483 0.040911 -0.095773
C12   C     C_R   0.443642 0.267276 0.504575 0.950890
C13   C     C_R   0.296262 0.360639 0.958795 -0.123389
C14   C     C_R   0.708829 0.624999 0.090632 -0.103904
C15   C     C_R   0.292696 0.368473 0.909075 -0.111802
C16   C     C_R   0.500165 0.501016 0.594028 0.871319
C17   C     C_R   0.499820 0.498908 0.405975 0.878428
C18   C     C_R   0.642285 0.702599 0.944318 0.261021
C19   C     C_R   0.356368 0.292741 0.056149 0.347009
C20   C     C_2   0.588505 0.864782 0.501196 -0.369826
C21   C     C_2   0.411564 0.135337 0.511439 -0.366998
C22   C     C_2   0.487800 0.934076 0.515693 -0.141605
C23   C     C_R   0.486906 0.521900 0.899713 -0.056279
C24   C     C_2   0.512342 0.066231 0.514252 -0.139773
C25   C     C_2   0.926926 0.510100 0.503950 -0.127163
C26   C     C_2   0.073063 0.489878 0.496061 -0.125010
C27   C     C_R   0.581127 0.602243 0.818732 0.530799
C28   C     C_R   0.417673 0.395039 0.181505 0.535551
C29   C     C_R   0.396835 0.444207 0.828298 0.522474
C30   C     C_R   0.603644 0.551383 0.171576 0.522967
C31   C     C_R   0.606245 0.473959 0.717519 -0.089326
C32   C     C_R   0.393684 0.524568 0.282414 -0.089961
C33   C     C_R   0.608445 0.468838 0.667141 -0.217535
C34   C     C_R   0.513182 0.473121 0.100318 -0.056904
C35   C     C_R   0.391611 0.530513 0.332779 -0.216240
C36   C     C_R   0.390267 0.550519 0.677285 -0.204267
C37   C     C_R   0.609307 0.447939 0.322847 -0.204135
C38   C     C_R   0.388883 0.556527 0.727434 -0.091536
C39   C     C_R   0.610527 0.441046 0.272729 -0.089256
C40   C     C_R   0.496249 0.517507 0.747673 0.305223
C41   C     C_R   0.503362 0.480115 0.252378 0.304120
C42   C     C_1   0.746301 0.795402 0.864953 0.424018
C43   C     C_1   0.248828 0.203791 0.135770 0.440069
C44   C     C_R   0.578397 0.607761 0.869974 -0.109730
C45   C     C_R   0.420493 0.388693 0.130267 -0.114809
C46   C     C_R   0.656524 0.699462 0.892875 -0.118855
C47   C     C_R   0.341178 0.297506 0.107590 -0.138727
C48   C     C_R   0.391969 0.443682 0.878876 -0.011150
H1    H     H_    0.305865 0.581107 0.662428 0.167035
H2    H     H_    0.695020 0.405935 0.249558 0.153167
H3    H     H_    0.306316 0.565428 0.355553 0.165634
H4    H     H_    0.693972 0.434550 0.644280 0.165170
H5    H     H_    0.310787 0.555134 0.266631 0.151490
H6    H     H_    0.689297 0.443450 0.733223 0.152150
H7    H     H_    0.789663 0.678234 0.105172 0.200552
H8    H     H_    0.212281 0.314882 0.894427 0.203195
H9    H     H_    0.787756 0.685597 0.018417 0.195875
H10   H     H_    0.213791 0.307067 0.981146 0.206788
H11   H     H_    0.615981 0.106452 0.512157 0.189930
H12   H     H_    0.693561 0.417279 0.337779 0.167808
H13   H     H_    0.384191 0.893942 0.525631 0.189119
H14   H     H_    0.484384 0.826129 0.026215 0.373268
H15   H     H_    0.162745 0.023409 0.012194 0.401341
H16   H     H_    0.308209 0.094682 0.513454 0.153508
H17   H     H_    0.691829 0.905349 0.491212 0.154240
H18   H     H_    0.109845 0.422025 0.469559 0.166275
H19   H     H_    0.890136 0.577938 0.530458 0.166547
H20   H     H_    0.119240 0.614865 0.544879 0.164162
H21   H     H_    0.880771 0.385152 0.455116 0.165747
H22   H     H_    0.304139 0.590929 0.750707 0.151786
N1    N     N_R   0.492247 0.520580 0.799456 -0.353670
N2    N     N_R   0.507352 0.476267 0.200597 -0.353673
N3    N     N_2   0.842700 0.448890 0.480020 -0.195478
N4    N     N_2   0.157300 0.551110 0.519980 -0.195052
N5    N     N_1   0.818188 0.872160 0.842865 -0.121697
N6    N     N_1   0.174874 0.128811 0.158058 -0.122295
O1    O     O_R   0.431060 0.692470 0.504020 -0.612355
O2    O     O_2   0.327744 0.320742 0.212258 -0.561973
O3    O     O_2   0.692448 0.628101 0.191866 -0.545509
O4    O     O_2   0.308658 0.367205 0.807832 -0.545688
O5    O     O_2   0.811403 0.886200 0.973174 -0.274196
O6    O     O_2   0.613798 0.947679 0.942669 -0.222554
O7    O     O_3   0.579119 0.852088 0.029564 -0.471575
O8    O     O_2   0.410937 0.140787 0.978248 -0.233996
O9    O     O_2   0.380567 0.047762 0.059841 -0.258093
O10   O     O_3   0.167918 0.106211 0.027543 -0.570839
O11   O     O_R   0.568940 0.307530 0.495980 -0.612929
O12   O     O_R   0.651120 0.659650 0.491200 -0.608777
O13   O     O_R   0.348880 0.340350 0.508800 -0.609176
O14   O     O_R   0.389980 0.516390 0.577660 -0.615623
O15   O     O_R   0.610020 0.483610 0.422340 -0.612342
O16   O     O_R   0.610040 0.483570 0.564830 -0.619877
O17   O     O_R   0.389960 0.516430 0.435170 -0.616608
O18   O     O_2   0.670302 0.677646 0.788151 -0.561456
S1    S     S_3+6 0.664353 0.851271 0.972232 0.056152
S2    S     S_3+6 0.332583 0.143221 0.029102 0.033545
Zn1   Zn    Zn3+2 0.353060 0.521910 0.508560 0.951613
Zn2   Zn    Zn3+2 0.646940 0.478090 0.491440 0.951619

loop_
_geom_bond_atom_site_label_1
_geom_bond_atom_site_label_2
_ccdc_geom_bond_type
H14   O7    S    
C38   H22   S    
C16   O14   A    
C40   N1    S    
C1    O1    A    
C17   O15   A    
O16   Zn2   S    
C39   C41   A    
C33   H4    S    
C42   N5    T    
C5    C11   A    
C42   C46   S    
O5    S1    D    
C11   C14   A    
C19   C47   A    
C3    C33   A    
H20   N4    S    
C31   C40   A    
O8    S2    D    
C21   H16   S    
C26   N4    D    
C27   C44   A    
C25   H19   S    
C32   C41   A    
C31   C33   A    
O1    Zn1   S    
O6    S1    D    
C28   O2    S    
O14   Zn1   S    
O11   Zn2   S    
C2    C34   A    
C1    O12   A    
C14   H7    S    
C4    C35   A    
O15   Zn2   S    
C18   S1    S    
C28   N2    A    
C15   C48   A    
C18   C46   A    
C44   C46   A    
N4    Zn1   S    
C45   C47   A    
N3    Zn2   S    
C28   C45   A    
C29   C48   A    
C26   H18   S    
C32   C35   A    
C12   O13   A    
C13   H10   S    
C25   C26   S    
C12   C21   S    
C8    C18   A    
C23   C44   A    
O13   Zn1   S    
C5    C9    A    
C20   H17   S    
O7    S1    S    
C34   C45   A    
H21   N3    S    
O10   S2    S    
C41   N2    S    
C30   O3    S    
C20   C22   D    
C16   O16   A    
C7    C19   A    
C13   C15   A    
H15   O10   S    
C35   H3    S    
C9    C34   A    
C22   C24   S    
C17   O17   A    
C4    C17   S    
O17   Zn1   S    
C32   H5    S    
C27   N1    A    
C43   N6    T    
C7    C9    A    
C1    C20   S    
C23   C48   A    
C12   O11   A    
C6    C10   A    
C5    C8    A    
C30   N2    A    
C6    C7    A    
C10   C23   A    
C2    C30   A    
C15   H8    S    
C36   C38   A    
C37   C39   A    
C6    C13   A    
C38   C40   A    
C29   O4    S    
C3    C36   A    
C24   H11   S    
O9    S2    D    
C25   N3    D    
C31   H6    S    
C2    C14   A    
C37   H12   S    
C3    C16   S    
C19   S2    S    
C39   H2    S    
C4    C37   A    
C8    C10   A    
C21   C24   D    
C27   O18   S    
C29   N1    A    
C11   H9    S    
C43   C47   S    
O12   Zn2   S    
C36   H1    S    
C22   H13   S    
