data_mof_unit_35985.cif
_audit_creation_date              2012-12-10T20:58:02-0500
_audit_creation_method            fapswitch 2.2
_symmetry_space_group_name_H-M    P1
_symmetry_Int_Tables_number       1
_space_group_crystal_system       triclinic
_cell_length_a                    18.202875
_cell_length_b                    18.254673
_cell_length_c                    18.369174
_cell_angle_alpha                 120.076898
_cell_angle_beta                  90.116737
_cell_angle_gamma                 119.767287
_cell_volume                      4321.79948487

loop_
_atom_site_label
_atom_site_type_symbol
_atom_type_description
_atom_site_fract_x
_atom_site_fract_y
_atom_site_fract_z
_atom_type_partial_charge
C1    C     C_R   0.360517 0.220043 0.360988 0.496368
C2    C     C_3   0.763016 0.941569 0.655210 -0.229496
C3    C     C_3   0.698049 0.897619 0.699194 0.018398
C4    C     C_R   0.640810 0.781066 0.640057 0.496688
C5    C     C_3   0.799126 0.102337 0.803147 0.087495
C6    C     C_3   0.815401 0.059350 0.851782 0.168083
C7    C     C_3   0.820339 0.061398 0.714820 -0.217020
C8    C     C_3   0.641808 0.393448 0.199397 0.145217
C9    C     C_3   0.699860 0.406851 0.140872 -0.191745
C10   C     C_3   0.741644 0.598615 0.302186 0.134437
C11   C     C_3   0.772990 0.497643 0.335045 -0.330891
C12   C     C_3   0.350601 0.531026 0.242222 -0.168350
C13   C     C_3   0.694552 0.496662 0.298361 0.025889
C14   C     C_3   0.799295 0.498534 0.199569 -0.020519
C15   C     C_3   0.805777 0.600371 0.246638 -0.207753
C16   C     C_R   0.359268 0.500653 0.640757 0.508857
C17   C     C_3   0.829000 0.488763 0.271786 -0.281963
C18   C     C_R   0.454986 0.173633 0.559404 -0.107582
C19   C     C_R   0.416756 0.129557 0.469756 -0.065787
C20   C     C_R   0.329392 0.099060 0.438107 0.063210
C21   C     C_R   0.280632 0.112828 0.496924 -0.073557
C22   C     C_R   0.319412 0.157749 0.586756 -0.101447
C23   C     C_3   0.301706 0.502047 0.302222 -0.010537
C24   C     C_R   0.406469 0.187946 0.617936 -0.096232
C25   C     C_R   0.232658 0.944155 0.287242 -0.145738
C26   C     C_R   0.195539 0.892369 0.195550 0.021702
C27   C     C_R   0.215076 0.949066 0.158259 -0.036558
C28   C     C_R   0.639903 0.498608 0.358624 0.548373
C29   C     C_R   0.269131 0.055958 0.214327 -0.141436
C30   C     C_R   0.305788 0.107711 0.306098 0.021372
C31   C     C_R   0.288534 0.051035 0.342960 -0.034734
C32   C     C_R   0.228420 0.871410 0.006114 -0.046326
C33   C     C_R   0.196330 0.825251 0.914756 -0.091961
C34   C     C_3   0.200492 0.503272 0.200969 0.027904
C35   C     C_R   0.117993 0.809598 0.878736 -0.107301
C36   C     C_R   0.071805 0.840306 0.934054 -0.091664
C37   C     C_R   0.103277 0.885840 0.025334 -0.067782
C38   C     C_R   0.181526 0.901075 0.061738 0.050877
C39   C     C_R   0.921459 0.692874 0.614467 -0.121864
C40   C     C_R   0.641840 0.500788 0.640662 0.532496
C41   C     C_R   0.875593 0.621184 0.634614 -0.134729
C42   C     C_R   0.843573 0.645781 0.706933 0.042892
C43   C     C_R   0.859474 0.744499 0.760597 0.250627
C44   C     C_R   0.905704 0.815564 0.739285 -0.109273
C45   C     C_3   0.219098 0.580226 0.301424 -0.204015
C46   C     C_R   0.936366 0.789799 0.666610 -0.138147
C47   C     C_R   0.842261 0.561116 0.776096 -0.120282
C48   C     C_R   0.799487 0.496607 0.804030 0.036008
C49   C     C_R   0.704840 0.433947 0.778118 -0.032991
C50   C     C_R   0.655624 0.437874 0.725009 -0.142001
C51   C     C_R   0.698304 0.502653 0.697462 0.063438
C52   C     C_R   0.358514 0.500672 0.359453 0.507534
C53   C     C_R   0.792953 0.566962 0.724922 0.010913
C54   C     C_R   0.631339 0.263637 0.756552 -0.078674
C55   C     C_R   0.580389 0.197431 0.780986 -0.119506
C56   C     C_3   0.291400 0.531959 0.181972 0.145758
C57   C     C_R   0.551567 0.231802 0.854000 -0.076189
C58   C     C_R   0.573596 0.332459 0.902701 -0.075989
C59   C     C_R   0.624441 0.398821 0.878473 -0.087856
C60   C     C_R   0.653824 0.364808 0.805480 0.052902
C61   C     C_R   0.379081 0.794274 0.710426 -0.155900
C62   C     C_R   0.364618 0.730898 0.737970 -0.081782
C63   C     C_R   0.285806 0.630447 0.691726 0.020308
C64   C     C_3   0.211543 0.393972 0.241864 -0.255122
C65   C     C_R   0.220528 0.594857 0.619116 -0.091252
C66   C     C_R   0.233691 0.659792 0.592391 0.276669
C67   C     C_3   0.639075 0.939703 0.716628 -0.252391
C68   C     C_R   0.314533 0.758482 0.637604 -0.062889
C69   C     C_R   0.215897 0.560427 0.775070 -0.154196
C70   C     C_R   0.193966 0.496902 0.804271 0.025708
C71   C     C_R   0.226409 0.434231 0.778862 -0.024255
C72   C     C_R   0.281361 0.438997 0.726802 -0.148086
C73   C     C_R   0.303096 0.502328 0.697401 0.023914
C74   C     C_R   0.269389 0.563627 0.721613 -0.028192
C75   C     C_R   0.265845 0.380730 0.865796 -0.077384
C76   C     C_3   0.152857 0.394381 0.181476 -0.291514
C77   C     C_R   0.245697 0.306015 0.881358 0.243283
C78   C     C_3   0.697867 0.058921 0.778049 -0.279394
C79   C     C_R   0.162437 0.209656 0.831449 -0.085914
C80   C     C_R   0.099311 0.188320 0.767327 -0.145616
C81   C     C_R   0.119236 0.262659 0.751863 -0.086283
C82   C     C_R   0.202590 0.359345 0.801053 0.018023
C83   C     C_R   0.857152 0.498989 0.142738 0.498503
C84   C     C_R   0.138157 0.499024 0.861189 0.518670
C85   C     C_R   0.856789 0.218964 0.862008 0.496298
C86   C     C_R   0.138254 0.780006 0.141147 0.523930
C87   C     C_R   0.855908 0.499077 0.861423 0.510909
C88   C     C_3   0.281263 0.582553 0.360388 -0.223501
C89   C     C_3   0.754300 0.938943 0.790809 -0.182616
C90   C     C_R   0.140189 0.500494 0.142983 0.547534
C91   C     C_3   0.941194 0.124558 0.958838 -0.005989
C92   C     C_3   0.027793 0.131405 0.968123 -0.329753
C93   C     C_3   0.083237 0.567016 0.511482 -0.017236
C94   C     C_3   0.024035 0.562642 0.448670 -0.378273
H1    H     H_    0.174954 0.372360 0.283813 0.122511
H2    H     H_    0.808226 0.915466 0.644550 0.141423
H3    H     H_    0.223959 0.334291 0.199464 0.163407
H4    H     H_    0.724145 0.911626 0.588606 0.140289
H5    H     H_    0.806289 0.088882 0.678082 0.097751
H6    H     H_    0.892691 0.092293 0.729117 0.162534
H7    H     H_    0.795765 0.908247 0.780561 0.171966
H8    H     H_    0.637000 0.332492 0.203624 0.115487
H9    H     H_    0.694063 0.333364 0.095864 0.122343
H10   H     H_    0.674949 0.421837 0.097980 0.200012
H11   H     H_    0.140158 0.337616 0.110714 0.139570
H12   H     H_    0.344791 0.661647 0.402562 0.168617
H13   H     H_    0.790540 0.611900 0.196054 0.181586
H14   H     H_    0.817829 0.570301 0.402768 0.140541
H15   H     H_    0.746447 0.432797 0.342187 0.115633
H16   H     H_    0.819695 0.412951 0.239116 0.119234
H17   H     H_    0.901444 0.550461 0.311658 0.148763
H18   H     H_    0.784097 0.664672 0.372984 0.115804
H19   H     H_    0.875955 0.667132 0.291591 0.109369
H20   H     H_    0.436330 0.222407 0.687394 0.129526
H21   H     H_    0.522283 0.196819 0.583476 0.099710
H22   H     H_    0.454941 0.118965 0.424990 0.103559
H23   H     H_    0.249221 0.659326 0.319259 0.206252
H24   H     H_    0.086670 0.369475 0.191923 0.109152
H25   H     H_    0.213069 0.089374 0.473283 0.104783
H26   H     H_    0.281934 0.168950 0.632140 0.115015
H27   H     H_    0.219647 0.901328 0.316001 0.150004
H28   H     H_    0.282503 0.098759 0.185490 0.152151
H29   H     H_    0.289125 0.883167 0.033425 0.119131
H30   H     H_    0.232209 0.801715 0.871919 0.106668
H31   H     H_    0.093183 0.773949 0.808051 0.108530
H32   H     H_    0.011668 0.828844 0.906148 0.162009
H33   H     H_    0.066759 0.908938 0.067517 0.131858
H34   H     H_    0.591893 0.909717 0.748547 0.130887
H35   H     H_    0.971672 0.845107 0.650644 0.115247
H36   H     H_    0.248376 0.565125 0.405816 0.182676
H37   H     H_    0.945048 0.673152 0.558088 0.105550
H38   H     H_    0.863998 0.545952 0.593229 0.097004
H39   H     H_    0.917831 0.890977 0.778501 0.136979
H40   H     H_    0.914889 0.610356 0.796485 0.138784
H41   H     H_    0.583125 0.390393 0.706113 0.145250
H42   H     H_    0.652977 0.236231 0.699588 0.094163
H43   H     H_    0.562760 0.119307 0.743050 0.097847
H44   H     H_    0.511794 0.180148 0.872401 0.166022
H45   H     H_    0.598054 0.912471 0.652319 0.145359
H46   H     H_    0.550972 0.359136 0.958914 0.209349
H47   H     H_    0.154696 0.556007 0.315570 0.132077
H48   H     H_    0.640675 0.476408 0.916227 0.139139
H49   H     H_    0.326927 0.808331 0.616719 0.128328
H50   H     H_    0.440312 0.871495 0.745718 0.103779
H51   H     H_    0.414927 0.759604 0.794760 0.121975
H52   H     H_    0.160686 0.516691 0.583793 0.084128
H53   H     H_    0.190761 0.607935 0.793361 0.135734
H54   H     H_    0.305908 0.390848 0.707841 0.144253
H55   H     H_    0.330737 0.454619 0.902725 0.150544
H56   H     H_    0.684175 0.088477 0.743301 0.134105
H57   H     H_    0.416436 0.607473 0.285171 0.199097
H58   H     H_    0.146764 0.150687 0.841627 0.140523
H59   H     H_    0.035470 0.113397 0.728589 0.116362
H60   H     H_    0.070391 0.244538 0.700803 0.108237
H61   H     H_    0.365659 0.474132 0.199245 0.202810
H62   H     H_    0.275608 0.471282 0.111227 0.180312
H63   H     H_    0.427612 0.815707 0.300333 0.371545
H64   H     H_    0.893409 0.068345 0.972276 0.174129
H65   H     H_    0.955884 0.201946 0.009311 0.123320
H66   H     H_    0.078703 0.191736 0.960620 0.169866
H67   H     H_    0.679166 0.085525 0.839415 0.125216
H68   H     H_    0.053800 0.151386 0.034723 0.113273
H69   H     H_    0.015744 0.056250 0.916173 0.176138
H70   H     H_    0.396720 0.215795 0.131962 0.367125
H71   H     H_    0.593494 0.586699 0.153087 0.398502
H72   H     H_    0.701093 0.740824 0.775760 0.327004
H73   H     H_    0.072766 0.599749 0.577278 0.125880
H74   H     H_    0.061665 0.486517 0.481986 0.127383
H75   H     H_    0.029098 0.525197 0.380975 0.147109
H76   H     H_    0.952939 0.517047 0.444032 0.088330
H77   H     H_    0.045488 0.642054 0.473840 0.157761
H78   H     H_    0.708828 0.910129 0.824432 0.094334
H79   H     H_    0.451929 0.465296 0.990732 0.343956
H80   H     H_    0.795548 0.086713 0.912727 0.071745
O1    O     O_3   0.500000 0.500000 0.500000 -0.453728
O2    O     O_R   0.113800 0.731630 0.056520 -0.528821
O3    O     O_R   0.819390 0.439310 0.886160 -0.534064
O4    O     O_R   0.383400 0.268380 0.323710 -0.538457
O5    O     O_R   0.115110 0.560720 0.179280 -0.535779
O6    O     O_R   0.941380 0.560750 0.885620 -0.553022
O7    O     O_R   0.115110 0.439270 0.057830 -0.535215
O8    O     O_R   0.942690 0.268390 0.886930 -0.514379
O9    O     O_R   0.114340 0.731630 0.178520 -0.539935
O10   O     O_R   0.820160 0.439310 0.057830 -0.547008
O11   O     O_R   0.113800 0.560730 0.885620 -0.552516
O12   O     O_R   0.383400 0.560740 0.616060 -0.537608
O13   O     O_R   0.555060 0.731630 0.615290 -0.541083
O14   O     O_R   0.383950 0.439280 0.616600 -0.547089
O15   O     O_R   0.677590 0.560710 0.444390 -0.562261
O16   O     O_R   0.556370 0.439260 0.616600 -0.548336
O17   O     O_R   0.382640 0.439290 0.322940 -0.511709
O18   O     O_R   0.678360 0.560700 0.616060 -0.544734
O19   O     O_R   0.382640 0.560750 0.444390 -0.549009
O20   O     O_2   0.430509 0.661167 0.158668 -0.228855
O21   O     O_2   0.295254 0.656988 0.139509 -0.287940
O22   O     O_3   0.395774 0.753516 0.300785 -0.565653
O23   O     O_R   0.555060 0.439270 0.322940 -0.432744
O24   O     O_3   0.906710 0.093973 0.872246 -0.556771
O25   O     O_2   0.500349 0.403548 0.162182 -0.138474
O26   O     O_2   0.507276 0.266494 0.040922 -0.315846
O27   O     O_3   0.458865 0.247684 0.165459 -0.518516
O28   O     O_2   0.595684 0.606939 0.312414 -0.254821
O29   O     O_2   0.727008 0.742266 0.312419 -0.290530
O30   O     O_3   0.627768 0.561869 0.162332 -0.502623
O31   O     O_2   0.838055 0.745827 0.906152 -0.261411
O32   O     O_2   0.867058 0.894759 0.912266 -0.338392
O33   O     O_3   0.709255 0.721790 0.815481 -0.494187
O34   O     O_R   0.383950 0.268380 0.445700 -0.541868
O35   O     O_3   0.173671 0.628720 0.519208 -0.583100
O36   O     O_2   0.280317 0.298613 0.017809 -0.291519
O37   O     O_2   0.360482 0.266738 0.912172 -0.281740
O38   O     O_3   0.410708 0.456373 0.025464 -0.483889
O39   O     O_R   0.677590 0.731610 0.615290 -0.550345
O40   O     O_3   0.997750 0.500010 0.002220 -0.445392
O41   O     O_R   0.942690 0.560750 0.179280 -0.552224
O42   O     O_R   0.114340 0.439270 0.886160 -0.524164
O43   O     O_R   0.820160 0.268410 0.886930 -0.563532
S1    S     S_3+6 0.353887 0.652972 0.193096 -0.001221
S2    S     S_3+6 0.525176 0.329523 0.139721 0.058395
S3    S     S_3+6 0.670330 0.628818 0.273788 0.025629
S4    S     S_3+6 0.820425 0.779706 0.852628 -0.016209
S5    S     S_3+6 0.325072 0.330262 0.960363 -0.000726
Zn1   Zn    Zn3+2 0.456040 0.586770 0.543190 0.946168
Zn2   Zn    Zn3+2 0.456820 0.413240 0.543960 0.937070
Zn3   Zn    Zn3+2 0.631110 0.586750 0.543190 0.946642
Zn4   Zn    Zn3+2 0.456040 0.413240 0.369660 1.022071
Zn5   Zn    Zn3+2 0.041710 0.413240 0.959030 0.970614
Zn6   Zn    Zn3+2 0.866640 0.413270 0.959030 0.923146
Zn7   Zn    Zn3+2 0.040930 0.586780 0.958260 0.954195
Zn8   Zn    Zn3+2 0.041710 0.586770 0.132560 0.953441

loop_
_geom_bond_atom_site_label_1
_geom_bond_atom_site_label_2
_ccdc_geom_bond_type
C25   C31   A    
C66   C68   A    
O12   Zn1   S    
C63   C65   A    
C34   C56   S    
C8    C13   S    
O36   S5    D    
C11   H15   S    
H63   O22   S    
C41   C42   A    
C35   C36   A    
C32   H29   S    
C88   H36   S    
C56   H62   S    
C28   O15   A    
C46   H35   S    
C56   S1    S    
C81   C82   A    
C57   C58   A    
C10   S3    S    
C80   H59   S    
C39   C41   A    
C54   C60   A    
O7    Zn5   S    
C2    H4    S    
C24   H20   S    
C12   C23   S    
C26   C27   A    
C37   C38   A    
C49   C60   S    
C7    H5    S    
O29   S3    D    
O30   S3    S    
C18   C24   A    
C4    O13   A    
C45   H23   S    
C36   C37   A    
C43   S4    S    
H71   O30   S    
C50   H41   S    
C94   H75   S    
C30   C31   A    
C6    C89   S    
C64   H1    S    
C27   C29   A    
C27   C38   S    
O28   S3    D    
O41   Zn8   S    
C68   H49   S    
C12   H57   S    
C18   C19   A    
C73   C74   A    
C15   H13   S    
C35   H31   S    
C1    O34   A    
C85   O43   A    
C91   H64   S    
C87   O6    A    
C90   O5    A    
C91   O24   S    
C11   C17   S    
C2    C7    S    
C59   H48   S    
C8    C9    S    
C62   H51   S    
C57   H44   S    
C33   H30   S    
O1    Zn2   S    
C15   H19   S    
C13   C28   S    
C10   H18   S    
C70   C71   A    
C32   C38   A    
C29   C30   A    
C70   C84   S    
C91   H65   S    
C26   C86   S    
C47   C53   A    
C71   C82   S    
C5    C85   S    
O23   Zn4   S    
C59   C60   A    
C21   C22   A    
C17   H16   S    
C45   H47   S    
C14   C17   S    
C84   O11   A    
C61   C62   A    
C67   C78   S    
C14   C83   S    
C17   H17   S    
C44   C46   A    
C47   H40   S    
C77   C79   A    
C3    C89   S    
C36   H32   S    
O6    Zn7   S    
O42   Zn5   S    
C7    H6    S    
C16   C73   S    
C45   C88   S    
O25   S2    D    
C93   H74   S    
O20   S1    D    
C16   O14   A    
C91   C92   S    
C6    O24   S    
C72   C73   A    
O38   S5    S    
C6    H80   S    
C92   H68   S    
C25   C26   A    
C72   H54   S    
O37   S5    D    
C76   H24   S    
C81   H60   S    
C66   O35   S    
C52   O17   A    
C8    H8    S    
C22   H26   S    
C9    C14   S    
C34   C90   S    
C62   C63   A    
O16   Zn2   S    
C94   H77   S    
C87   O3    A    
C88   H12   S    
C1    O4    A    
C61   H50   S    
C83   O41   A    
C47   C48   A    
C40   O18   A    
C90   O7    A    
C9    H9    S    
C54   H42   S    
C29   H28   S    
O13   Zn1   S    
C50   C51   A    
C64   C76   S    
C48   C87   S    
C69   C74   A    
C93   C94   S    
O5    Zn8   S    
O40   Zn5   S    
O1    Zn4   S    
O9    Zn8   S    
O27   S2    S    
C25   H27   S    
C12   C56   S    
C34   C45   S    
C39   C46   A    
O14   Zn2   S    
C92   H69   S    
C23   C64   S    
O33   S4    S    
O17   Zn4   S    
C23   C88   S    
C55   C57   A    
C43   C44   A    
C93   O35   S    
C86   O9    A    
C69   H53   S    
C49   C50   A    
C22   C24   A    
H79   O38   S    
C42   C43   A    
O10   Zn6   S    
C12   H61   S    
C3    C4    S    
O40   Zn8   S    
C67   H45   S    
C78   H56   S    
C5    C7    S    
C58   H46   S    
C44   H39   S    
C54   C55   A    
C64   H3    S    
C4    O39   A    
C89   H7    S    
C85   O8    A    
C3    C67   S    
C52   O19   A    
C89   H78   S    
C80   C81   A    
C10   C13   S    
C55   H43   S    
C18   H21   S    
C41   H38   S    
O22   S1    S    
C75   C82   A    
C63   C74   S    
O34   Zn2   S    
C40   C51   S    
O11   Zn7   S    
C28   O23   A    
O1    Zn3   S    
C92   H66   S    
C10   C15   S    
C32   C33   A    
C19   C20   A    
C2    H2    S    
C2    C3    S    
C58   C59   A    
C71   C72   A    
C42   C53   S    
C8    S2    S    
C16   O12   A    
C67   H34   S    
C94   H76   S    
O3    Zn6   S    
C11   C13   S    
C61   C68   A    
C23   C52   S    
C5    C6    S    
C39   H37   S    
C19   H22   S    
C75   H55   S    
C9    H10   S    
C48   C49   A    
O2    Zn7   S    
O40   Zn6   S    
O31   S4    D    
C1    C30   S    
C33   C35   A    
C83   O10   A    
C86   O2    A    
O21   S1    D    
C69   C70   A    
O8    Zn5   S    
O4    Zn4   S    
O39   Zn3   S    
H70   O27   S    
O43   Zn6   S    
C79   C80   A    
C5    C78   S    
C77   S5    S    
O19   Zn1   S    
C40   O16   A    
C20   C21   A    
C93   H73   S    
C78   H67   S    
C21   H25   S    
C65   C66   A    
H72   O33   S    
C75   C77   A    
C11   H14   S    
O26   S2    D    
O1    Zn1   S    
C14   C15   S    
O32   S4    D    
C51   C53   A    
C65   H52   S    
O40   Zn7   S    
O15   Zn3   S    
C76   H11   S    
C84   O42   A    
O18   Zn3   S    
C34   C76   S    
C79   H58   S    
C37   H33   S    
C20   C31   S    
