data_mof_unit_7776.cif
_audit_creation_date              2013-03-05T15:48:19-0500
_audit_creation_method            fapswitch 2.2
_symmetry_space_group_name_H-M    P1
_symmetry_Int_Tables_number       1
_space_group_crystal_system       triclinic
_cell_length_a                    10.135722
_cell_length_b                    10.587103
_cell_length_c                    16.877812
_cell_angle_alpha                 91.860448
_cell_angle_beta                  77.101376
_cell_angle_gamma                 94.482884
_cell_volume                      1759.81116238

loop_
_atom_site_label
_atom_site_type_symbol
_atom_site_description
_atom_site_fract_x
_atom_site_fract_y
_atom_site_fract_z
_atom_type_partial_charge
O1    O     O_R   0.430310 0.692580 0.506610 -0.533306
O2    O     O_R   0.569690 0.307420 0.493390 -0.535740
O3    O     O_R   0.652740 0.659410 0.485540 -0.619894
O4    O     O_R   0.347260 0.340590 0.514460 -0.627661
C1    C     C_R   0.554659 0.733940 0.500115 0.964054
C2    C     C_R   0.444514 0.266306 0.510177 0.953941
O5    O     O_R   0.375640 0.518570 0.627580 -0.621470
O6    O     O_R   0.624360 0.481430 0.372420 -0.614565
O7    O     O_R   0.598070 0.485390 0.606510 -0.624448
O8    O     O_R   0.401930 0.514610 0.393490 -0.610797
C3    C     C_R   0.482528 0.502873 0.654546 0.865179
C4    C     C_R   0.515949 0.491212 0.345895 0.879542
Zn1   Zn    Zn3+2 0.351480 0.522150 0.514070 0.962587
Zn2   Zn    Zn3+2 0.648520 0.477850 0.485930 0.957754
C5    C     C_R   0.474303 0.510381 0.741255 -0.094076
C6    C     C_R   0.517048 0.458100 0.262024 -0.059203
C7    C     C_R   0.593812 0.531515 0.769600 -0.316233
C8    C     C_R   0.635251 0.479766 0.201515 -0.332046
C9    C     C_R   0.588486 0.542259 0.852954 0.530877
C10   C     C_R   0.631735 0.455152 0.119560 0.561670
C11   C     C_R   0.461080 0.524761 0.906593 0.023964
C12   C     C_R   0.510132 0.399987 0.102303 0.007961
C13   C     C_R   0.341317 0.507485 0.878506 -0.181782
C14   C     C_R   0.397388 0.365955 0.163780 -0.188245
C15   C     C_R   0.347914 0.499453 0.795801 -0.189102
C16   C     C_R   0.399877 0.397284 0.243411 -0.138238
C17   C     C_2   0.453754 0.512243 0.992666 -0.014616
C18   C     C_2   0.489839 0.403081 0.020105 0.027357
H1    H     H_    0.690745 0.538073 0.726804 0.156318
H2    H     H_    0.726095 0.519651 0.218998 0.148607
H3    H     H_    0.309602 0.375396 0.290389 0.143102
H4    H     H_    0.254812 0.482110 0.774620 0.161403
H5    H     H_    0.243749 0.494602 0.920698 0.145847
H6    H     H_    0.304163 0.324708 0.149306 0.148355
C19   C     C_2   0.581623 0.868084 0.514969 -0.455973
C20   C     C_2   0.415913 0.133953 0.532142 -0.465450
C21   C     C_2   0.487754 0.934648 0.564592 0.411314
C22   C     C_2   0.507962 0.072129 0.559641 0.364825
H7    H     H_    0.319726 0.086079 0.526061 0.149165
H8    H     H_    0.678434 0.913819 0.484094 0.153385
H9    H     H_    0.114870 0.415627 0.450151 0.158931
H10   H     H_    0.883654 0.580106 0.552720 0.161432
N1    N     N_2   0.846390 0.448330 0.467170 -0.184918
N2    N     N_2   0.153610 0.551670 0.532830 -0.185854
C23   C     C_2   0.925700 0.510077 0.507639 -0.149884
C24   C     C_2   0.073465 0.487547 0.493977 -0.124283
H11   H     H_    0.111071 0.620003 0.573337 0.180267
H12   H     H_    0.889676 0.382384 0.425008 0.172332
C25   C     C_2   0.516388 0.284875 0.970458 0.408579
H13   H     H_    0.569727 0.212341 0.991623 0.062693
O9    O     O_2   0.475441 0.264524 0.908168 -0.597924
C26   C     C_2   0.416420 0.628168 0.043049 0.329583
H14   H     H_    0.406843 0.714889 0.012819 0.062653
O10   O     O_2   0.393403 0.629111 0.117151 -0.567963
O11   O     O_3   0.741672 0.479892 0.054187 -0.641077
C27   C     C_3   0.828825 0.587285 0.065070 0.110352
H15   H     H_    0.910897 0.594247 0.009074 0.173725
H16   H     H_    0.881656 0.574659 0.114879 0.119861
C28   C     C_3   0.756616 0.711342 0.074758 -0.360993
H17   H     H_    0.699473 0.716778 0.026172 0.239676
H18   H     H_    0.683182 0.714390 0.134275 0.235130
C29   C     C_3   0.858065 0.826684 0.069912 -0.967708
H19   H     H_    0.915305 0.823919 0.118731 0.274037
H20   H     H_    0.803028 0.914489 0.077723 0.272678
H21   H     H_    0.930501 0.829121 0.009832 0.257366
O12   O     O_3   0.704873 0.553519 0.884337 -0.632116
C30   C     C_3   0.803696 0.645979 0.844071 0.064840
H22   H     H_    0.834983 0.709696 0.891113 0.163614
H23   H     H_    0.766154 0.708988 0.803454 0.111018
C31   C     C_3   0.928886 0.581738 0.797610 -0.333354
H24   H     H_    0.969371 0.526282 0.840544 0.231938
H25   H     H_    0.901307 0.515396 0.750685 0.215433
C32   C     C_3   0.039272 0.679306 0.756383 -1.002815
H26   H     H_    0.000605 0.737112 0.713888 0.261164
H27   H     H_    0.127092 0.630355 0.721213 0.278222
H28   H     H_    0.073730 0.742383 0.802771 0.265716
O13   O     O_3   0.632298 0.130801 0.566843 -0.623537
C33   C     C_3   0.636922 0.138850 0.649780 0.091165
H29   H     H_    0.633798 0.042453 0.674939 0.125230
H30   H     H_    0.550489 0.190531 0.685319 0.148940
C34   C     C_3   0.769543 0.211761 0.658016 -0.319988
H31   H     H_    0.856751 0.161479 0.622822 0.219752
H32   H     H_    0.774801 0.308051 0.632633 0.244287
C35   C     C_3   0.780573 0.224072 0.746678 -0.931738
H33   H     H_    0.697985 0.279352 0.782127 0.309357
H34   H     H_    0.879524 0.274150 0.750254 0.255204
H35   H     H_    0.774227 0.128936 0.773771 0.262736
O14   O     O_3   0.363472 0.876941 0.604568 -0.627166
C36   C     C_3   0.329986 0.917766 0.686932 0.062708
H36   H     H_    0.218073 0.904787 0.708017 0.173611
H37   H     H_    0.356263 0.020307 0.696389 0.115126
C37   C     C_3   0.394878 0.836664 0.739194 -0.369203
H38   H     H_    0.351828 0.737691 0.736682 0.244424
H39   H     H_    0.506239 0.838323 0.714767 0.201734
C38   C     C_3   0.367944 0.882744 0.827504 -0.941408
H40   H     H_    0.413745 0.980908 0.831563 0.285384
H41   H     H_    0.414107 0.819918 0.863554 0.255179
H42   H     H_    0.257112 0.880594 0.853754 0.261486

loop_
_geom_bond_atom_site_label_1
_geom_bond_atom_site_label_2
_geom_bond_distance
_ccdc_geom_bond_type
C28   H17   1.109731 S    
O11   C27   1.417276 S    
C7    H1    1.080545 S    
C32   H26   1.110864 S    
C21   O14   1.393669 S    
C38   H40   1.111056 S    
C35   H35   1.111016 S    
C34   H31   1.111826 S    
C38   H42   1.110492 S    
O13   C33   1.410614 S    
C17   C26   1.494573 S    
O5    C3    1.289064 A    
C21   C22   1.456420 S    
O1    C1    1.283532 A    
C9    C11   1.404661 A    
C14   C16   1.379079 A    
C33   H30   1.116094 S    
C5    C15   1.399723 A    
C27   H15   1.111106 S    
C9    O12   1.392569 S    
O4    Zn1   1.919516 S    
C29   H20   1.110407 S    
C3    C5    1.447056 S    
C4    C6    1.445068 S    
N2    C24   1.293629 D    
C13   H5    1.083731 S    
H9    C24   1.085274 S    
C31   H24   1.111850 S    
C8    H2    1.079639 S    
C36   H37   1.112420 S    
N1    H12   1.030811 S    
N2    H11   1.030398 S    
C15   H4    1.082255 S    
O12   C30   1.417521 S    
C11   C17   1.447853 S    
C16   H3    1.083731 S    
C12   C18   1.448939 S    
C32   H27   1.108821 S    
O2    C2    1.280880 A    
C10   O11   1.397098 S    
C34   H32   1.111436 S    
C26   O10   1.219839 D    
C27   H16   1.109414 S    
C6    C16   1.399129 A    
C28   H18   1.109928 S    
C30   H22   1.109153 S    
C35   H33   1.109722 S    
O4    C2    1.296571 A    
C33   H29   1.113526 S    
C25   O9    1.220672 D    
C23   C24   1.500429 S    
C37   C38   1.525120 S    
C14   H6    1.083895 S    
C30   H23   1.116052 S    
H10   C23   1.085452 S    
O7    Zn2   1.985149 S    
C29   H19   1.110850 S    
O7    C3    1.289691 A    
C18   C25   1.491506 S    
O6    C4    1.288008 A    
C31   C32   1.523622 S    
C37   H39   1.110815 S    
C36   C37   1.531136 S    
N1    C23   1.293859 D    
O3    Zn2   1.919516 S    
O8    C4    1.288247 A    
C10   C12   1.407751 A    
C11   C13   1.395808 A    
C32   H28   1.110226 S    
C12   C14   1.393856 A    
O1    Zn1   1.911659 S    
C34   C35   1.525940 S    
C26   H14   1.085891 S    
C5    C7    1.398433 A    
C28   C29   1.525725 S    
O6    Zn2   1.986783 S    
C29   H21   1.110986 S    
C19   C21   1.346859 D    
C20   H7    1.087174 S    
C35   H34   1.110154 S    
O3    C1    1.293153 A    
O8    Zn1   1.985149 S    
C38   H41   1.110666 S    
C22   O13   1.389218 S    
C27   C28   1.539591 S    
C30   C31   1.530882 S    
C20   C22   1.350118 D    
C19   H8    1.087505 S    
C33   C34   1.528504 S    
C1    C19   1.449581 S    
C37   H38   1.106379 S    
C7    C9    1.397023 A    
C2    C20   1.451611 S    
C8    C10   1.407004 A    
C13   C15   1.382635 A    
O2    Zn2   1.911659 S    
O5    Zn1   1.986782 S    
O14   C36   1.416955 S    
C6    C8    1.398907 A    
C25   H13   1.085600 S    
C17   C18   1.363950 D    
C31   H25   1.109398 S    
C36   H36   1.109410 S    
Zn1   N2    2.007046 S    
Zn2   N1    2.007046 S    
