data_mof_unit_5580.cif
_audit_creation_date              2012-12-10T18:58:43-0500
_audit_creation_method            fapswitch 2.2
_symmetry_space_group_name_H-M    P1
_symmetry_Int_Tables_number       1
_space_group_crystal_system       triclinic
_cell_length_a                    13.002301
_cell_length_b                    10.860531
_cell_length_c                    9.543953
_cell_angle_alpha                 90.018865
_cell_angle_beta                  95.83599
_cell_angle_gamma                 90.141694
_cell_volume                      1340.73015796

loop_
_atom_site_label
_atom_site_type_symbol
_atom_type_description
_atom_site_fract_x
_atom_site_fract_y
_atom_site_fract_z
_atom_type_partial_charge
C1    C     C_R   0.500257 0.262703 0.499870 0.806267
C2    C     C_R   0.027451 0.487345 0.562447 0.155772
C3    C     C_R   0.972529 0.522711 0.432762 0.104584
C4    C     C_R   0.864881 0.530541 0.426041 -0.274586
C5    C     C_R   0.867595 0.464762 0.668898 -0.197986
C6    C     C_R   0.974773 0.459424 0.679470 -0.200630
C7    C     C_R   0.496714 0.062022 0.620410 0.134384
C8    C     C_R   0.501795 0.130090 0.498398 -0.105759
C9    C     C_R   0.508592 0.064556 0.371854 -0.219314
C10   C     C_R   0.508818 0.935380 0.371931 -0.221005
C11   C     C_R   0.502199 0.869909 0.498549 -0.106297
C12   C     C_R   0.300615 0.500895 0.473923 0.816566
C13   C     C_R   0.497040 0.938056 0.620537 0.133544
C14   C     C_3   0.486271 0.929262 0.774135 -0.471114
C15   C     C_3   0.485824 0.071073 0.773925 -0.478212
C16   C     C_R   0.549717 0.591089 0.080381 0.265122
C17   C     C_R   0.442912 0.417128 0.066512 -0.085648
C18   C     C_R   0.442946 0.417078 0.917618 -0.083246
C19   C     C_R   0.549209 0.591532 0.932801 0.260503
C20   C     C_3   0.661384 0.621931 0.941153 -0.500985
C21   C     C_3   0.662549 0.618745 0.099832 -0.529465
C22   C     C_R   0.500521 0.737294 0.499928 0.806016
C23   C     C_R   0.699472 0.500328 0.526225 0.802425
C24   C     C_R   0.812282 0.499350 0.541576 -0.040835
C25   C     C_R   0.188024 0.505794 0.458414 -0.105015
C26   C     C_R   0.026266 0.548206 0.313466 0.139348
C27   C     C_R   0.134531 0.538844 0.329111 -0.191136
C28   C     C_R   0.134389 0.479862 0.574163 -0.270331
Cu1   Cu    Cu3+1 0.499990 0.499980 0.640670 0.938887
Cu2   Cu    Cu3+1 0.500010 0.500020 0.359330 0.937808
H1    H     H_    0.820873 0.561400 0.331353 0.140268
H2    H     H_    0.555812 0.889076 0.834214 0.192522
H3    H     H_    0.410413 0.111260 0.795101 0.189931
H4    H     H_    0.555068 0.112745 0.833825 0.202658
H5    H     H_    0.398258 0.348571 0.116147 0.138347
H6    H     H_    0.398273 0.348545 0.855590 0.133914
H7    H     H_    0.675713 0.715187 0.899362 0.188892
H8    H     H_    0.707543 0.539555 0.146172 0.211390
H9    H     H_    0.679857 0.709418 0.151037 0.192159
H10   H     H_    0.828154 0.439880 0.759401 0.147045
H11   H     H_    0.016442 0.431746 0.778521 0.134698
H12   H     H_    0.178628 0.558688 0.241784 0.173339
H13   H     H_    0.175940 0.453212 0.673853 0.154551
H14   H     H_    0.513339 0.112306 0.273094 0.166285
H15   H     H_    0.513740 0.887574 0.273216 0.164983
H16   H     H_    0.411212 0.887846 0.795606 0.200478
N1    N     N_R   0.500660 0.500930 0.148010 -0.185442
N2    N     N_R   0.500660 0.500890 0.852110 -0.185395
O1    O     O_R   0.500000 0.319640 0.618810 -0.583460
O2    O     O_R   0.500010 0.319680 0.381230 -0.588722
O3    O     O_R   0.348990 0.499960 0.599490 -0.584846
O4    O     O_R   0.349000 0.500000 0.361910 -0.590773
O5    O     O_R   0.499990 0.680320 0.618770 -0.578841
O6    O     O_R   0.500000 0.680360 0.381190 -0.587760
O7    O     O_R   0.651000 0.500000 0.638090 -0.589469
O8    O     O_R   0.651010 0.500040 0.400510 -0.583276
H17   H     H_    0.708342 0.547318 0.900288 0.216193
C29   C     C_3   0.967290 0.583596 0.172390 -0.407453
C30   C     C_3   0.032299 0.605769 0.049795 -0.858726
H18   H     H_    0.086180 0.684301 0.073359 0.252758
H19   H     H_    0.076087 0.521506 0.027542 0.244113
H20   H     H_    0.980402 0.628937 0.953761 0.251810
H21   H     H_    0.911397 0.508843 0.139607 0.201571
H22   H     H_    0.923002 0.669255 0.187053 0.206594

loop_
_geom_bond_atom_site_label_1
_geom_bond_atom_site_label_2
_ccdc_geom_bond_type
C30   H18   S    
C23   C24   S    
C16   C21   S    
C23   O7    A    
Cu1   Cu2   S    
C25   C27   A    
C1    C8    S    
Cu1   O7    S    
C9    C10   A    
C15   H4    S    
C19   C20   S    
C21   H9    S    
C12   C25   S    
Cu2   O8    S    
C18   N2    A    
C10   H15   S    
C7    C15   S    
C17   C18   A    
Cu2   O2    S    
C7    C8    A    
C22   O6    A    
Cu1   O1    S    
C13   C14   S    
C25   C28   A    
C20   H7    S    
Cu2   O6    S    
C27   H12   S    
C23   O8    A    
C26   C27   A    
C2    C6    A    
C5    C24   A    
Cu1   O5    S    
C28   H13   S    
C16   N1    A    
C12   O4    A    
Cu1   O3    S    
C2    C3    A    
C22   O5    A    
C16   C19   A    
C29   H22   S    
C5    C6    A    
C4    C24   A    
C29   C30   S    
C30   H19   S    
C11   C13   A    
C10   C11   A    
Cu1   N2    S    
C3    C4    A    
C4    H1    S    
Cu2   N1    S    
C7    C13   A    
C12   O3    A    
C20   C21   S    
C11   C22   S    
C14   H16   S    
C1    O2    A    
C5    H10   S    
C14   H2    S    
C29   H21   S    
Cu2   O4    S    
C14   C15   S    
C9    H14   S    
C2    C28   A    
C17   H5    S    
C20   H17   S    
C19   N2    A    
C18   H6    S    
C26   C29   S    
C3    C26   A    
C21   H8    S    
C17   N1    A    
C15   H3    S    
C8    C9    A    
C30   H20   S    
C6    H11   S    
C1    O1    A    
