data_mof_unit_42331.cif
_audit_creation_date              2012-12-11T17:36:20-0500
_audit_creation_method            fapswitch 2.2
_symmetry_space_group_name_H-M    P1
_symmetry_Int_Tables_number       1
_space_group_crystal_system       triclinic
_cell_length_a                    25.998124
_cell_length_b                    6.903922
_cell_length_c                    21.503875
_cell_angle_alpha                 89.998092
_cell_angle_beta                  96.14137
_cell_angle_gamma                 89.999364
_cell_volume                      3837.55841696

loop_
_atom_site_label
_atom_site_type_symbol
_atom_type_description
_atom_site_fract_x
_atom_site_fract_y
_atom_site_fract_z
_atom_type_partial_charge
O1    O     O_R   0.208650 0.594520 0.175450 -0.535712
O2    O     O_R   0.791350 0.405480 0.824550 -0.535705
O3    O     O_R   0.291350 0.094520 0.324550 -0.535705
O4    O     O_R   0.708650 0.905480 0.675450 -0.535730
O5    O     O_R   0.192980 0.260780 0.300160 -0.502338
O6    O     O_R   0.807020 0.739220 0.699840 -0.502333
O7    O     O_R   0.307020 0.760780 0.199840 -0.502347
O8    O     O_R   0.692980 0.239220 0.800160 -0.502380
C1    C     C_R   0.179544 0.432026 0.319330 0.793732
C2    C     C_R   0.820455 0.567975 0.680670 0.793807
C3    C     C_R   0.320455 0.932028 0.180669 0.793702
C4    C     C_R   0.679547 0.067974 0.819332 0.793647
O9    O     O_R   0.202550 0.264660 0.174420 -0.533363
O10   O     O_R   0.797450 0.735340 0.825580 -0.533342
O11   O     O_R   0.297450 0.764660 0.325580 -0.533371
O12   O     O_R   0.702550 0.235340 0.674420 -0.533361
O13   O     O_R   0.300990 0.096480 0.197920 -0.534464
O14   O     O_R   0.699010 0.903520 0.802080 -0.534470
O15   O     O_R   0.199010 0.596480 0.302080 -0.534460
O16   O     O_R   0.800990 0.403520 0.697920 -0.534486
C5    C     C_R   0.191558 0.435486 0.150217 0.752470
C6    C     C_R   0.808444 0.564513 0.849782 0.752503
C7    C     C_R   0.308445 0.935481 0.349781 0.752459
C8    C     C_R   0.691555 0.064519 0.650218 0.752417
O17   O     O_3   0.282290 0.427760 0.257860 -0.367482
O18   O     O_3   0.717710 0.572240 0.742140 -0.367513
O19   O     O_3   0.217710 0.927760 0.242140 -0.367462
O20   O     O_3   0.782290 0.072240 0.757860 -0.367423
V1    V     V_3+5 0.244010 0.152080 0.248540 1.582457
V2    V     V_3+5 0.755990 0.847920 0.751460 1.582506
V3    V     V_3+5 0.255990 0.652080 0.251460 1.582429
V4    V     V_3+5 0.744010 0.347920 0.748540 1.582418
C9    C     C_R   0.658887 0.040297 0.589444 -0.109830
C10   C     C_R   0.341118 0.959694 0.410554 -0.109858
C11   C     C_R   0.841114 0.540278 0.910554 -0.109864
C12   C     C_R   0.158890 0.459723 0.089442 -0.109845
C13   C     C_R   0.647148 0.894913 0.485976 -0.102345
C14   C     C_R   0.352865 0.105011 0.514030 -0.102377
C15   C     C_R   0.852863 0.394802 0.014011 -0.102352
C16   C     C_R   0.147141 0.605244 0.985992 -0.102370
C17   C     C_R   0.678759 0.938477 0.540481 0.282896
C18   C     C_R   0.321254 0.061541 0.459517 0.282866
C19   C     C_R   0.821248 0.438409 0.959513 0.282880
C20   C     C_R   0.178754 0.561644 0.040491 0.282857
C21   C     C_R   0.605359 0.079360 0.584409 -0.254193
C22   C     C_R   0.394642 0.920554 0.415589 -0.254160
C23   C     C_R   0.894640 0.579382 0.915588 -0.254089
C24   C     C_R   0.105367 0.420562 0.084400 -0.254128
C25   C     C_R   0.571286 0.016300 0.531441 0.075382
C26   C     C_R   0.428718 0.983522 0.468566 0.075389
C27   C     C_R   0.928718 0.516353 0.968558 0.075396
C28   C     C_R   0.071289 0.483620 0.031433 0.075388
C29   C     C_R   0.593797 0.932111 0.480485 0.006901
C30   C     C_R   0.406210 0.067705 0.519527 0.006918
C31   C     C_R   0.906212 0.432042 0.019504 0.006911
C32   C     C_R   0.093794 0.567965 0.980493 0.006955
C33   C     C_R   0.515787 0.029808 0.527783 0.024925
C34   C     C_R   0.484217 0.969948 0.472230 0.024918
C35   C     C_R   0.984217 0.529984 0.972226 0.024952
C36   C     C_R   0.015790 0.469988 0.027765 0.024930
C37   C     C_R   0.509177 0.903207 0.421457 -0.205950
C38   C     C_R   0.490828 0.096459 0.578565 -0.205992
C39   C     C_R   0.990835 0.403063 0.078521 -0.205938
C40   C     C_R   0.009173 0.596935 0.921473 -0.205950
C41   C     C_R   0.562523 0.881020 0.425455 0.271174
C42   C     C_R   0.437483 0.118681 0.574567 0.271171
C43   C     C_R   0.937490 0.380857 0.074523 0.271142
C44   C     C_R   0.062518 0.619152 0.925473 0.271108
H1    H     H_    0.408606 0.849073 0.376210 0.110559
H2    H     H_    0.591390 0.150876 0.623779 0.110584
H3    H     H_    0.091407 0.349004 0.123770 0.110553
H4    H     H_    0.908601 0.650864 0.876206 0.110528
H5    H     H_    0.664675 0.821509 0.449166 0.214399
H6    H     H_    0.335344 0.178435 0.550841 0.214386
H7    H     H_    0.835342 0.321332 0.050814 0.214404
H8    H     H_    0.164661 0.678750 0.949194 0.214405
H9    H     H_    0.488172 0.867476 0.377191 0.138436
H10   H     H_    0.511833 0.132060 0.622842 0.138401
H11   H     H_    0.011841 0.367202 0.122777 0.138431
H12   H     H_    0.988168 0.632828 0.877220 0.138469
C45   C     C_R   0.444670 0.836813 0.105039 -0.211345
C46   C     C_R   0.555328 0.163110 0.894958 -0.211343
C47   C     C_R   0.055327 0.336802 0.394957 -0.211401
C48   C     C_R   0.944676 0.663099 0.605042 -0.211598
H13   H     H_    0.477436 0.739004 0.110583 0.176182
H14   H     H_    0.522547 0.260844 0.889391 0.176257
H15   H     H_    0.022564 0.238982 0.389418 0.176141
H16   H     H_    0.977452 0.760852 0.610580 0.176022
C49   C     C_R   0.405403 0.819766 0.145244 0.387280
C50   C     C_R   0.594593 0.180175 0.854753 0.387244
C51   C     C_R   0.094595 0.319762 0.354751 0.387278
C52   C     C_R   0.905417 0.680136 0.645266 0.387155
C53   C     C_R   0.361480 0.941609 0.136864 -0.231666
C54   C     C_R   0.638528 0.058401 0.863145 -0.231685
C55   C     C_R   0.138517 0.441604 0.363133 -0.231653
C56   C     C_R   0.861475 0.558404 0.636860 -0.231505
C57   C     C_R   0.356735 0.071803 0.085711 0.228952
C58   C     C_R   0.643291 0.928291 0.914318 0.228968
C59   C     C_R   0.143257 0.571807 0.414281 0.228941
C60   C     C_R   0.856703 0.428329 0.585680 0.228867
C61   C     C_R   0.397247 0.093404 0.047442 0.287148
C62   C     C_R   0.602785 0.906696 0.952596 0.287191
C63   C     C_R   0.102742 0.593415 0.452544 0.287134
C64   C     C_R   0.897208 0.406718 0.547401 0.287159
C65   C     C_R   0.441560 0.976206 0.057385 -0.072810
C66   C     C_R   0.558457 0.023795 0.942634 -0.072851
C67   C     C_R   0.058433 0.476204 0.442605 -0.072768
C68   C     C_R   0.941539 0.523798 0.557362 -0.072697
C69   C     C_1   0.482929 0.992445 0.017045 0.123950
C70   C     C_1   0.517088 0.007544 0.982976 0.123945
C71   C     C_1   0.017062 0.492441 0.482945 0.123928
C72   C     C_1   0.982905 0.507544 0.517016 0.123898
Br1   Br    Br    0.590108 0.779998 0.352395 -0.472952
Br2   Br    Br    0.409898 0.219580 0.647643 -0.472973
Br3   Br    Br    0.909911 0.279639 0.147568 -0.473062
Br4   Br    Br    0.090100 0.720385 0.852432 -0.473214
Br5   Br    Br    0.251981 0.162345 0.453389 -0.394417
Br6   Br    Br    0.748051 0.837854 0.546603 -0.394395
Br7   Br    Br    0.248034 0.662379 0.046623 -0.394417
Br8   Br    Br    0.751960 0.337756 0.953392 -0.394395
O21   O     O_3   0.406733 0.668732 0.187667 -0.534666
C73   C     C_3   0.444608 0.705708 0.238226 0.095415
H17   H     H_    0.436517 0.844628 0.261737 0.086356
H18   H     H_    0.484019 0.710958 0.222535 0.166521
C74   C     C_3   0.443467 0.541923 0.285465 -0.646831
H19   H     H_    0.450059 0.400947 0.262702 0.227694
H20   H     H_    0.474265 0.563248 0.324707 0.200228
H21   H     H_    0.405300 0.538189 0.304255 0.205584
O22   O     O_3   0.593241 0.331172 0.812314 -0.534657
C75   C     C_3   0.555429 0.293887 0.761709 0.095389
H22   H     H_    0.516004 0.288090 0.777353 0.166467
H23   H     H_    0.563658 0.155135 0.738181 0.086175
C76   C     C_3   0.556472 0.457831 0.714508 -0.646540
H24   H     H_    0.594663 0.462119 0.695765 0.205566
H25   H     H_    0.525722 0.436226 0.675222 0.200152
H26   H     H_    0.549733 0.598657 0.737297 0.227775
O23   O     O_3   0.093268 0.168744 0.312322 -0.534675
C77   C     C_3   0.055344 0.205625 0.261797 0.095416
H27   H     H_    0.063384 0.344578 0.238267 0.086463
H28   H     H_    0.015946 0.210750 0.277536 0.166497
C78   C     C_3   0.056483 0.041858 0.214554 -0.646803
H29   H     H_    0.049956 0.900848 0.237340 0.227683
H30   H     H_    0.025639 0.063083 0.175350 0.200350
H31   H     H_    0.094629 0.038273 0.195699 0.205512
O24   O     O_3   0.906759 0.831066 0.687733 -0.534775
C79   C     C_3   0.944804 0.794453 0.738139 0.095424
H32   H     H_    0.984156 0.789950 0.722282 0.166582
H33   H     H_    0.936944 0.655285 0.761639 0.086835
C80   C     C_3   0.943617 0.957973 0.785462 -0.647135
H34   H     H_    0.905538 0.960895 0.804465 0.205415
H35   H     H_    0.974570 0.937038 0.824548 0.200633
H36   H     H_    0.949934 0.099178 0.762706 0.227663
Br9   Br    Br    0.291747 0.197216 0.061582 -0.362574
Br10  Br    Br    0.708293 0.802983 0.938451 -0.362611
Br11  Br    Br    0.208243 0.697230 0.438410 -0.362571
Br12  Br    Br    0.791693 0.303101 0.561538 -0.362642
Br13  Br    Br    0.391665 0.280508 0.980396 -0.365575
Br14  Br    Br    0.608396 0.719742 0.019679 -0.365497
Br15  Br    Br    0.108314 0.780548 0.519576 -0.365701
Br16  Br    Br    0.891587 0.219783 0.480312 -0.365508

loop_
_geom_bond_atom_site_label_1
_geom_bond_atom_site_label_2
_ccdc_geom_bond_type
O17   V3    S    
C59   C63   A    
C58   Br10  S    
O1    C5    A    
O19   V1    S    
C9    C21   A    
O3    C7    A    
C71   C72   T    
C10   C18   A    
O1    V3    S    
C11   C23   A    
C62   Br14  S    
O24   C79   S    
C25   C33   A    
C33   C38   A    
C5    C12   S    
C39   H11   S    
O7    C3    A    
C6    C11   S    
C35   C40   A    
C26   C30   A    
C36   C39   A    
C40   C44   A    
O9    V1    S    
O10   V2    S    
C14   C18   A    
C80   H35   S    
O16   V4    S    
O4    C8    A    
C55   C59   A    
C80   H34   S    
C54   C58   A    
C52   C56   A    
O13   V1    S    
O2    V4    S    
O3    V1    S    
C43   Br3   S    
C22   H1    S    
C13   H5    S    
C28   C36   A    
C51   O23   S    
C50   O22   S    
C13   C17   A    
C1    O15   A    
C60   C64   A    
C15   C31   A    
C37   H9    S    
C16   C32   A    
C59   Br11  S    
O2    C6    A    
C74   H21   S    
C12   C24   A    
C10   C22   A    
C57   Br9   S    
C17   Br6   S    
C11   C19   A    
C1    C55   S    
C16   C20   A    
C79   H33   S    
C19   Br8   S    
C13   C29   A    
C60   Br12  S    
C34   C37   A    
O11   C7    A    
C52   O24   S    
O15   V3    S    
C35   C36   A    
O12   C8    A    
C61   C65   A    
C40   H12   S    
C4    C54   S    
C41   Br1   S    
C64   Br16  S    
C50   C54   A    
O5    V1    S    
C63   Br15  S    
O17   V1    S    
C39   C43   A    
O7    V3    S    
C38   C42   A    
O19   V3    S    
C26   C34   A    
O20   V4    S    
C78   H31   S    
C2    O16   A    
O18   V4    S    
C15   C19   A    
C20   Br7   S    
C32   C44   A    
C51   C55   A    
C16   H8    S    
O8    V4    S    
C75   H23   S    
O5    C1    A    
C37   C41   A    
C76   H26   S    
C79   C80   S    
C31   C43   A    
C14   C30   A    
C2    C56   S    
O8    C4    A    
C7    C10   S    
C57   C61   A    
C21   C25   A    
O9    C5    A    
O21   C73   S    
C77   H28   S    
C44   Br4   S    
O14   V2    S    
O6    V2    S    
O18   V2    S    
C15   H7    S    
C76   H24   S    
C80   H36   S    
C75   C76   S    
C27   C35   A    
C24   H3    S    
C73   H18   S    
C53   C57   A    
C64   C68   A    
C29   C41   A    
C74   H20   S    
C79   H32   S    
C14   H6    S    
C45   C65   A    
C65   C69   S    
C3    O13   A    
C42   Br2   S    
C21   H2    S    
C67   C71   S    
C38   H10   S    
C48   H16   S    
C77   C78   S    
C47   H15   S    
O6    C2    A    
C23   C27   A    
C18   Br5   S    
O11   V3    S    
C30   C42   A    
O12   V4    S    
C47   C51   A    
O23   C77   S    
C22   C26   A    
C8    C9    S    
C46   C50   A    
C9    C17   A    
O10   C6    A    
C73   C74   S    
C78   H30   S    
C75   H22   S    
O22   C75   S    
C45   C49   A    
C58   C62   A    
C78   H29   S    
C46   H14   S    
C3    C53   S    
C33   C34   A    
C74   H19   S    
C49   O21   S    
C25   C29   A    
C56   C60   A    
O20   V2    S    
C48   C68   A    
C47   C67   A    
C62   C66   A    
C27   C31   A    
C46   C66   A    
C49   C53   A    
O4    V2    S    
C23   H4    S    
C12   C20   A    
C77   H27   S    
C61   Br13  S    
C68   C72   S    
C24   C28   A    
C66   C70   S    
C4    O14   A    
C76   H25   S    
C63   C67   A    
C48   C52   A    
C73   H17   S    
C69   C70   T    
C45   H13   S    
C28   C32   A    
