data_mof_unit_23669.cif
_audit_creation_date              2012-12-11T15:41:27-0500
_audit_creation_method            fapswitch 2.2
_symmetry_space_group_name_H-M    P1
_symmetry_Int_Tables_number       1
_space_group_crystal_system       triclinic
_cell_length_a                    18.972209
_cell_length_b                    11.015916
_cell_length_c                    18.746618
_cell_angle_alpha                 90.002811
_cell_angle_beta                  90.102989
_cell_angle_gamma                 90.320638
_cell_volume                      3917.90537608

loop_
_atom_site_label
_atom_site_type_symbol
_atom_type_description
_atom_site_fract_x
_atom_site_fract_y
_atom_site_fract_z
_atom_type_partial_charge
C1    C     C_R   0.727368 0.955194 0.853629 0.544915
C2    C     C_R   0.275238 0.961260 0.144151 0.541948
C3    C     C_R   0.227368 0.455194 0.853629 0.544913
C4    C     C_R   0.775237 0.461260 0.144151 0.541948
C5    C     C_R   0.700767 0.467804 0.036250 0.001701
C6    C     C_R   0.309872 0.445702 0.957776 0.009543
C7    C     C_R   0.200763 0.967787 0.036252 0.001697
C8    C     C_R   0.809874 0.945697 0.957775 0.009543
C9    C     C_R   0.692924 0.456741 0.963220 0.011297
C10   C     C_R   0.320587 0.413697 0.028557 0.015184
C11   C     C_R   0.192919 0.956723 0.963222 0.011299
C12   C     C_R   0.820588 0.913693 0.028556 0.015183
C13   C     C_R   0.817365 0.418817 0.951142 -0.159023
C14   C     C_R   0.224485 0.270838 0.021015 -0.152982
C15   C     C_R   0.317364 0.918831 0.951140 -0.159024
C16   C     C_R   0.724481 0.770844 0.021017 -0.152981
C17   C     C_R   0.824482 0.425529 0.024819 -0.151003
C18   C     C_R   0.214912 0.300547 0.949211 -0.152609
C19   C     C_R   0.324482 0.925546 0.024817 -0.151001
C20   C     C_R   0.714909 0.800551 0.949212 -0.152609
C21   C     C_3   0.630499 0.413427 0.051296 -0.293373
C22   C     C_3   0.330304 0.574939 0.971100 -0.260333
C23   C     C_3   0.130502 0.913381 0.051300 -0.293376
C24   C     C_3   0.830308 0.074934 0.971098 -0.260335
C25   C     C_3   0.621813 0.399121 0.971327 -0.257792
C26   C     C_3   0.342353 0.539831 0.048465 -0.262867
C27   C     C_3   0.121816 0.899074 0.971331 -0.257787
C28   C     C_3   0.842358 0.039826 0.048463 -0.262869
C29   C     C_R   0.750066 0.423453 0.920303 0.015657
C30   C     C_R   0.274044 0.333950 0.062963 0.011960
C31   C     C_R   0.250064 0.923452 0.920303 0.015655
C32   C     C_R   0.774043 0.833951 0.062963 0.011961
C33   C     C_R   0.490573 0.168225 0.429034 0.019457
C34   C     C_R   0.494404 0.171558 0.577485 0.022489
C35   C     C_R   0.990574 0.668224 0.429033 0.019459
C36   C     C_R   0.994405 0.671557 0.577485 0.022491
C37   C     C_R   0.488661 0.276209 0.466523 0.024177
C38   C     C_R   0.488061 0.279530 0.538734 0.026295
C39   C     C_R   0.988661 0.776208 0.466523 0.024176
C40   C     C_R   0.988061 0.779529 0.538734 0.026293
C41   C     C_R   0.485478 0.060571 0.541869 -0.173966
C42   C     C_R   0.485083 0.058680 0.467268 -0.165691
C43   C     C_R   0.985480 0.560570 0.541868 -0.173964
C44   C     C_R   0.985084 0.558679 0.467268 -0.165690
C45   C     C_R   0.529653 0.177131 0.850604 0.544062
C46   C     C_R   0.470005 0.178147 0.149240 0.547850
C47   C     C_R   0.029652 0.677131 0.850604 0.544061
C48   C     C_R   0.970004 0.678147 0.149240 0.547852
C49   C     C_3   0.530785 0.388942 0.457521 -0.284384
C50   C     C_3   0.530507 0.395678 0.537950 -0.266577
C51   C     C_3   0.030784 0.888943 0.457521 -0.284385
C52   C     C_3   0.030505 0.895678 0.537950 -0.266580
C53   C     C_R   0.749513 0.415418 0.422164 0.006593
C54   C     C_R   0.249837 0.392095 0.582296 0.008472
C55   C     C_R   0.249513 0.915417 0.422164 0.006593
C56   C     C_R   0.749834 0.892099 0.582295 0.008473
C57   C     C_R   0.781822 0.316773 0.454538 0.029507
C58   C     C_R   0.198820 0.324809 0.544397 0.045208
C59   C     C_R   0.281824 0.816774 0.454538 0.029511
C60   C     C_R   0.698814 0.824822 0.544395 0.045213
C61   C     C_R   0.779163 0.301838 0.527185 0.027753
C62   C     C_R   0.208266 0.298342 0.473373 0.001017
C63   C     C_R   0.279164 0.801840 0.527186 0.027758
C64   C     C_R   0.708263 0.798349 0.473371 0.001007
C65   C     C_R   0.707393 0.479943 0.538609 -0.177849
C66   C     C_R   0.325915 0.378742 0.478455 -0.167525
C67   C     C_R   0.207391 0.979942 0.538608 -0.177849
C68   C     C_R   0.825915 0.878737 0.478457 -0.167527
C69   C     C_R   0.707262 0.491766 0.464372 -0.172592
C70   C     C_R   0.316167 0.409480 0.550689 -0.165315
C71   C     C_R   0.207260 0.991763 0.464371 -0.172592
C72   C     C_R   0.816166 0.909477 0.550690 -0.165319
C73   C     C_3   0.855582 0.270404 0.450203 -0.141078
C74   C     C_3   0.121980 0.351452 0.532238 -0.124620
C75   C     C_3   0.355584 0.770409 0.450204 -0.141082
C76   C     C_3   0.621977 0.851486 0.532228 -0.124610
C77   C     C_3   0.852255 0.252113 0.530419 -0.245363
C78   C     C_3   0.133330 0.323683 0.454077 -0.246713
C79   C     C_3   0.352257 0.752119 0.530420 -0.245367
C80   C     C_3   0.633330 0.823703 0.454070 -0.246717
C81   C     C_R   0.746769 0.388088 0.570734 0.016690
C82   C     C_R   0.269608 0.331648 0.437777 0.001205
C83   C     C_R   0.246769 0.888089 0.570734 0.016690
C84   C     C_R   0.769608 0.831646 0.437777 0.001203
C85   C     C_R   0.738352 0.364765 0.852208 0.542046
C86   C     C_R   0.276163 0.312598 0.140015 0.566847
C87   C     C_R   0.238352 0.864765 0.852208 0.542044
C88   C     C_R   0.776163 0.812599 0.140015 0.566848
C89   C     C_R   0.728209 0.952795 0.648088 0.543272
C90   C     C_R   0.271869 0.956092 0.352470 0.548107
C91   C     C_R   0.228210 0.452794 0.648088 0.543268
C92   C     C_R   0.771869 0.456092 0.352470 0.548107
C93   C     C_R   0.528757 0.176649 0.645683 0.546319
C94   C     C_R   0.469704 0.176061 0.355616 0.542446
C95   C     C_R   0.028758 0.676649 0.645683 0.546321
C96   C     C_R   0.969704 0.676061 0.355616 0.542447
C97   C     C_R   0.739229 0.359493 0.645462 0.545006
C98   C     C_R   0.274465 0.310807 0.360905 0.568534
C99   C     C_R   0.239229 0.859493 0.645462 0.545005
C100  C     C_R   0.774466 0.810806 0.360905 0.568531
C101  C     C_2   0.497537 0.165667 0.921055 -0.123883
C102  C     C_2   0.501393 0.171864 0.078473 -0.116458
C103  C     C_2   0.997535 0.665667 0.921054 -0.123881
C104  C     C_2   0.001391 0.671863 0.078472 -0.116461
C105  C     C_2   0.500230 0.069459 0.040039 -0.164879
C106  C     C_2   0.513963 0.070416 0.962964 -0.170598
C107  C     C_2   0.000225 0.569458 0.040037 -0.164875
C108  C     C_2   0.013959 0.570415 0.962963 -0.170597
C109  C     C_R   0.764961 0.441760 0.068503 0.018705
C110  C     C_R   0.253431 0.396851 0.918639 0.014358
C111  C     C_R   0.264961 0.941761 0.068503 0.018704
C112  C     C_R   0.753430 0.896851 0.918639 0.014359
Cr1   Cr    Cr6+3 0.769260 0.163750 0.750730 1.008199
Cr2   Cr    Cr6+3 0.230740 0.163750 0.249270 1.001168
Cr3   Cr    Cr6+3 0.269260 0.663750 0.750730 1.008198
Cr4   Cr    Cr6+3 0.730740 0.663750 0.249270 1.001166
Cr5   Cr    Cr6+3 0.612640 0.009910 0.748780 0.999889
Cr6   Cr    Cr6+3 0.387360 0.009910 0.251220 0.995938
Cr7   Cr    Cr6+3 0.112640 0.509910 0.748780 0.999894
Cr8   Cr    Cr6+3 0.887360 0.509910 0.251220 0.995939
Cr9   Cr    Cr6+3 0.614190 0.322400 0.747710 1.004527
Cr10  Cr    Cr6+3 0.385810 0.322400 0.252290 1.000908
Cr11  Cr    Cr6+3 0.114190 0.822400 0.747710 1.004525
Cr12  Cr    Cr6+3 0.885810 0.822400 0.252290 1.000908
H1    H     H_    0.489711 0.982735 0.065394 0.143393
H2    H     H_    0.540597 0.991703 0.941144 0.158878
H3    H     H_    0.989704 0.482735 0.065393 0.143395
H4    H     H_    0.040591 0.491700 0.941142 0.158876
H5    H     H_    0.000674 0.962924 0.431661 0.134953
H6    H     H_    0.083857 0.884988 0.560741 0.181695
H7    H     H_    0.500676 0.462924 0.431662 0.134952
H8    H     H_    0.583859 0.384985 0.560741 0.181694
H9    H     H_    0.583452 0.370618 0.434258 0.147007
H10   H     H_    0.500192 0.474065 0.558876 0.122663
H11   H     H_    0.083451 0.870620 0.434258 0.147008
H12   H     H_    0.000188 0.974064 0.558876 0.122663
H13   H     H_    0.678088 0.542741 0.571093 0.125358
H14   H     H_    0.374925 0.401713 0.452869 0.142741
H15   H     H_    0.178084 0.042738 0.571092 0.125364
H16   H     H_    0.874926 0.901706 0.452871 0.142741
H17   H     H_    0.678711 0.566010 0.440688 0.141604
H18   H     H_    0.358269 0.454085 0.579750 0.120057
H19   H     H_    0.178708 0.066005 0.440686 0.141603
H20   H     H_    0.858269 0.954077 0.579752 0.120058
H21   H     H_    0.894842 0.340041 0.434747 0.162798
H22   H     H_    0.109522 0.448200 0.542339 0.165407
H23   H     H_    0.394842 0.840047 0.434747 0.162797
H24   H     H_    0.609528 0.948239 0.542322 0.165393
H25   H     H_    0.852783 0.156028 0.547639 0.146321
H26   H     H_    0.105094 0.241673 0.434164 0.135030
H27   H     H_    0.352787 0.656034 0.547640 0.146321
H28   H     H_    0.605092 0.741693 0.434160 0.135033
H29   H     H_    0.888904 0.312467 0.560428 0.120555
H30   H     H_    0.127696 0.405301 0.419632 0.145225
H31   H     H_    0.388905 0.812474 0.560429 0.120552
H32   H     H_    0.627703 0.905316 0.419620 0.145231
H33   H     H_    0.515748 0.257225 0.053589 0.109121
H34   H     H_    0.469607 0.243412 0.942371 0.110247
H35   H     H_    0.015748 0.757223 0.053588 0.109124
H36   H     H_    0.969606 0.743414 0.942370 0.110247
H37   H     H_    0.863345 0.397235 0.919464 0.137253
H38   H     H_    0.189015 0.205748 0.045140 0.142837
H39   H     H_    0.363345 0.897260 0.919461 0.137251
H40   H     H_    0.689009 0.705758 0.045142 0.142837
H41   H     H_    0.876312 0.413857 0.047563 0.139006
H42   H     H_    0.172460 0.256566 0.920194 0.138125
H43   H     H_    0.376315 0.913887 0.047560 0.139009
H44   H     H_    0.672455 0.756573 0.920196 0.138125
H45   H     H_    0.093598 0.980246 0.074915 0.140186
H46   H     H_    0.785640 0.138783 0.963871 0.157341
H47   H     H_    0.593604 0.480308 0.074909 0.140184
H48   H     H_    0.285634 0.638785 0.963872 0.157338
H49   H     H_    0.634496 0.325743 0.080380 0.138115
H50   H     H_    0.379630 0.600769 0.942880 0.138094
H51   H     H_    0.134512 0.825697 0.080383 0.138115
H52   H     H_    0.879635 0.100760 0.942878 0.138091
H53   H     H_    0.621273 0.302578 0.954204 0.155409
H54   H     H_    0.398681 0.544909 0.064693 0.138027
H55   H     H_    0.121289 0.802530 0.954208 0.155399
H56   H     H_    0.898685 0.044900 0.064690 0.138026
H57   H     H_    0.579051 0.456154 0.948817 0.143243
H58   H     H_    0.304880 0.583851 0.085851 0.154411
H59   H     H_    0.079044 0.956089 0.948824 0.143250
H60   H     H_    0.804886 0.083849 0.085849 0.154412
H61   H     H_    0.485806 0.976097 0.571103 0.123630
H62   H     H_    0.482492 0.972763 0.439711 0.122744
H63   H     H_    0.985808 0.476096 0.571102 0.123631
H64   H     H_    0.982492 0.472762 0.439710 0.122745
O1    O     O_R   0.784290 0.290360 0.830540 -0.528599
O2    O     O_R   0.215710 0.290360 0.169460 -0.511922
O3    O     O_R   0.284290 0.790360 0.830540 -0.528598
O4    O     O_R   0.715710 0.790360 0.169460 -0.511924
O5    O     O_R   0.554690 0.080440 0.673480 -0.510585
O6    O     O_R   0.445310 0.080440 0.326520 -0.507067
O7    O     O_R   0.054690 0.580440 0.673480 -0.510578
O8    O     O_R   0.945310 0.580440 0.326520 -0.507067
O9    O     O_R   0.543980 0.282110 0.666770 -0.525176
O10   O     O_R   0.456020 0.282110 0.333230 -0.526894
O11   O     O_R   0.043980 0.782110 0.666770 -0.525177
O12   O     O_R   0.956020 0.782110 0.333230 -0.526894
O13   O     O_R   0.679070 0.374030 0.674430 -0.511032
O14   O     O_R   0.320930 0.374030 0.325570 -0.503285
O15   O     O_R   0.179070 0.874030 0.674430 -0.511033
O16   O     O_R   0.820930 0.874030 0.325570 -0.503283
O17   O     O_3   0.665360 0.165350 0.749070 -0.243876
O18   O     O_3   0.334640 0.165350 0.250930 -0.286608
O19   O     O_3   0.165360 0.665350 0.749070 -0.243876
O20   O     O_3   0.834640 0.665350 0.250930 -0.286608
O21   O     O_R   0.762610 0.041070 0.825230 -0.498472
O22   O     O_R   0.237390 0.041070 0.174770 -0.514251
O23   O     O_R   0.262610 0.541070 0.825230 -0.498473
O24   O     O_R   0.737390 0.541070 0.174770 -0.514251
O25   O     O_R   0.667390 0.924160 0.829970 -0.528018
O26   O     O_R   0.332610 0.924160 0.170030 -0.525006
O27   O     O_R   0.167390 0.424160 0.829970 -0.528017
O28   O     O_R   0.832610 0.424160 0.170030 -0.525007
O29   O     O_R   0.553980 0.081420 0.821780 -0.497030
O30   O     O_R   0.446020 0.081420 0.178220 -0.496339
O31   O     O_R   0.053980 0.581420 0.821780 -0.497029
O32   O     O_R   0.946020 0.581420 0.178220 -0.496338
O33   O     O_R   0.543210 0.283170 0.826740 -0.520329
O34   O     O_R   0.456790 0.283170 0.173260 -0.524502
O35   O     O_R   0.043210 0.783170 0.826740 -0.520329
O36   O     O_R   0.956790 0.783170 0.173260 -0.524503
O37   O     O_R   0.678350 0.375000 0.822720 -0.498250
O38   O     O_R   0.321650 0.375000 0.177280 -0.492016
O39   O     O_R   0.178350 0.875000 0.822720 -0.498250
O40   O     O_R   0.821650 0.875000 0.177280 -0.492017
O41   O     O_R   0.785060 0.289300 0.670580 -0.518871
O42   O     O_R   0.214940 0.289300 0.329420 -0.515494
O43   O     O_R   0.285060 0.789300 0.670580 -0.518871
O44   O     O_R   0.714940 0.789300 0.329420 -0.515495
O45   O     O_R   0.763330 0.040090 0.676940 -0.503181
O46   O     O_R   0.236670 0.040090 0.323060 -0.522168
O47   O     O_R   0.263330 0.540090 0.676940 -0.503179
O48   O     O_R   0.736670 0.540090 0.323060 -0.522169
O49   O     O_R   0.668160 0.923110 0.670000 -0.524186
O50   O     O_R   0.331840 0.923110 0.330000 -0.522032
O51   O     O_R   0.168160 0.423110 0.670000 -0.524194
O52   O     O_R   0.831840 0.423110 0.330000 -0.522032
C113  C     C_3   0.860308 0.154404 0.406170 -0.389679
H65   H     H_    0.814247 0.094467 0.416249 0.165297
H66   H     H_    0.860986 0.177512 0.348550 0.163707
H67   H     H_    0.909791 0.106469 0.419424 0.112996
C114  C     C_3   0.071578 0.261508 0.568545 -0.404778
H68   H     H_    0.070624 0.277047 0.626960 0.167155
H69   H     H_    0.017581 0.273952 0.547169 0.110007
H70   H     H_    0.086752 0.166359 0.558024 0.127232
C115  C     C_3   0.360312 0.654408 0.406171 -0.389686
H71   H     H_    0.314252 0.594470 0.416250 0.165297
H72   H     H_    0.360989 0.677516 0.348552 0.163708
H73   H     H_    0.409795 0.606475 0.419425 0.112993
C116  C     C_3   0.571558 0.761562 0.568529 -0.404742
H74   H     H_    0.570558 0.777164 0.626950 0.167135
H75   H     H_    0.517571 0.773982 0.547104 0.110005
H76   H     H_    0.586755 0.666395 0.558045 0.127250

loop_
_geom_bond_atom_site_label_1
_geom_bond_atom_site_label_2
_ccdc_geom_bond_type
C58   C62   A    
C39   C51   S    
C4    C109  S    
C67   C83   A    
Cr2   O2    S    
Cr3   O19   S    
Cr9   O33   S    
C6    C110  A    
C41   C42   A    
C14   C18   A    
C93   O9    A    
C34   C93   S    
Cr9   O17   S    
C53   C69   A    
C33   C94   S    
C72   H20   S    
Cr3   O47   S    
C51   H5    S    
C9    C25   S    
Cr2   O46   S    
C63   C79   S    
C35   C96   S    
C16   H40   S    
C21   H49   S    
Cr1   O45   S    
C49   H7    S    
C78   H26   S    
C115  H71   S    
Cr8   O8    S    
C89   O45   A    
C12   C28   S    
C46   O30   A    
C33   C42   A    
C13   C29   A    
Cr6   O18   S    
C27   H55   S    
C55   C90   S    
Cr5   O17   S    
C8    C112  A    
C1    C112  S    
C54   C58   A    
C116  H74   S    
C25   H53   S    
C103  H36   S    
C67   C71   A    
C23   H51   S    
C3    C110  S    
C85   O1    A    
C66   H14   S    
C48   C104  S    
C91   O47   A    
C65   C69   A    
Cr9   O37   S    
Cr8   O32   S    
C90   O46   A    
C102  C105  D    
C80   H28   S    
C113  H65   S    
C96   O8    A    
C57   C73   S    
C57   C61   A    
C49   C50   S    
Cr10  O18   S    
C64   C84   A    
Cr2   O42   S    
C49   H9    S    
C77   H29   S    
C20   C112  A    
C51   H11   S    
C97   O41   A    
Cr8   O28   S    
Cr12  O36   S    
Cr12  O40   S    
C61   C77   S    
C56   C72   A    
C23   H45   S    
Cr6   O30   S    
C107  C108  S    
Cr5   O29   S    
Cr7   O27   S    
C23   C27   S    
C30   C86   S    
C24   H46   S    
Cr3   O43   S    
C7    C23   S    
Cr2   O22   S    
C8    C12   A    
Cr3   O3    S    
C19   C111  A    
Cr6   O50   S    
C62   C82   A    
Cr10  O34   S    
C11   C31   A    
Cr4   O44   S    
C98   O42   A    
C114  H68   S    
Cr12  O20   S    
Cr7   O31   S    
C64   C80   S    
C47   C103  S    
C34   C41   A    
C19   H43   S    
C14   C30   A    
Cr6   O6    S    
C100  O16   A    
C102  H33   S    
C7    C111  A    
C34   C38   A    
C22   H50   S    
C25   H57   S    
C80   H32   S    
C3    O27   A    
C26   H54   S    
C18   H42   S    
C62   C78   S    
C20   H44   S    
C2    C111  S    
C2    O22   A    
C86   O2    A    
C90   O50   A    
C1    O21   A    
C51   C52   S    
C68   C84   A    
C89   O49   A    
C36   C40   A    
C31   C87   S    
Cr10  O38   S    
C50   H10   S    
C77   H25   S    
C39   C40   A    
C116  H75   S    
C74   C114  S    
C53   C57   A    
Cr1   O21   S    
C78   H30   S    
C48   O36   A    
C3    O23   A    
C75   H23   S    
C40   C52   S    
C47   O31   A    
C92   O48   A    
Cr7   O51   S    
C108  H4    S    
Cr2   O18   S    
C76   H24   S    
C73   H21   S    
C68   C72   A    
C94   O10   A    
Cr1   O17   S    
C55   C71   A    
C14   H38   S    
C15   C19   A    
C43   C44   A    
C5    C9    A    
C37   C38   A    
C35   C44   A    
C86   O38   A    
C66   C82   A    
C37   C49   S    
C10   C30   A    
C87   O3    A    
C65   C81   A    
C54   C70   A    
C11   C27   S    
C16   C20   A    
C63   C83   A    
Cr4   O48   S    
C53   C92   S    
C10   C26   S    
C85   O37   A    
C5    C21   S    
Cr6   O26   S    
Cr4   O20   S    
Cr10  O10   S    
Cr12  O12   S    
C15   C31   A    
C76   C116  S    
C28   H56   S    
Cr9   O9    S    
C103  C108  D    
C50   H8    S    
Cr8   O52   S    
C26   H58   S    
C95   O11   A    
C56   C89   S    
C84   C100  S    
C44   H64   S    
C101  H34   S    
C2    O26   A    
C115  H72   S    
C87   O39   A    
C45   C101  S    
C22   C26   S    
C52   H12   S    
C82   C98   S    
C68   H16   S    
C32   C88   S    
C12   C32   A    
C104  H35   S    
C13   H37   S    
C24   H52   S    
C59   C75   S    
C41   H61   S    
C67   H15   S    
C55   C59   A    
C58   C74   S    
C24   C28   S    
C71   H19   S    
C48   O32   A    
C79   H27   S    
C15   H39   S    
C101  C106  D    
C96   O12   A    
C73   C113  S    
C21   C25   S    
C52   H6    S    
C92   O52   A    
C115  H73   S    
C95   O7    A    
C99   O15   A    
C94   O6    A    
C29   C85   S    
C74   H22   S    
C70   H18   S    
C93   O5    A    
C76   C80   S    
C97   O13   A    
C36   C43   A    
C17   C109  A    
C43   H63   S    
Cr11  O11   S    
Cr8   O20   S    
C99   O43   A    
Cr1   O41   S    
C38   C50   S    
Cr11  O15   S    
C88   O4    A    
C16   C32   A    
C79   H31   S    
Cr1   O1    S    
C105  C106  S    
C106  H2    S    
C59   C63   A    
Cr11  O35   S    
C4    O24   A    
Cr3   O23   S    
C107  H3    S    
C60   C64   A    
C113  H67   S    
C45   O33   A    
C105  H1    S    
C116  H76   S    
C114  H69   S    
C28   H60   S    
C65   H13   S    
C54   C91   S    
Cr4   O24   S    
C61   C81   A    
C1    O25   A    
C9    C29   A    
Cr9   O13   S    
C36   C95   S    
C42   H62   S    
C88   O40   A    
C81   C97   S    
C98   O14   A    
C35   C39   A    
C69   H17   S    
C74   C78   S    
C8    C24   S    
C60   C76   S    
C33   C37   A    
Cr7   O7    S    
Cr4   O4    S    
C46   O34   A    
Cr5   O25   S    
C27   H59   S    
Cr5   O5    S    
C6    C10   A    
Cr5   O49   S    
C13   C17   A    
C56   C60   A    
Cr10  O14   S    
Cr11  O19   S    
Cr11  O39   S    
C66   C70   A    
C47   O35   A    
C18   C110  A    
Cr12  O16   S    
C21   H47   S    
C114  H70   S    
C91   O51   A    
C4    O28   A    
C73   C77   S    
C100  O44   A    
C17   H41   S    
Cr7   O19   S    
C5    C109  A    
C113  H66   S    
C75   C115  S    
C75   C79   S    
C104  C107  D    
C22   H48   S    
C45   O29   A    
C7    C11   A    
C83   C99   S    
C46   C102  S    
C6    C22   S    
