data_mof_unit_25165.cif
_audit_creation_date              2012-12-11T16:05:06-0500
_audit_creation_method            fapswitch 2.2
_symmetry_space_group_name_H-M    P1
_symmetry_Int_Tables_number       1
_space_group_crystal_system       triclinic
_cell_length_a                    10.617936
_cell_length_b                    10.63105
_cell_length_c                    16.902989
_cell_angle_alpha                 98.331323
_cell_angle_beta                  98.454708
_cell_angle_gamma                 61.935434
_cell_volume                      1659.08210396

loop_
_atom_site_label
_atom_site_type_symbol
_atom_type_description
_atom_site_fract_x
_atom_site_fract_y
_atom_site_fract_z
_atom_type_partial_charge
C1    C     C_R   0.351165 0.783649 0.402318 0.552554
C2    C     C_3   0.396854 0.744524 0.256155 -0.133531
C3    C     C_3   0.329944 0.849017 0.328553 0.036820
C4    C     C_R   0.368596 0.345465 0.359648 0.527784
C5    C     C_3   0.373105 0.956738 0.305167 -0.122915
C6    C     C_3   0.226245 0.026646 0.254889 -0.183980
C7    C     C_3   0.183831 0.918455 0.280470 -0.129406
C8    C     C_3   0.249925 0.813690 0.207817 -0.116334
C9    C     C_3   0.291435 0.921459 0.182484 0.028254
C10   C     C_3   0.430326 0.258256 0.770326 0.037512
C11   C     C_3   0.350510 0.399836 0.730373 -0.143521
C12   C     C_3   0.669901 0.341871 0.234327 -0.111120
C13   C     C_3   0.322708 0.315741 0.652976 -0.006683
C14   C     C_3   0.402548 0.174940 0.693663 0.036796
C15   C     C_3   0.258748 0.201042 0.721094 -0.198192
C16   C     C_R   0.706037 0.415937 0.390795 0.553689
C17   C     C_3   0.178198 0.343431 0.679129 -0.120301
C18   C     C_3   0.209285 0.422417 0.757143 0.098567
C19   C     C_3   0.288308 0.283624 0.798259 0.036679
C20   C     C_1   0.818538 0.341146 0.709303 -0.018555
C21   C     C_1   0.845319 0.314357 0.777844 0.013011
C22   C     C_1   0.338997 0.810358 0.710041 -0.015224
C23   C     C_3   0.745324 0.387015 0.309172 0.016997
C24   C     C_1   0.314375 0.837546 0.778892 -0.031276
C25   C     C_R   0.891439 0.310320 0.090546 0.549791
C26   C     C_R   0.317258 0.296968 0.121084 0.546132
C27   C     C_R   0.257455 0.959068 0.099454 0.552767
C28   C     C_R   0.356869 0.770841 0.627392 0.564626
C29   C     C_R   0.886148 0.298960 0.860612 0.555048
C30   C     C_R   0.278063 0.254006 0.877672 0.565130
C31   C     C_R   0.280693 0.883768 0.859263 0.552600
C32   C     C_R   0.364039 0.342113 0.581774 0.561586
C33   C     C_R   0.774601 0.379277 0.629436 0.544013
C34   C     C_3   0.892794 0.269612 0.287438 -0.121169
C35   C     C_1   0.338421 0.332630 0.276227 -0.054591
C36   C     C_1   0.326819 0.321751 0.204950 -0.056768
C37   C     C_3   0.817864 0.227687 0.211440 0.110241
C38   C     C_2   0.568314 0.224049 0.821859 0.605717
C39   C     C_2   0.505007 0.028477 0.660158 0.610469
C40   C     C_2   0.576778 0.826714 0.203679 0.572334
C41   C     C_3   0.904927 0.378582 0.241600 -0.132158
C42   C     C_3   0.757055 0.495939 0.264409 -0.110816
C43   C     C_3   0.683249 0.450102 0.187730 -0.138153
C44   C     C_3   0.830405 0.333643 0.165605 0.079742
C45   C     C_3   0.437277 0.853609 0.231142 0.069854
Cr1   Cr    Cr6+3 0.608340 0.611040 0.520430 1.041580
Cr2   Cr    Cr6+3 0.287650 0.601120 0.489350 1.032118
Cr3   Cr    Cr6+3 0.604040 0.287870 0.490280 1.063452
Cr4   Cr    Cr6+3 0.054020 0.052700 0.970850 1.056666
Cr5   Cr    Cr6+3 0.059230 0.375120 0.993390 1.049624
Cr6   Cr    Cr6+3 0.374950 0.061200 0.992340 1.097298
H1    H     H_    0.575693 0.324011 0.233245 0.134215
H2    H     H_    0.734283 0.605350 0.290718 0.163502
H3    H     H_    0.598102 0.518619 0.144194 0.173344
H4    H     H_    0.460061 0.628387 0.261055 0.097088
H5    H     H_    0.422654 0.014610 0.347402 0.165989
H6    H     H_    0.664021 0.277042 0.924055 0.346934
H7    H     H_    0.587858 0.895736 0.562583 0.342016
H8    H     H_    0.068597 0.632472 0.750453 0.248621
H9    H     H_    0.157558 0.592029 0.841112 0.257267
H10   H     H_    0.836804 0.033144 0.226168 0.253587
H11   H     H_    0.952315 0.027860 0.166081 0.242538
H12   H     H_    0.163516 0.143056 0.250721 0.101080
H13   H     H_    0.721174 0.729194 0.121606 0.347438
H14   H     H_    0.080924 0.943280 0.302990 0.132917
H15   H     H_    0.200232 0.753199 0.168061 0.149745
H16   H     H_    0.386355 0.483461 0.733802 0.124325
H17   H     H_    0.219687 0.120331 0.718821 0.105239
H18   H     H_    0.075253 0.379387 0.640785 0.145282
H19   H     H_    0.973439 0.199555 0.332007 0.125828
H20   H     H_    0.001023 0.395284 0.243330 0.124288
N1    N     N_3   0.103946 0.557803 0.792930 -0.557452
N2    N     N_3   0.846017 0.082881 0.179903 -0.579778
O1    O     O_R   0.751220 0.499230 0.435170 -0.516204
O2    O     O_R   0.412990 0.180750 0.091610 -0.483507
O3    O     O_R   0.366620 0.943130 0.065760 -0.451917
O4    O     O_R   0.477220 0.727600 0.436870 -0.522027
O5    O     O_R   0.160510 0.906330 0.879210 -0.496577
O6    O     O_R   0.930190 0.179050 0.889450 -0.483212
O7    O     O_R   0.909140 0.398170 0.896710 -0.495745
O8    O     O_R   0.186190 0.363460 0.918830 -0.470845
O9    O     O_R   0.401670 0.173200 0.913310 -0.472921
O10   O     O_R   0.356120 0.936130 0.900470 -0.492897
O11   O     O_3   0.162740 0.163010 0.985530 -0.332321
O12   O     O_R   0.297880 0.469080 0.560050 -0.505888
O13   O     O_R   0.258650 0.745120 0.411470 -0.509969
O14   O     O_R   0.297070 0.467240 0.395960 -0.499413
O15   O     O_R   0.488830 0.252610 0.387790 -0.504809
O16   O     O_R   0.724400 0.302390 0.420980 -0.495025
O17   O     O_R   0.752100 0.501210 0.612190 -0.494909
O18   O     O_R   0.478040 0.729440 0.600970 -0.470454
O19   O     O_R   0.259530 0.747110 0.588490 -0.514398
O20   O     O_2   0.678453 0.117825 0.804438 -0.469479
O21   O     O_R   0.568490 0.314741 0.890520 -0.684694
O22   O     O_2   0.576709 0.935146 0.705641 -0.468776
O23   O     O_R   0.489720 0.254590 0.564810 -0.465063
O24   O     O_R   0.513800 0.997310 0.577368 -0.680940
O25   O     O_2   0.646467 0.882793 0.242609 -0.528852
O26   O     O_R   0.625792 0.739369 0.133449 -0.683959
O27   O     O_R   0.725220 0.304230 0.585080 -0.487665
O28   O     O_3   0.500010 0.500010 0.500020 -0.294357
O29   O     O_R   0.171830 0.913880 0.057510 -0.515380
O30   O     O_R   0.940690 0.186050 0.054730 -0.513130
O31   O     O_R   0.920470 0.405720 0.075010 -0.510664
O32   O     O_R   0.196690 0.370460 0.084120 -0.502773

loop_
_geom_bond_atom_site_label_1
_geom_bond_atom_site_label_2
_ccdc_geom_bond_type
C11   C18   S    
C9    C45   S    
Cr2   O28   S    
C34   C37   S    
C1    O4    A    
C41   C42   S    
C13   C32   S    
C35   C36   T    
C40   O26   S    
Cr5   O11   S    
C7    C8    S    
C4    O14   A    
C15   C19   S    
C34   C41   S    
C12   C23   S    
C23   C42   S    
C16   O1    A    
Cr2   O12   S    
Cr4   O11   S    
Cr6   O2    S    
C12   C43   S    
C3    C7    S    
C2    H4    S    
C42   H2    S    
C40   O25   D    
C5    C6    S    
C39   O24   S    
H9    N1    S    
C31   O10   A    
Cr4   O5    S    
C25   C44   S    
C18   C19   S    
Cr2   O19   S    
C12   C37   S    
C5    H5    S    
C14   C39   S    
H13   O26   S    
C8    C9    S    
Cr5   O32   S    
Cr3   O15   S    
H11   N2    S    
C8    H15   S    
C34   H19   S    
H8    N1    S    
C41   H20   S    
C4    C35   S    
C16   O16   A    
C22   C28   S    
C13   C14   S    
H7    O24   S    
C6    C9    S    
C26   O32   A    
C12   H1    S    
C11   H16   S    
C26   O2    A    
C32   O12   A    
C2    C45   S    
C18   N1    S    
C40   C45   S    
Cr3   O27   S    
Cr1   O28   S    
Cr2   O13   S    
Cr6   O3    S    
C10   C14   S    
Cr4   O29   S    
C25   O30   A    
Cr1   O18   S    
H10   N2    S    
C21   C29   S    
Cr4   O6    S    
C1    C3    S    
Cr2   O14   S    
C6    H12   S    
C30   O9    A    
C43   C44   S    
C7    H14   S    
C43   H3    S    
C29   O6    A    
C10   C19   S    
C23   C34   S    
C38   O21   S    
C17   C18   S    
C28   O19   A    
Cr6   O9    S    
C39   O22   D    
C4    O15   A    
C20   C33   S    
C26   C36   S    
C32   O23   A    
C16   C23   S    
H6    O21   S    
C41   C44   S    
C22   C24   T    
C42   C43   S    
C27   O3    A    
Cr6   O10   S    
Cr1   O1    S    
C9    C27   S    
C31   O5    A    
C1    O13   A    
C15   C17   S    
C37   N2    S    
C17   H18   S    
Cr3   O23   S    
C2    C8    S    
C3    C5    S    
Cr5   O7    S    
Cr4   O30   S    
Cr1   O4    S    
C25   O31   A    
C6    C7    S    
Cr1   O17   S    
C27   O29   A    
C15   H17   S    
C13   C17   S    
Cr3   O16   S    
C33   O27   A    
C30   O8    A    
C2    C3    S    
C24   C31   S    
C33   O17   A    
C11   C13   S    
C29   O7    A    
C5    C45   S    
C37   C44   S    
Cr3   O28   S    
C38   O20   D    
C10   C38   S    
C28   O18   A    
C10   C11   S    
C20   C21   T    
C14   C15   S    
C19   C30   S    
Cr6   O11   S    
Cr5   O31   S    
Cr5   O8    S    
