data_mof_unit_54410.cif
_audit_creation_date              2012-12-10T19:00:16-0500
_audit_creation_method            fapswitch 2.2
_symmetry_space_group_name_H-M    P1
_symmetry_Int_Tables_number       1
_space_group_crystal_system       triclinic
_cell_length_a                    9.533145
_cell_length_b                    10.826881
_cell_length_c                    13.411276
_cell_angle_alpha                 90.368295
_cell_angle_beta                  72.36127
_cell_angle_gamma                 90.254422
_cell_volume                      1319.12439352

loop_
_atom_site_label
_atom_site_type_symbol
_atom_type_description
_atom_site_fract_x
_atom_site_fract_y
_atom_site_fract_z
_atom_type_partial_charge
C1    C     C_R   0.499659 0.737702 0.501727 0.830792
C2    C     C_R   0.435583 0.486913 0.979239 0.096725
C3    C     C_R   0.469515 0.454659 0.872044 0.076616
C4    C     C_R   0.543704 0.469888 0.031134 0.040334
C5    C     C_R   0.667832 0.394627 0.982784 0.129603
C6    C     C_R   0.690721 0.350024 0.881399 -0.214034
C7    C     C_R   0.594717 0.381346 0.825994 -0.187109
C8    C     C_R   0.534424 0.525056 0.128857 0.057623
C9    C     C_R   0.741478 0.401557 0.139817 -0.239697
C10   C     C_R   0.373145 0.491963 0.815478 -0.102150
C11   C     C_R   0.365937 0.935629 0.527861 0.067937
C12   C     C_R   0.421136 0.494876 0.700304 0.786170
C13   C     C_R   0.496890 0.870736 0.512233 -0.099185
C14   C     C_R   0.624272 0.936320 0.512742 -0.190117
C15   C     C_R   0.623599 0.065042 0.513046 -0.187402
C16   C     C_R   0.495308 0.129207 0.513383 -0.145404
C17   C     C_R   0.364337 0.062690 0.529754 0.143668
C18   C     C_3   0.247824 0.067901 0.476248 0.081205
C19   C     C_3   0.251873 0.927432 0.472624 -0.462872
C20   C     C_R   0.948356 0.410608 0.446997 0.304036
C21   C     C_R   0.900221 0.580847 0.560327 -0.065499
C22   C     C_R   0.049198 0.580791 0.560396 -0.071134
C23   C     C_R   0.498891 0.262241 0.502276 0.799162
C24   C     C_R   0.095790 0.410736 0.446897 0.348216
C25   C     C_3   0.150124 0.384509 0.332410 -0.507995
C26   C     C_3   0.991015 0.384536 0.332475 -0.533471
C27   C     C_R   0.578791 0.499058 0.299899 0.837452
C28   C     C_R   0.767072 0.363190 0.036876 -0.182846
C29   C     C_R   0.623786 0.480438 0.186687 -0.073740
C30   C     C_R   0.232545 0.536450 0.870108 -0.177058
C31   C     C_R   0.189887 0.547860 0.978384 -0.137278
C32   C     C_R   0.290449 0.524411 0.032489 -0.137407
Cu1   Cu    Cu3+1 0.359330 0.500020 0.500010 0.976265
Cu2   Cu    Cu3+1 0.640670 0.499980 0.499990 0.951668
H1    H     H_    0.811386 0.366988 0.183583 0.157273
H2    H     H_    0.725409 0.113469 0.507305 0.196803
H3    H     H_    0.285890 0.111864 0.397931 0.127228
H4    H     H_    0.149344 0.882170 0.521366 0.223332
H5    H     H_    0.296275 0.889566 0.391943 0.206478
H6    H     H_    0.824520 0.647909 0.607471 0.149577
H7    H     H_    0.085396 0.647711 0.607647 0.140386
H8    H     H_    0.214874 0.462149 0.287342 0.227103
H9    H     H_    0.203153 0.292458 0.314775 0.203065
H10   H     H_    0.965613 0.462268 0.287062 0.217738
H11   H     H_    0.784074 0.291348 0.844322 0.172552
H12   H     H_    0.951925 0.292298 0.315242 0.204651
H13   H     H_    0.860381 0.303898 0.001283 0.153434
H14   H     H_    0.155444 0.562852 0.829090 0.159564
H15   H     H_    0.251248 0.530785 0.116566 0.154760
H16   H     H_    0.079394 0.577681 0.020443 0.156821
H17   H     H_    0.615696 0.340987 0.748985 0.180327
H18   H     H_    0.726278 0.888990 0.507121 0.176733
N1    N     N_R   0.852320 0.499070 0.499340 -0.197111
N2    N     N_R   0.148230 0.499110 0.499340 -0.188257
O1    O     O_R   0.381190 0.680360 0.500000 -0.573379
O2    O     O_R   0.618780 0.680320 0.499990 -0.587958
O3    O     O_R   0.323230 0.500000 0.650990 -0.575199
O4    O     O_R   0.560820 0.499960 0.650980 -0.586014
O5    O     O_R   0.381220 0.319680 0.500010 -0.560234
O6    O     O_R   0.618810 0.319640 0.500000 -0.588924
O7    O     O_R   0.439180 0.500040 0.349020 -0.568810
O8    O     O_R   0.676770 0.500000 0.349010 -0.585754
Br1   Br    Br    0.063822 0.130769 0.569429 -0.579658
I1    I     I_    0.430591 0.701023 0.176682 -0.429602

loop_
_geom_bond_atom_site_label_1
_geom_bond_atom_site_label_2
_ccdc_geom_bond_type
C25   H8    S    
Cu1   O1    S    
C2    C4    A    
C28   H13   S    
Cu2   O2    S    
C6    C7    A    
C27   O8    A    
C27   C29   S    
C5    C28   A    
C10   C30   A    
C31   C32   A    
Cu2   O6    S    
C17   C18   S    
C9    C29   A    
C30   C31   A    
C4    C8    A    
C12   O4    A    
C25   H9    S    
C2    C3    A    
C1    O1    A    
C26   H10   S    
Cu1   O5    S    
C3    C10   A    
C13   C14   A    
C21   N1    A    
C11   C13   A    
C11   C19   S    
C5    C6    A    
C21   H6    S    
C19   H5    S    
C8    I1    S    
C8    C29   A    
C10   C12   S    
C2    C32   A    
C30   H14   S    
C19   H4    S    
C18   H3    S    
Cu1   Cu2   S    
C16   C23   S    
C3    C7    A    
C22   N2    A    
C23   O6    A    
C32   H15   S    
Cu2   O4    S    
C14   H18   S    
C18   Br1   S    
C22   H7    S    
C1    C13   S    
C12   O3    A    
C31   H16   S    
C24   N2    A    
C15   C16   A    
C16   C17   A    
C15   H2    S    
Cu2   O8    S    
C24   C25   S    
Cu2   N1    S    
Cu1   O7    S    
C18   C19   S    
C7    H17   S    
Cu1   N2    S    
C9    H1    S    
C26   H12   S    
C14   C15   A    
C4    C5    A    
Cu1   O3    S    
C27   O7    A    
C23   O5    A    
C25   C26   S    
C21   C22   A    
C6    H11   S    
C1    O2    A    
C11   C17   A    
C20   C24   A    
C9    C28   A    
C20   N1    A    
C20   C26   S    
