data_mof_unit_47082.cif
_audit_creation_date              2012-12-10T16:49:26-0500
_audit_creation_method            fapswitch 2.2
_symmetry_space_group_name_H-M    P1
_symmetry_Int_Tables_number       1
_space_group_crystal_system       triclinic
_cell_length_a                    7.756839
_cell_length_b                    8.751367
_cell_length_c                    12.847793
_cell_angle_alpha                 89.873642
_cell_angle_beta                  87.959495
_cell_angle_gamma                 94.128951
_cell_volume                      869.320855628

loop_
_atom_site_label
_atom_site_type_symbol
_atom_type_description
_atom_site_fract_x
_atom_site_fract_y
_atom_site_fract_z
_atom_type_partial_charge
C1    C     C_R   0.454866 0.205962 0.497050 0.892274
C2    C     C_R   0.544765 0.793997 0.504267 0.893376
C3    C     C_R   0.466114 0.504330 0.699723 0.895920
C4    C     C_R   0.533886 0.495671 0.300277 0.897603
C5    C     C_R   0.554886 0.493974 0.189095 -0.047930
C6    C     C_R   0.445114 0.506045 0.810902 -0.046840
C7    C     C_R   0.268763 0.462718 0.967126 -0.201056
C8    C     C_R   0.731235 0.537316 0.032870 -0.200745
C9    C     C_R   0.282170 0.474659 0.859686 -0.181143
C10   C     C_R   0.717829 0.525363 0.140310 -0.181678
C11   C     C_R   0.593573 0.530632 0.868637 -0.243051
C12   C     C_R   0.406426 0.469401 0.131358 -0.244051
C13   C     C_R   0.581786 0.517463 0.975236 0.177828
C14   C     C_R   0.418212 0.482574 0.024760 0.177850
C15   C     C_2   0.431187 0.043905 0.493574 -0.287173
C16   C     C_2   0.567330 0.955920 0.510705 -0.283720
H1    H     H_    0.280636 0.442610 0.169364 0.168752
H2    H     H_    0.719361 0.557426 0.830631 0.168848
H3    H     H_    0.833122 0.544611 0.185049 0.164482
H4    H     H_    0.166878 0.455404 0.814947 0.164474
H5    H     H_    0.142971 0.436268 0.004915 0.143046
H6    H     H_    0.857027 0.563766 0.995081 0.143086
H7    H     H_    0.998447 0.612391 0.420735 0.195701
H8    H     H_    0.001583 0.387922 0.579451 0.193858
N1    N     N_2   0.054030 0.541640 0.471970 -0.169235
N2    N     N_2   0.945970 0.458360 0.528030 -0.169159
O1    O     O_R   0.609680 0.261530 0.506880 -0.588563
O2    O     O_R   0.390320 0.738470 0.493120 -0.589484
O3    O     O_R   0.323330 0.288220 0.488910 -0.630495
O4    O     O_R   0.676670 0.711780 0.511090 -0.631534
O5    O     O_R   0.619510 0.488830 0.661140 -0.619612
O6    O     O_R   0.380490 0.511170 0.338860 -0.618755
O7    O     O_R   0.333160 0.515520 0.643180 -0.625006
O8    O     O_R   0.666840 0.484480 0.356820 -0.624311
Zn1   Zn    Zn3+2 0.691200 0.482180 0.511990 0.994421
Zn2   Zn    Zn3+2 0.308800 0.517820 0.488010 0.994663
C17   C     C_2   0.252450 0.984042 0.470756 0.970013
O9    O     O_2   0.201017 0.991292 0.382140 -0.605588
O10   O     O_R   0.146851 0.915075 0.550651 -0.756479
H9    H     H_    0.038544 0.859756 0.523587 0.352401
C18   C     C_2   0.744893 0.015614 0.536158 0.968050
O11   O     O_2   0.792334 0.008930 0.625693 -0.608894
O12   O     O_R   0.854252 0.083271 0.457566 -0.753196
H10   H     H_    0.960933 0.139079 0.486275 0.351052

loop_
_geom_bond_atom_site_label_1
_geom_bond_atom_site_label_2
_ccdc_geom_bond_type
C12   H1    S    
C8    H6    S    
O12   H10   S    
C11   H2    S    
C17   O9    D    
C1    C15   S    
C11   C13   A    
C18   O11   D    
C9    H4    S    
C10   H3    S    
C2    O4    A    
C3    C6    S    
C6    C9    A    
C1    O3    A    
C5    C10   A    
C17   O10   S    
C13   C14   A    
C3    O5    A    
C18   O12   S    
O3    Zn2   S    
C4    O6    A    
O4    Zn1   S    
O6    Zn2   S    
C12   C14   A    
C4    O8    A    
H7    N1    S    
O5    Zn1   S    
C3    O7    A    
N1    Zn2   S    
C15   C16   D    
C8    C13   A    
C7    C9    A    
N2    Zn1   S    
C6    C11   A    
O7    Zn2   S    
C2    C16   S    
O2    Zn2   S    
C5    C12   A    
C8    C10   A    
O8    Zn1   S    
O10   H9    S    
C1    O1    A    
C15   C17   S    
C2    O2    A    
O1    Zn1   S    
N1    N2    D    
C7    H5    S    
C16   C18   S    
C7    C14   A    
H8    N2    S    
C4    C5    S    
