data_mof_unit_56210.cif
_audit_creation_date              2012-12-10T17:43:19-0500
_audit_creation_method            fapswitch 2.2
_symmetry_space_group_name_H-M    P1
_symmetry_Int_Tables_number       1
_space_group_crystal_system       triclinic
_cell_length_a                    15.657928
_cell_length_b                    14.134449
_cell_length_c                    11.262929
_cell_angle_alpha                 89.585742
_cell_angle_beta                  89.361453
_cell_angle_gamma                 86.430528
_cell_volume                      2487.6249508

loop_
_atom_site_label
_atom_site_type_symbol
_atom_type_description
_atom_site_fract_x
_atom_site_fract_y
_atom_site_fract_z
_atom_type_partial_charge
C1    C     C_R   0.328046 0.503299 0.505076 0.917221
C2    C     C_R   0.672495 0.497757 0.494697 0.852050
C3    C     C_R   0.957348 0.492642 0.494649 -0.051190
C4    C     C_R   0.048253 0.497834 0.497075 -0.059024
C5    C     C_R   0.914718 0.495449 0.386685 -0.048135
C6    C     C_R   0.091193 0.489569 0.605724 -0.046763
C7    C     C_R   0.953278 0.516884 0.703661 0.389967
C8    C     C_R   0.041620 0.553434 0.295490 0.385262
C9    C     C_R   0.039739 0.488770 0.709871 0.236259
C10   C     C_R   0.966109 0.507144 0.284208 0.237785
C11   C     C_R   0.425369 0.803325 0.516123 0.484818
C12   C     C_R   0.575140 0.196553 0.510016 0.487827
C13   C     C_R   0.574174 0.793689 0.481716 0.490921
C14   C     C_R   0.424616 0.207524 0.484612 0.498026
C15   C     C_R   0.575608 0.892723 0.508563 -0.159458
C16   C     C_R   0.422907 0.106923 0.504975 -0.163002
C17   C     C_R   0.423567 0.903543 0.493042 -0.163113
C18   C     C_R   0.576302 0.095664 0.493963 -0.166964
C19   C     C_R   0.499511 0.949054 0.501397 -0.040344
C20   C     C_R   0.499557 0.050820 0.500927 -0.041762
C21   C     C_R   0.652076 0.940044 0.517639 0.300625
C22   C     C_R   0.346205 0.058355 0.510131 0.299610
C23   C     C_R   0.347095 0.961814 0.482215 0.300296
C24   C     C_R   0.652775 0.036050 0.486674 0.308370
C25   C     C_R   0.498190 0.498935 0.259758 0.989932
C26   C     C_R   0.502345 0.498698 0.740860 0.954827
C27   C     C_3   0.473974 0.577235 0.038989 0.213061
C28   C     C_3   0.529990 0.405213 0.961623 0.296426
C29   C     C_3   0.557205 0.555416 0.965437 0.245508
C30   C     C_3   0.448464 0.425144 0.037477 0.213603
C31   C     C_3   0.425684 0.511677 0.956290 0.151139
C32   C     C_3   0.579183 0.467252 0.047506 0.224853
C33   C     C_3   0.507167 0.493062 0.879164 -0.360233
C34   C     C_3   0.496892 0.491519 0.122752 -0.457362
C35   C     C_R   0.823849 0.508495 0.385827 0.319588
C36   C     C_R   0.177977 0.511958 0.609330 0.287034
C37   C     C_R   0.772518 0.493519 0.492391 -0.164560
C38   C     C_R   0.228997 0.511745 0.503549 -0.193249
C39   C     C_R   0.820838 0.482766 0.600459 0.253486
C40   C     C_R   0.182826 0.534550 0.397724 0.345614
C41   C     C_R   0.909796 0.496080 0.600162 -0.108488
C42   C     C_R   0.092234 0.527520 0.394707 -0.150908
Cu1   Cu    Cu3+1 0.500000 0.597420 0.500000 1.124112
Cu2   Cu    Cu3+1 0.500000 0.402580 0.500000 1.186379
N1    N     N_R   0.500000 0.743810 0.500000 -0.290873
N2    N     N_R   0.500000 0.256190 0.500000 -0.298910
O1    O     O_R   0.370260 0.582280 0.500030 -0.567047
O2    O     O_R   0.629740 0.417720 0.499970 -0.485891
O3    O     O_R   0.629740 0.582280 0.499970 -0.596651
O4    O     O_R   0.370260 0.417720 0.500030 -0.514925
O5    O     O_R   0.499980 0.582260 0.316850 -0.557575
O6    O     O_R   0.500020 0.417740 0.683150 -0.512502
O7    O     O_R   0.500020 0.582260 0.683150 -0.558948
O8    O     O_R   0.499980 0.417740 0.316850 -0.511872
S1    S     S_3+6 0.320972 0.531668 0.900019 0.105501
O9    O     O_2   0.297734 0.635855 0.893618 -0.107694
O10   O     O_2   0.319797 0.487185 0.779473 -0.371825
O11   O     O_3   0.246953 0.483946 0.984574 -0.393541
H1    H     H_    0.238142 0.422780 0.946048 0.417544
S2    S     S_3+6 0.674855 0.417009 0.117387 0.133537
O12   O     O_2   0.751876 0.454205 0.057952 -0.115316
O13   O     O_2   0.671603 0.442558 0.245838 -0.360580
O14   O     O_3   0.685732 0.298299 0.115210 -0.410296
H2    H     H_    0.739606 0.281505 0.157899 0.399942
S3    S     S_3+6 0.431471 0.696802 0.069567 0.167274
O15   O     O_2   0.337857 0.698537 0.098108 -0.156921
O16   O     O_2   0.475350 0.739842 0.171533 -0.184668
O17   O     O_3   0.444762 0.763960 0.947730 -0.404473
H3    H     H_    0.416846 0.826784 0.967386 0.395014
S4    S     S_3+6 0.569095 0.287596 0.915079 0.190587
O18   O     O_2   0.517548 0.255702 0.812789 -0.228832
O19   O     O_2   0.661538 0.290592 0.880310 -0.105234
O20   O     O_3   0.564757 0.205319 0.022816 -0.415051
H4    H     H_    0.587032 0.145323 0.985613 0.387007
S5    S     S_3+6 0.628284 0.647247 0.929097 0.144429
O21   O     O_2   0.718663 0.606612 0.920592 -0.150209
O22   O     O_2   0.603291 0.693064 0.812784 -0.245112
O23   O     O_3   0.624365 0.731000 0.034151 -0.388874
H5    H     H_    0.666069 0.776876 0.007732 0.401350
S6    S     S_3+6 0.380794 0.325802 0.056862 0.140910
O24   O     O_2   0.426848 0.247246 0.125215 -0.155115
O25   O     O_2   0.297968 0.351268 0.120436 -0.197097
O26   O     O_3   0.357615 0.285143 0.921778 -0.474694
H6    H     H_    0.326714 0.227181 0.937211 0.395897
Br1   Br    Br    0.787772 0.585032 0.251385 -0.190618
Br2   Br    Br    0.179885 0.624845 0.701786 -0.160960
S7    S     S_3+6 0.779655 0.432974 0.732814 0.134493
O27   O     O_2   0.793060 0.327487 0.723435 -0.166949
O28   O     O_2   0.825145 0.459251 0.842753 -0.146486
O29   O     O_3   0.676763 0.466905 0.750434 -0.498121
H7    H     H_    0.673272 0.534352 0.726276 0.349242
S8    S     S_3+6 0.238434 0.580122 0.276011 0.128407
O30   O     O_2   0.186296 0.588756 0.165072 -0.156000
O31   O     O_2   0.267779 0.675545 0.308451 -0.150741
O32   O     O_3   0.323182 0.507625 0.249342 -0.534115
H8    H     H_    0.335496 0.521153 0.165602 0.391266
S9    S     S_3+6 0.919942 0.622904 0.780277 0.155652
O33   O     O_2   0.832088 0.658741 0.741854 -0.216810
O34   O     O_2   0.920077 0.606082 0.912166 -0.130359
O35   O     O_3   0.988659 0.706256 0.747718 -0.440174
H9    H     H_    0.967998 0.762300 0.794582 0.410248
S10   S     S_3+6 0.026731 0.676509 0.261153 0.154954
O36   O     O_2   0.094763 0.732405 0.315203 -0.163551
O37   O     O_2   0.027267 0.689851 0.128613 -0.152413
O38   O     O_3   0.931592 0.718680 0.315741 -0.458277
H10   H     H_    0.923779 0.784251 0.284351 0.414173
Br3   Br    Br    0.081614 0.454596 0.862685 -0.227989
Br4   Br    Br    0.945010 0.448210 0.135622 -0.188909
S11   S     S_3+6 0.341526 0.772318 0.610808 0.124494
O39   O     O_2   0.301754 0.856685 0.676222 -0.202927
O40   O     O_2   0.273816 0.731783 0.537159 -0.215830
O41   O     O_3   0.379140 0.697726 0.714124 -0.422077
H11   H     H_    0.354069 0.638077 0.694459 0.393449
S12   S     S_3+6 0.665536 0.233951 0.582127 0.123408
O42   O     O_2   0.634585 0.309751 0.664454 -0.143720
O43   O     O_2   0.708332 0.155817 0.655931 -0.236493
O44   O     O_3   0.736328 0.274387 0.482926 -0.502436
H12   H     H_    0.793716 0.257447 0.515668 0.396206
S13   S     S_3+6 0.654768 0.758176 0.376249 0.118238
O45   O     O_2   0.686892 0.842561 0.311430 -0.213039
O46   O     O_2   0.729230 0.710034 0.440144 -0.235663
O47   O     O_3   0.617544 0.690232 0.271223 -0.406393
H13   H     H_    0.632867 0.625115 0.296262 0.381132
S14   S     S_3+6 0.339126 0.252258 0.392320 0.110919
O48   O     O_2   0.369908 0.329117 0.316191 -0.179490
O49   O     O_2   0.310461 0.175770 0.312394 -0.228363
O50   O     O_3   0.254280 0.295849 0.472108 -0.500564
H14   H     H_    0.209827 0.313630 0.412690 0.379191
Br5   Br    Br    0.754679 0.879882 0.584442 -0.195033
Br6   Br    Br    0.243349 0.111835 0.585252 -0.233897
Br7   Br    Br    0.245627 0.917265 0.411105 -0.140317
Br8   Br    Br    0.753507 0.072869 0.402418 -0.265067

loop_
_geom_bond_atom_site_label_1
_geom_bond_atom_site_label_2
_ccdc_geom_bond_type
C38   C40   A    
S7    O27   D    
C27   C29   S    
O20   H4    S    
C10   Br4   S    
C19   C20   A    
C39   S7    S    
S1    O9    D    
C6    C9    A    
S12   O42   D    
C39   C41   A    
C15   C19   A    
C17   C23   A    
S2    O14   S    
C18   C24   A    
C35   C37   A    
C8    C42   A    
C29   C32   S    
S11   O40   D    
C30   C31   S    
C11   S11   S    
C29   C33   S    
C8    S10   S    
S10   O38   S    
S2    O13   D    
O35   H9    S    
S9    O34   D    
S7    O29   S    
Cu1   O7    S    
C3    C41   A    
O32   H8    S    
O17   H3    S    
S3    O16   D    
C31   C33   S    
S4    O18   D    
C1    O4    A    
C25   C34   S    
C30   S6    S    
Cu2   O6    S    
C40   C42   A    
C22   Br6   S    
S6    O26   S    
O41   H11   S    
C13   S13   S    
Cu2   N2    S    
S9    O33   D    
C12   S12   S    
S13   O46   D    
C27   C34   S    
C28   S4    S    
C14   S14   S    
C30   C34   S    
C27   C31   S    
C28   C32   S    
C25   O8    A    
C4    C6    A    
S11   O41   S    
O23   H5    S    
C1    O1    A    
C2    O2    A    
O11   H1    S    
S8    O32   S    
S2    O12   D    
C14   N2    A    
C32   C34   S    
S5    O21   D    
C25   O5    A    
C27   S3    S    
C2    O3    A    
C26   O6    A    
S5    O22   D    
C24   Br8   S    
C26   C33   S    
O26   H6    S    
C16   C20   A    
S3    O17   S    
S4    O20   S    
S8    O31   D    
C23   Br7   S    
C40   S8    S    
S10   O37   D    
Cu1   N1    S    
C21   Br5   S    
C1    C38   S    
S14   O50   S    
C12   N2    A    
C28   C33   S    
S1    O10   D    
Cu1   Cu2   S    
C14   C16   A    
S1    O11   S    
C32   S2    S    
C3    C4    A    
C26   O7    A    
S9    O35   S    
S14   O49   D    
S13   O47   S    
Cu2   O4    S    
C7    C9    A    
C11   C17   A    
C16   C22   A    
C7    S9    S    
Cu1   O3    S    
S6    O24   D    
C3    C5    A    
S12   O43   D    
S13   O45   D    
C29   S5    S    
C9    Br3   S    
O38   H10   S    
C36   Br2   S    
C13   C15   A    
C5    C10   A    
C37   C39   A    
Cu2   O2    S    
S11   O39   D    
C36   C38   A    
C13   N1    A    
C35   Br1   S    
C2    C37   S    
Cu1   O5    S    
O29   H7    S    
C4    C42   A    
C5    C35   A    
C28   C30   S    
S8    O30   D    
C17   C19   A    
S6    O25   D    
C6    C36   A    
C18   C20   A    
C7    C41   A    
S10   O36   D    
S5    O23   S    
S12   O44   S    
C11   N1    A    
O14   H2    S    
Cu2   O8    S    
C15   C21   A    
C8    C10   A    
S3    O15   D    
C21   C24   A    
C12   C18   A    
S7    O28   D    
C22   C23   A    
S4    O19   D    
C31   S1    S    
O47   H13   S    
O44   H12   S    
Cu1   O1    S    
O50   H14   S    
S14   O48   D    
