data_mof_unit_5993.cif
_audit_creation_date              2012-12-10T19:00:11-0500
_audit_creation_method            fapswitch 2.2
_symmetry_space_group_name_H-M    P1
_symmetry_Int_Tables_number       1
_space_group_crystal_system       triclinic
_cell_length_a                    9.585589
_cell_length_b                    10.829693
_cell_length_c                    13.389805
_cell_angle_alpha                 91.288972
_cell_angle_beta                  72.84556
_cell_angle_gamma                 91.667166
_cell_volume                      1327.44313749

loop_
_atom_site_label
_atom_site_type_symbol
_atom_type_description
_atom_site_fract_x
_atom_site_fract_y
_atom_site_fract_z
_atom_type_partial_charge
C1    C     C_R   0.501243 0.737299 0.501128 0.808891
C2    C     C_R   0.428938 0.485776 0.980564 0.077231
C3    C     C_R   0.458841 0.450406 0.873915 0.084155
C4    C     C_R   0.532907 0.459553 0.033500 0.068738
C5    C     C_R   0.655100 0.386363 0.983435 0.164726
C6    C     C_R   0.670559 0.337652 0.883551 -0.268688
C7    C     C_R   0.573482 0.368787 0.829485 -0.231337
C8    C     C_R   0.520338 0.505657 0.134317 -0.256588
C9    C     C_R   0.741173 0.404459 0.136485 -0.201881
C10   C     C_R   0.372438 0.497431 0.814764 -0.096017
C11   C     C_R   0.378675 0.933588 0.561278 0.121408
C12   C     C_R   0.421381 0.495939 0.699954 0.787748
C13   C     C_R   0.503546 0.870358 0.506515 -0.074268
C14   C     C_R   0.631063 0.937517 0.455975 -0.230727
C15   C     C_R   0.628575 0.065872 0.452952 -0.230689
C16   C     C_R   0.498217 0.128318 0.499165 -0.088457
C17   C     C_R   0.375293 0.060812 0.556298 0.115403
C18   C     C_3   0.224425 0.054206 0.545452 -0.488216
C19   C     C_3   0.225968 0.915806 0.556645 -0.469412
C20   C     C_R   0.954859 0.435349 0.425333 0.241509
C21   C     C_R   0.903899 0.576869 0.565310 0.049145
C22   C     C_R   0.051724 0.574570 0.565744 -0.123603
C23   C     C_R   0.499036 0.262225 0.498550 0.786665
C24   C     C_R   0.102243 0.436210 0.424880 0.259087
C25   C     C_3   0.111350 0.300908 0.406032 -0.511327
C26   C     C_3   0.953556 0.299642 0.405948 -0.513805
C27   C     C_R   0.577865 0.496380 0.300160 0.792600
C28   C     C_R   0.759452 0.361314 0.034626 -0.196989
C29   C     C_R   0.619183 0.474084 0.187309 -0.047851
C30   C     C_R   0.243062 0.558509 0.865700 -0.185942
C31   C     C_R   0.203626 0.579318 0.972832 -0.152652
C32   C     C_R   0.296390 0.546081 0.029753 -0.194546
Cu1   Cu    Cu3+1 0.359330 0.500020 0.500010 0.933793
Cu2   Cu    Cu3+1 0.640670 0.499980 0.499990 0.940631
H1    H     H_    0.818090 0.378435 0.177063 0.146060
H2    H     H_    0.726492 0.115491 0.409871 0.154457
H3    H     H_    0.142951 0.100560 0.611279 0.196431
H4    H     H_    0.223752 0.077981 0.465442 0.202717
H5    H     H_    0.150956 0.882097 0.631744 0.193277
H6    H     H_    0.217914 0.864023 0.485799 0.210024
H7    H     H_    0.089107 0.633273 0.619705 0.142708
H8    H     H_    0.189569 0.276016 0.329296 0.198526
H9    H     H_    0.125111 0.255078 0.475119 0.216305
H10   H     H_    0.939065 0.275725 0.328401 0.186316
H11   H     H_    0.760156 0.277724 0.845949 0.146342
H12   H     H_    0.880928 0.248421 0.473219 0.217464
H13   H     H_    0.852995 0.305546 0.996884 0.136187
H14   H     H_    0.432982 0.565339 0.174773 0.142174
H15   H     H_    0.173779 0.593218 0.822201 0.147777
H16   H     H_    0.259430 0.566327 0.112405 0.126774
H17   H     H_    0.102825 0.625427 0.011534 0.142919
H18   H     H_    0.589884 0.328637 0.752316 0.167508
H19   H     H_    0.730014 0.890792 0.414020 0.150472
N1    N     N_R   0.852320 0.499070 0.499340 -0.203030
N2    N     N_R   0.148230 0.499110 0.499340 -0.190931
O1    O     O_R   0.381190 0.680360 0.500000 -0.587791
O2    O     O_R   0.618780 0.680320 0.499990 -0.577090
O3    O     O_R   0.323230 0.500000 0.650990 -0.583254
O4    O     O_R   0.560820 0.499960 0.650980 -0.572480
O5    O     O_R   0.381220 0.319680 0.500010 -0.576313
O6    O     O_R   0.618810 0.319640 0.500000 -0.591492
O7    O     O_R   0.439180 0.500040 0.349020 -0.579080
O8    O     O_R   0.676770 0.500000 0.349010 -0.584760
C33   C     C_R   0.812636 0.668172 0.636544 0.167364
C34   C     C_R   0.810145 0.789892 0.603364 -0.127972
C35   C     C_R   0.736302 0.880700 0.673534 -0.147959
C36   C     C_R   0.668935 0.851486 0.778108 -0.131682
C37   C     C_R   0.679299 0.732526 0.813181 -0.142039
C38   C     C_R   0.754072 0.642184 0.743068 -0.143217
H20   H     H_    0.866304 0.814301 0.523356 0.117250
H21   H     H_    0.732673 0.973956 0.647129 0.142524
H22   H     H_    0.611967 0.921765 0.832422 0.131181
H23   H     H_    0.631860 0.710951 0.894938 0.141756
H24   H     H_    0.769100 0.552753 0.771683 0.145846

loop_
_geom_bond_atom_site_label_1
_geom_bond_atom_site_label_2
_ccdc_geom_bond_type
Cu1   N2    S    
C28   H13   S    
Cu1   O3    S    
C6    H11   S    
C27   C29   S    
C4    C8    A    
C25   H9    S    
C26   H10   S    
C24   N2    A    
C11   C19   S    
C5    C6    A    
C8    C29   A    
C19   H5    S    
C18   H3    S    
C7    H18   S    
C18   C19   S    
C3    C7    A    
C30   C31   A    
C22   H7    S    
C16   C17   A    
C15   C16   A    
C2    C32   A    
C36   H22   S    
C21   C33   S    
C12   O4    A    
C31   C32   A    
C37   C38   A    
Cu2   O2    S    
C9    C29   A    
C12   O3    A    
C37   H23   S    
Cu1   O1    S    
C35   C36   A    
C21   C22   A    
Cu1   Cu2   S    
C23   O5    A    
C36   C37   A    
C20   C24   A    
C24   C25   S    
C20   N1    A    
Cu1   O7    S    
C25   C26   S    
Cu2   O6    S    
C2    C4    A    
C8    H14   S    
C27   O7    A    
C1    O2    A    
C5    C28   A    
C10   C30   A    
C35   H21   S    
C17   C18   S    
C38   H24   S    
C33   C38   A    
C32   H16   S    
C6    C7    A    
C10   C12   S    
C30   H15   S    
Cu2   N1    S    
C16   C23   S    
Cu2   O4    S    
C1    C13   S    
C15   H2    S    
C11   C17   A    
C1    O1    A    
C31   H17   S    
C4    C5    A    
C25   H8    S    
C22   N2    A    
Cu1   O5    S    
C33   C34   A    
C2    C3    A    
C18   H4    S    
C3    C10   A    
C11   C13   A    
C21   N1    A    
C20   C26   S    
Cu2   O8    S    
C19   H6    S    
C26   H12   S    
C23   O6    A    
C14   H19   S    
C34   C35   A    
C9    H1    S    
C14   C15   A    
C27   O8    A    
C13   C14   A    
C34   H20   S    
C9    C28   A    
