data_mof_unit_41702.cif
_audit_creation_date              2012-12-11T14:58:02-0500
_audit_creation_method            fapswitch 2.2
_symmetry_space_group_name_H-M    P1
_symmetry_Int_Tables_number       1
_space_group_crystal_system       triclinic
_cell_length_a                    6.944048
_cell_length_b                    16.789097
_cell_length_c                    16.964877
_cell_angle_alpha                 100.376107
_cell_angle_beta                  89.475001
_cell_angle_gamma                 91.314712
_cell_volume                      1944.95638182

loop_
_atom_site_label
_atom_site_type_symbol
_atom_type_description
_atom_site_fract_x
_atom_site_fract_y
_atom_site_fract_z
_atom_type_partial_charge
O1    O     O_R   0.506180 0.438940 0.579430 -0.544103
O2    O     O_R   0.170520 0.406230 0.413590 -0.544531
O3    O     O_R   0.005180 0.561060 0.420570 -0.545975
C1    C     C_R   0.339267 0.383500 0.384938 0.674112
O4    O     O_R   0.176140 0.429310 0.578370 -0.516876
O5    O     O_R   0.010830 0.584300 0.586530 -0.514903
C2    C     C_R   0.343579 0.412420 0.604167 0.794071
O6    O     O_R   0.500520 0.415700 0.413470 -0.540208
O7    O     O_3   0.340830 0.550820 0.502480 -0.372943
V1    V     V_3+5 0.064040 0.490570 0.499540 1.486740
O8    O     O_R   0.681400 0.593770 0.586410 -0.542186
C3    C     C_R   0.850791 0.615281 0.615895 0.810966
O9    O     O_R   0.675790 0.570690 0.421630 -0.547153
C4    C     C_R   0.847415 0.585797 0.394427 0.678347
V2    V     V_3+5 0.564650 0.509430 0.500460 1.444865
O10   O     O_3   0.837730 0.449180 0.497520 -0.369266
C5    C     C_R   0.892423 0.863421 0.168242 -0.075671
C6    C     C_R   0.873899 0.636823 0.331868 -0.064008
C7    C     C_R   0.081604 0.677498 0.228107 -0.172764
C8    C     C_R   0.036389 0.624807 0.280920 -0.163638
C9    C     C_R   0.753990 0.702057 0.327413 -0.252200
C10   C     C_R   0.800019 0.756007 0.274769 0.145943
C11   C     C_R   0.965932 0.743991 0.225040 0.130080
C12   C     C_R   0.012170 0.798070 0.172546 -0.155035
C13   C     C_R   0.729541 0.875211 0.218957 -0.181318
C14   C     C_R   0.684171 0.822417 0.271626 -0.190844
H1    H     H_    0.136386 0.787579 0.133167 0.157046
H2    H     H_    0.634565 0.925132 0.217041 0.120593
H3    H     H_    0.208410 0.666667 0.190307 0.132091
H4    H     H_    0.557066 0.833113 0.309262 0.118060
H5    H     H_    0.131254 0.574846 0.282813 0.123662
H6    H     H_    0.629866 0.712590 0.366842 0.121888
C15   C     C_R   0.873714 0.908831 0.723742 -0.162145
C16   C     C_R   0.851868 0.923919 0.646274 -0.116356
C17   C     C_R   0.834117 0.859881 0.582216 -0.111879
C18   C     C_R   0.838064 0.780356 0.595221 -0.145219
C19   C     C_R   0.859273 0.762998 0.673443 0.062504
C20   C     C_R   0.877505 0.828552 0.738916 0.058128
C21   C     C_R   0.864004 0.681938 0.686475 -0.132759
C22   C     C_R   0.885274 0.665607 0.766052 -0.094649
C23   C     C_R   0.901479 0.732307 0.831896 -0.161792
C24   C     C_R   0.899806 0.813466 0.817756 -0.128487
C25   C     C_R   0.889157 0.584546 0.782247 0.470777
C26   C     C_R   0.913117 0.572637 0.861783 -0.315734
C27   C     C_R   0.921387 0.637146 0.925269 0.379862
C28   C     C_R   0.918610 0.715969 0.910896 0.507135
H7    H     H_    0.887791 0.960918 0.771408 0.088477
H8    H     H_    0.848997 0.985665 0.635932 0.110586
H9    H     H_    0.817527 0.871812 0.522041 0.111751
H10   H     H_    0.824376 0.732883 0.543097 0.082764
H11   H     H_    0.928426 0.512767 0.875649 0.175049
H12   H     H_    0.533535 0.488978 0.144143 0.107982
C29   C     C_R   0.259602 0.216497 0.400493 -0.142885
C30   C     C_R   0.228536 0.136748 0.410907 -0.122723
C31   C     C_R   0.257151 0.073142 0.347399 -0.126597
C32   C     C_R   0.317548 0.088749 0.273007 -0.146871
C33   C     C_R   0.349765 0.169089 0.260382 0.071528
C34   C     C_R   0.319595 0.234356 0.325533 0.069376
C35   C     C_R   0.413741 0.184706 0.184726 -0.183171
C36   C     C_R   0.447131 0.265862 0.174450 0.068721
C37   C     C_R   0.416975 0.331132 0.239612 0.069592
C38   C     C_R   0.352897 0.315496 0.315258 -0.180121
C39   C     C_R   0.507217 0.283744 0.099503 -0.143847
C40   C     C_R   0.538421 0.363515 0.089114 -0.117554
C41   C     C_R   0.509803 0.427112 0.152631 -0.114496
C42   C     C_R   0.449309 0.411481 0.227012 -0.140958
H13   H     H_    0.236486 0.263772 0.451902 0.095349
H14   H     H_    0.182644 0.124254 0.468703 0.113791
H15   H     H_    0.233459 0.011278 0.355897 0.112397
H16   H     H_    0.340380 0.037081 0.225884 0.093643
H17   H     H_    0.530318 0.236460 0.048098 0.100218
H18   H     H_    0.584415 0.376046 0.031339 0.114281
H19   H     H_    0.426505 0.463133 0.274156 0.097847
C43   C     C_R   0.418825 0.137600 0.832210 -0.049285
C44   C     C_R   0.348037 0.361379 0.667196 -0.187391
C45   C     C_R   0.281404 0.344587 0.804802 -0.293887
C46   C     C_R   0.284838 0.392658 0.745274 0.592433
C47   C     C_R   0.418159 0.282010 0.650556 -0.366428
C48   C     C_R   0.419412 0.233745 0.710803 0.166634
C49   C     C_R   0.346838 0.264813 0.788222 0.077123
C50   C     C_R   0.344380 0.216153 0.848067 -0.204940
C51   C     C_R   0.494705 0.108035 0.755793 -0.178121
C52   C     C_R   0.492988 0.155154 0.695382 -0.153294
H20   H     H_    0.288404 0.239821 0.907332 0.106907
H21   H     H_    0.553499 0.047860 0.742632 0.114054
H22   H     H_    0.230769 0.370363 0.864347 0.147003
H23   H     H_    0.550540 0.130302 0.636752 0.111833
H24   H     H_    0.471143 0.257991 0.590891 0.136636
O11   O     O_R   0.265840 0.084300 0.086750 -0.541678
O12   O     O_R   0.589750 0.070740 0.921690 -0.545977
O13   O     O_R   0.755020 0.915730 0.913400 -0.535582
C53   C     C_R   0.422537 0.086934 0.895409 0.678612
O14   O     O_R   0.595830 0.093740 0.086480 -0.543424
O15   O     O_R   0.761150 0.938890 0.079360 -0.536452
C54   C     C_R   0.427158 0.116647 0.115071 0.682241
O16   O     O_R   0.259710 0.061140 0.920790 -0.540268
O17   O     O_3   0.425260 0.949200 0.997610 -0.360948
V3    V     V_3+5 0.702060 0.009430 0.000450 1.443288
O18   O     O_R   0.090530 0.929220 0.078150 -0.532773
C55   C     C_R   0.919075 0.914769 0.105965 0.814039
O19   O     O_R   0.084440 0.906220 0.913360 -0.523478
C56   C     C_R   0.914510 0.883374 0.885203 0.832798
V4    V     V_3+5 0.201450 0.990520 0.999290 1.469267
O20   O     O_3   0.928380 0.050800 0.002390 -0.381184
O21   O     O_3   0.889599 0.518673 0.719114 -0.523948
C57   C     C_3   0.783750 0.451077 0.736533 -0.145687
H25   H     H_    0.644621 0.468946 0.766826 0.129183
H26   H     H_    0.870078 0.415917 0.772378 0.138968
H27   H     H_    0.752891 0.409513 0.679452 0.159059
F1    F     F_    0.933875 0.775560 0.976026 -0.705220
F2    F     F_    0.236638 0.471475 0.765051 -0.691270
O22   O     O_3   0.949217 0.623128 0.002106 -0.528494
C58   C     C_3   0.767332 0.614154 0.037460 -0.184149
H28   H     H_    0.683780 0.561900 0.003398 0.112078
H29   H     H_    0.683699 0.670713 0.043037 0.164801
H30   H     H_    0.789064 0.601834 0.098806 0.158557

loop_
_geom_bond_atom_site_label_1
_geom_bond_atom_site_label_2
_ccdc_geom_bond_type
C34   C38   A    
C52   H23   S    
C31   C32   A    
O19   C56   A    
C6    C9    A    
C23   C24   A    
C4    C6    S    
O18   V4    S    
C7    C8    A    
C12   H1    S    
C1    O6    A    
O17   V3    S    
C27   O22   S    
C27   C28   A    
C13   H2    S    
C36   C39   A    
C18   C19   A    
C20   C24   A    
O5    C3    A    
C33   C35   A    
C30   H14   S    
C57   H25   S    
O15   V3    S    
V2    O10   S    
C1    C38   S    
C53   O16   A    
C32   C33   A    
C16   C17   A    
C25   O21   S    
C43   C53   S    
C46   F2    S    
O8    V2    S    
C37   C42   A    
C22   C25   A    
C17   C18   A    
C17   H9    S    
C23   C28   A    
O1    V2    S    
O7    V1    S    
C58   H30   S    
C35   C36   A    
O19   V4    S    
O9    C4    A    
O11   V4    S    
C35   C54   S    
C43   C51   A    
C24   C56   S    
O22   C58   S    
C44   C47   A    
C9    H6    S    
C5    C12   A    
C45   C46   A    
C21   C22   A    
O4    C2    A    
C47   C48   A    
C2    C44   S    
C13   C14   A    
C29   C30   A    
C42   H19   S    
C48   C49   A    
C36   C37   A    
O11   C54   A    
O2    C1    A    
C25   C26   A    
C19   C20   A    
O12   C53   A    
O18   C55   A    
O15   C55   A    
C11   C12   A    
C15   C16   A    
O17   V4    S    
C44   C46   A    
C31   H15   S    
O3    C4    A    
C26   H11   S    
C22   C23   A    
C39   H17   S    
C14   H4    S    
O6    V2    S    
C32   H16   S    
O9    V2    S    
C15   H7    S    
C16   H8    S    
C41   C42   A    
C43   C50   A    
O2    V1    S    
C45   H22   S    
C50   H20   S    
C18   H10   S    
C26   C27   A    
C7    C11   A    
C58   H28   S    
C47   H24   S    
C30   C31   A    
O1    C2    A    
C45   C49   A    
C49   C50   A    
O5    V1    S    
C29   C34   A    
C8    H5    S    
C51   H21   S    
O21   C57   S    
C15   C20   A    
C5    C13   A    
C40   C41   A    
C3    C21   S    
C28   F1    S    
O7    V2    S    
O4    V1    S    
C19   C21   A    
O3    V1    S    
V1    O10   S    
C48   C52   A    
C33   C34   A    
C57   H26   S    
V3    O20   S    
C6    C8    A    
C40   H18   S    
O13   V3    S    
C37   C38   A    
C29   H13   S    
C5    C55   S    
C39   C40   A    
O14   C54   A    
C51   C52   A    
C10   C14   A    
O16   V4    S    
V4    O20   S    
C10   C11   A    
O13   C56   A    
C9    C10   A    
O14   V3    S    
O12   V3    S    
H12   C41   S    
O8    C3    A    
C58   H29   S    
C57   H27   S    
C7    H3    S    
