data_mof_unit_66349.cif
_audit_creation_date              2012-12-10T17:47:47-0500
_audit_creation_method            fapswitch 2.2
_symmetry_space_group_name_H-M    P1
_symmetry_Int_Tables_number       1
_space_group_crystal_system       triclinic
_cell_length_a                    10.833983
_cell_length_b                    10.762171
_cell_length_c                    9.963265
_cell_angle_alpha                 88.921201
_cell_angle_beta                  90.714563
_cell_angle_gamma                 94.862233
_cell_volume                      1157.233975

loop_
_atom_site_label
_atom_site_type_symbol
_atom_type_description
_atom_site_fract_x
_atom_site_fract_y
_atom_site_fract_z
_atom_type_partial_charge
Br1   Br    Br    0.818510 0.305377 0.285245 -0.164859
Br2   Br    Br    0.862615 0.234185 0.568231 -0.157264
Br3   Br    Br    0.170562 0.694000 0.267870 -0.183476
Br4   Br    Br    0.885283 0.609059 0.218820 -0.218788
Br5   Br    Br    0.581821 0.878174 0.214441 -0.186496
Br6   Br    Br    0.216115 0.067376 0.163302 -0.127102
Br7   Br    Br    0.136512 0.772601 0.546813 -0.248121
Br8   Br    Br    0.855140 0.772314 0.454251 -0.224066
Br9   Br    Br    0.091394 0.399149 0.222441 -0.232495
Br10  Br    Br    0.138005 0.232965 0.469426 -0.140047
C1    C     C_R   0.513798 0.262364 0.502065 1.019446
C2    C     C_R   0.527717 0.062737 0.628958 -0.270786
C3    C     C_R   0.536000 0.131969 0.507215 -0.189063
C4    C     C_R   0.257771 0.503351 0.498791 1.088776
C5    C     C_R   0.545799 0.071710 0.385904 0.651522
C6    C     C_R   0.535114 0.944178 0.382740 0.236527
C7    C     C_R   0.496050 0.874905 0.499280 -0.151088
C8    C     C_R   0.357311 0.306953 0.138271 0.694484
C9    C     C_R   0.300433 0.206212 0.069791 0.267971
C10   C     C_R   0.294390 0.210697 0.932844 -0.355657
C11   C     C_R   0.350327 0.311848 0.863059 0.682264
C12   C     C_3   0.877483 0.501792 0.498395 -0.554366
C13   C     C_R   0.427374 0.407547 0.928015 -0.121818
C14   C     C_R   0.428904 0.406498 0.072470 -0.060574
C15   C     C_R   0.572099 0.584191 0.070227 -0.052397
C16   C     C_R   0.495586 0.740225 0.499142 0.959163
C17   C     C_R   0.571654 0.584983 0.927790 0.772887
C18   C     C_R   0.741665 0.500261 0.500419 1.006575
C19   C     C_3   0.070938 0.496401 0.643344 0.334383
C20   C     C_3   0.932853 0.517592 0.645458 1.059057
C21   C     C_3   0.080055 0.632567 0.430383 0.274866
C22   C     C_3   0.059052 0.385977 0.416703 0.443778
C23   C     C_3   0.933807 0.618991 0.410090 0.356245
C24   C     C_3   0.120306 0.504624 0.494998 -0.553265
C25   C     C_3   0.914907 0.372208 0.442318 0.277789
C26   C     C_R   0.561908 0.112537 0.756273 0.563295
C27   C     C_R   0.522782 0.049097 0.873182 0.414958
C28   C     C_R   0.446955 0.938715 0.864695 0.443031
C29   C     C_R   0.425836 0.882332 0.740827 0.578373
C30   C     C_R   0.480753 0.937771 0.622372 -0.212375
F1    F     F_    0.569218 0.136772 0.269459 -0.545200
F2    F     F_    0.874451 0.436365 0.739140 -0.490146
F3    F     F_    0.918905 0.635835 0.692419 -0.571390
F4    F     F_    0.640280 0.217046 0.768879 -0.532882
F5    F     F_    0.553231 0.098647 0.994352 -0.518010
F6    F     F_    0.395130 0.884431 0.976688 -0.530285
F7    F     F_    0.345638 0.778686 0.738359 -0.579621
F8    F     F_    0.089860 0.382338 0.703382 -0.523273
F9    F     F_    0.323218 0.310922 0.265059 -0.602689
F10   F     F_    0.317592 0.312970 0.734047 -0.578013
F11   F     F_    0.646096 0.672063 0.860767 -0.580267
H1    H     H_    0.121642 0.567008 0.708120 0.206715
H2    H     H_    0.633710 0.650883 0.122451 0.209578
H3    H     H_    0.240908 0.137247 0.879404 0.250406
N1    N     N_R   0.498810 0.498800 0.142780 -0.116976
N2    N     N_R   0.498760 0.498720 0.857170 -0.134264
O1    O     O_R   0.500000 0.316780 0.614690 -0.550596
O2    O     O_R   0.499990 0.316750 0.385360 -0.521659
O3    O     O_R   0.314800 0.499990 0.614670 -0.530502
O4    O     O_R   0.314790 0.499970 0.385330 -0.538016
O5    O     O_R   0.500010 0.683250 0.614640 -0.553335
O6    O     O_R   0.500000 0.683220 0.385310 -0.611938
O7    O     O_R   0.685210 0.500030 0.614670 -0.511070
O8    O     O_R   0.685200 0.500010 0.385330 -0.600643
Zn1   Zn    Zn3+2 0.500010 0.500020 0.653130 1.197845
Zn2   Zn    Zn3+2 0.499990 0.499980 0.346870 1.134942

loop_
_geom_bond_atom_site_label_1
_geom_bond_atom_site_label_2
_ccdc_geom_bond_type
Br2   C25   S    
C2    C30   A    
C13   C14   A    
O7    Zn1   S    
C4    C24   S    
C27   C28   A    
C4    O3    A    
C12   C20   S    
Br10  C22   S    
C2    C26   A    
C1    O2    A    
C4    O4    A    
Br6   C9    S    
C17   N2    A    
C9    C10   A    
C26   F4    S    
C10   C11   A    
C21   C23   S    
C16   O6    A    
C21   C24   S    
O4    Zn2   S    
C13   N2    A    
O8    Zn2   S    
C12   C18   S    
C15   N1    A    
O3    Zn1   S    
C14   N1    A    
Br3   C21   S    
C12   C25   S    
C1    C3    S    
C5    F1    S    
C19   C20   S    
C8    C14   A    
C7    C16   S    
C18   O8    A    
C29   F7    S    
C26   C27   A    
C16   O5    A    
C17   F11   S    
Br8   C23   S    
C3    C5    A    
C11   C13   A    
C28   C29   A    
C19   H1    S    
C20   F3    S    
C28   F6    S    
Br7   C21   S    
O6    Zn2   S    
C19   F8    S    
C27   F5    S    
C5    C6    A    
C22   C25   S    
O5    Zn1   S    
N1    Zn2   S    
C2    C3    A    
Br1   C25   S    
C10   H3    S    
C8    C9    A    
O1    Zn1   S    
C29   C30   A    
C12   C23   S    
C18   O7    A    
C11   F10   S    
Br5   C6    S    
Br4   C23   S    
Br9   C22   S    
C1    O1    A    
C15   C17   A    
C19   C24   S    
O2    Zn2   S    
C20   F2    S    
N2    Zn1   S    
C8    F9    S    
C15   H2    S    
C6    C7    A    
C7    C30   A    
C22   C24   S    
