data_mof_unit_43515.cif
_audit_creation_date              2012-12-10T16:59:19-0500
_audit_creation_method            fapswitch 2.2
_symmetry_space_group_name_H-M    P1
_symmetry_Int_Tables_number       1
_space_group_crystal_system       triclinic
_cell_length_a                    7.756607
_cell_length_b                    8.559779
_cell_length_c                    27.679062
_cell_angle_alpha                 90.574249
_cell_angle_beta                  85.305785
_cell_angle_gamma                 93.691048
_cell_volume                      1827.7623506

loop_
_atom_site_label
_atom_site_type_symbol
_atom_type_description
_atom_site_fract_x
_atom_site_fract_y
_atom_site_fract_z
_atom_type_partial_charge
C1    C     C_R   0.545906 0.794824 0.498711 0.975338
C2    C     C_R   0.454094 0.205176 0.501289 0.975335
C3    C     C_R   0.510346 0.485622 0.898001 -0.050995
C4    C     C_R   0.489643 0.514293 0.101997 -0.050994
C5    C     C_R   0.552810 0.621142 0.870203 -0.051606
C6    C     C_R   0.447176 0.378775 0.129796 -0.051607
C7    C     C_R   0.611717 0.758572 0.892514 -0.154860
C8    C     C_R   0.388271 0.241344 0.107484 -0.154860
C9    C     C_R   0.474982 0.341783 0.874446 -0.023167
C10   C     C_R   0.525007 0.658133 0.125552 -0.023167
C11   C     C_R   0.502863 0.488315 0.646563 -0.038644
C12   C     C_R   0.497130 0.511662 0.353437 -0.038641
C13   C     C_R   0.537981 0.644910 0.023390 0.068049
C14   C     C_R   0.462012 0.355004 0.976608 0.068049
C15   C     C_R   0.444413 0.362928 0.027890 0.005970
C16   C     C_R   0.555580 0.636986 0.972108 0.005970
C17   C     C_R   0.492998 0.506688 0.050820 0.056896
C18   C     C_R   0.506994 0.493226 0.949178 0.056897
C19   C     C_R   0.548822 0.788904 0.048431 -0.137100
C20   C     C_R   0.451172 0.211011 0.951567 -0.137100
C21   C     C_R   0.549005 0.795427 0.098487 -0.105802
C22   C     C_R   0.450987 0.204488 0.901511 -0.105802
C23   C     C_R   0.501212 0.497893 0.593961 0.873817
C24   C     C_R   0.498787 0.502103 0.406039 0.873816
C25   C     C_R   0.626781 0.763965 0.942143 0.107261
C26   C     C_R   0.373211 0.235949 0.057855 0.107262
C27   C     C_2   0.570136 0.958332 0.497991 -0.371171
C28   C     C_2   0.429864 0.041668 0.502009 -0.371170
C29   C     C_R   0.548137 0.612922 0.819909 0.527626
C30   C     C_R   0.451844 0.386995 0.180090 0.527628
C31   C     C_R   0.473366 0.338293 0.823932 0.516946
C32   C     C_R   0.526619 0.661623 0.176066 0.516944
C33   C     C_R   0.347721 0.474650 0.726034 -0.096714
C34   C     C_R   0.652264 0.525305 0.273964 -0.096712
C35   C     C_R   0.346273 0.484419 0.676028 -0.204068
C36   C     C_R   0.653718 0.515564 0.323970 -0.204071
C37   C     C_R   0.660474 0.480185 0.667737 -0.207918
C38   C     C_R   0.339511 0.519757 0.332263 -0.207922
C39   C     C_R   0.661420 0.470868 0.717772 -0.092773
C40   C     C_R   0.338561 0.529047 0.282227 -0.092772
C41   C     C_R   0.505214 0.468939 0.746809 0.317681
C42   C     C_R   0.494766 0.530983 0.253190 0.317682
H1    H     H_    0.782792 0.482562 0.645784 0.159366
H2    H     H_    0.217194 0.517375 0.354217 0.159365
H3    H     H_    0.014526 0.383035 0.463462 0.191826
H4    H     H_    0.985473 0.616965 0.536537 0.191827
H5    H     H_    0.783317 0.467721 0.734124 0.135642
H6    H     H_    0.216658 0.532172 0.265877 0.135644
H7    H     H_    0.661004 0.858733 0.870758 0.210965
H8    H     H_    0.338983 0.141183 0.129241 0.210966
H9    H     H_    0.777030 0.510435 0.339447 0.161842
H10   H     H_    0.222967 0.489576 0.660551 0.161845
H11   H     H_    0.772815 0.525448 0.251257 0.139838
H12   H     H_    0.227171 0.474517 0.748741 0.139837
H13   H     H_    0.563563 0.908886 0.115910 0.197374
H14   H     H_    0.436429 0.091029 0.884088 0.197374
H15   H     H_    0.548685 0.898860 0.030053 0.177171
H16   H     H_    0.451310 0.101054 0.969945 0.177171
H17   H     H_    0.702549 0.009564 0.494172 0.180801
H18   H     H_    0.297451 0.990436 0.505828 0.180801
N1    N     N_R   0.507661 0.473218 0.798098 -0.362906
N2    N     N_R   0.492319 0.526700 0.201901 -0.362905
N3    N     N_2   0.950320 0.457960 0.486880 -0.175878
N4    N     N_2   0.049680 0.542040 0.513120 -0.175878
O1    O     O_R   0.389250 0.738570 0.503220 -0.611026
O2    O     O_R   0.610750 0.261430 0.496780 -0.611027
O3    O     O_R   0.678390 0.711630 0.494810 -0.628975
O4    O     O_R   0.321610 0.288370 0.505190 -0.628976
O5    O     O_R   0.355440 0.513440 0.575450 -0.621252
O6    O     O_R   0.644560 0.486560 0.424550 -0.621250
O7    O     O_R   0.644590 0.486500 0.567040 -0.629946
O8    O     O_R   0.355410 0.513500 0.432960 -0.629944
O9    O     O_2   0.584266 0.743127 0.792846 -0.526721
O10   O     O_2   0.415712 0.256791 0.207153 -0.526724
O11   O     O_2   0.561331 0.798112 0.199244 -0.524609
O12   O     O_2   0.438656 0.201805 0.800754 -0.524607
Zn1   Zn    Zn3+2 0.306940 0.517990 0.505620 0.950657
Zn2   Zn    Zn3+2 0.693060 0.482010 0.494380 0.950656
I1    I     I_    0.812801 0.944301 0.960985 -0.338940
I2    I     I_    0.187193 0.055612 0.039013 -0.338940

loop_
_geom_bond_atom_site_label_1
_geom_bond_atom_site_label_2
_ccdc_geom_bond_type
C16   C25   A    
O6    Zn2   S    
C8    C26   A    
N4    Zn1   S    
C31   N1    A    
O5    Zn1   S    
C34   C42   A    
C41   N1    S    
C32   O11   S    
C24   O6    A    
C39   C41   A    
C19   H15   S    
C19   C21   A    
C2    O4    A    
C30   O10   S    
C9    C22   A    
C29   O9    S    
O4    Zn1   S    
C3    C18   A    
C15   C17   A    
C11   C37   A    
C14   C18   A    
C1    O3    A    
C1    O1    A    
C12   C36   A    
C42   N2    S    
C40   C42   A    
O3    Zn2   S    
C5    C29   A    
C28   H18   S    
C10   C21   A    
O2    Zn2   S    
C29   N1    A    
O1    Zn1   S    
C13   C19   A    
C14   C20   A    
C7    H7    S    
C4    C6    A    
C5    C7    A    
C15   C26   A    
C22   H14   S    
C3    C5    A    
C23   O5    A    
H3    N3    S    
C26   I2    S    
H4    N4    S    
C37   H1    S    
C38   H2    S    
O8    Zn1   S    
C3    C9    A    
C23   O7    A    
C36   H9    S    
C4    C17   A    
C6    C30   A    
C20   C22   A    
C30   N2    A    
C4    C10   A    
C8    H8    S    
C35   H10   S    
C24   O8    A    
C39   H5    S    
C33   H12   S    
C40   H6    S    
C21   H13   S    
C25   I1    S    
C2    O2    A    
C6    C8    A    
C12   C24   S    
C7    C25   A    
C13   C17   A    
C33   C41   A    
C11   C35   A    
C32   N2    A    
C37   C39   A    
C27   H17   S    
C38   C40   A    
C31   O12   S    
C11   C23   S    
C33   C35   A    
C34   C36   A    
C12   C38   A    
C9    C31   A    
N3    N4    D    
C10   C32   A    
C34   H11   S    
C16   C18   A    
C13   C16   A    
C27   C28   D    
C1    C27   S    
C14   C15   A    
C2    C28   S    
C20   H16   S    
O7    Zn2   S    
N3    Zn2   S    
