data_mof_unit_10384.cif
_audit_creation_date              2012-12-10T18:42:33-0500
_audit_creation_method            fapswitch 2.2
_symmetry_space_group_name_H-M    P1
_symmetry_Int_Tables_number       1
_space_group_crystal_system       triclinic
_cell_length_a                    8.559369
_cell_length_b                    10.610357
_cell_length_c                    9.963837
_cell_angle_alpha                 89.378143
_cell_angle_beta                  98.403572
_cell_angle_gamma                 90.909514
_cell_volume                      895.033606293

loop_
_atom_site_label
_atom_site_type_symbol
_atom_type_description
_atom_site_fract_x
_atom_site_fract_y
_atom_site_fract_z
_atom_type_partial_charge
C1    C     C_R   0.504750 0.260808 0.501304 0.907218
C2    C     C_R   0.369841 0.067144 0.529804 -0.249029
C3    C     C_R   0.492049 0.871812 0.497393 -0.082371
C4    C     C_R   0.507684 0.128233 0.504130 -0.079318
C5    C     C_R   0.600182 0.578212 0.082558 -0.056931
C6    C     C_R   0.404701 0.418665 0.917147 -0.055079
C7    C     C_R   0.598103 0.579745 0.938335 0.185732
C8    C     C_R   0.396751 0.424274 0.058940 0.213149
C9    C     C_2   0.792676 0.124644 0.455980 0.925754
C10   C     C_2   0.208359 0.875231 0.549157 0.917288
C11   C     C_2   0.706062 0.667122 0.164788 0.965545
C12   C     C_R   0.494753 0.739186 0.498862 0.917698
C13   C     C_2   0.321161 0.314609 0.838748 1.005029
C14   C     C_3   0.667391 0.790359 0.864164 -0.642804
C15   C     C_3   0.114390 0.383329 0.061860 -0.705123
C16   C     C_R   0.201684 0.496396 0.464726 0.997115
C17   C     C_R   0.798371 0.502822 0.535575 0.990738
C18   C     C_2   0.036434 0.489175 0.447383 -0.240974
C19   C     C_2   0.963784 0.507922 0.554363 -0.240008
C20   C     C_R   0.641180 0.062638 0.477363 -0.021223
C21   C     C_R   0.359266 0.937345 0.526160 -0.031417
C22   C     C_R   0.631108 0.932889 0.475078 -0.233516
H1    H     H_    0.974597 0.466348 0.347654 0.184949
H2    H     H_    0.537543 0.804604 0.850463 0.254272
H3    H     H_    0.714302 0.830069 0.774319 0.225925
H4    H     H_    0.723979 0.843009 0.954358 0.243873
H5    H     H_    0.296962 0.321190 0.209648 0.275962
H6    H     H_    0.055588 0.416322 0.146526 0.241932
H7    H     H_    0.050523 0.298055 0.018036 0.259348
H8    H     H_    0.104991 0.459146 0.983243 0.241140
H9    H     H_    0.025054 0.529088 0.655257 0.184328
H10   H     H_    0.733419 0.878320 0.460759 0.168814
H11   H     H_    0.268996 0.121752 0.548228 0.181511
H12   H     H_    0.993440 0.115363 0.372650 0.342955
H13   H     H_    0.008958 0.884561 0.634506 0.338989
H14   H     H_    0.740312 0.844916 0.231567 0.359572
H15   H     H_    0.309702 0.127494 0.804605 0.359855
H16   H     H_    0.822718 0.642587 0.914819 0.222109
N1    N     N_R   0.499960 0.499970 0.857200 -0.151078
N2    N     N_R   0.500040 0.500030 0.142800 -0.159025
N3    N     N_2   0.705593 0.657846 0.877697 -0.277271
N4    N     N_2   0.277191 0.351720 0.111147 -0.300804
O1    O     O_R   0.499990 0.316750 0.614620 -0.597961
O2    O     O_R   0.893199 0.064745 0.378797 -0.796708
O3    O     O_2   0.168424 0.773791 0.497379 -0.641045
O4    O     O_R   0.108898 0.935220 0.627278 -0.797768
O5    O     O_2   0.844534 0.640798 0.199319 -0.652140
O6    O     O_R   0.651926 0.786847 0.189476 -0.780868
O7    O     O_2   0.196416 0.332868 0.765208 -0.630427
O8    O     O_R   0.380578 0.192787 0.857501 -0.783703
O9    O     O_R   0.500010 0.683250 0.385380 -0.571371
O10   O     O_R   0.499990 0.316780 0.385290 -0.651448
O11   O     O_R   0.500010 0.683220 0.614710 -0.618605
O12   O     O_R   0.271750 0.499990 0.587840 -0.589427
O13   O     O_R   0.728250 0.500010 0.412160 -0.607302
O14   O     O_R   0.271750 0.500010 0.358510 -0.628015
O15   O     O_R   0.728250 0.499990 0.641490 -0.605592
O16   O     O_2   0.832199 0.225862 0.508435 -0.640366
Zn1   Zn    Zn3+2 0.500000 0.499980 0.653120 1.007621
Zn2   Zn    Zn3+2 0.500000 0.500020 0.346880 1.000301

loop_
_geom_bond_atom_site_label_1
_geom_bond_atom_site_label_2
_ccdc_geom_bond_type
C10   O4    S    
C2    C4    A    
C16   O14   A    
C5    C11   S    
N2    Zn2   S    
C15   H7    S    
O10   Zn2   S    
C17   O13   A    
C9    C20   S    
C11   O5    D    
C12   O11   A    
O1    Zn1   S    
C1    C4    S    
N1    Zn1   S    
C10   O3    D    
C17   O15   A    
C11   O6    S    
C19   H9    S    
C10   C21   S    
O13   Zn2   S    
C14   H4    S    
C6    C13   S    
H15   O8    S    
H5    N4    S    
C15   H6    S    
C22   H10   S    
C2    C21   A    
C14   N3    S    
C13   O7    D    
C2    H11   S    
C17   C19   S    
C8    N4    S    
H14   O6    S    
O12   Zn1   S    
C7    N3    S    
C14   H3    S    
O11   Zn1   S    
C1    O10   A    
C16   O12   A    
C3    C21   A    
O15   Zn1   S    
C13   O8    S    
C4    C20   A    
O14   Zn2   S    
C12   O9    A    
H12   O2    S    
H16   N3    S    
C16   C18   S    
C18   C19   D    
C15   H8    S    
C5    N2    A    
C14   H2    S    
C5    C7    A    
C7    N1    A    
C6    N1    A    
C9    O16   D    
C3    C22   A    
C6    C8    A    
O9    Zn2   S    
C8    N2    A    
H13   O4    S    
C3    C12   S    
C1    O1    A    
C18   H1    S    
C15   N4    S    
C20   C22   A    
C9    O2    S    
