data_mof_unit_65283.cif
_audit_creation_date              2012-12-10T20:01:07-0500
_audit_creation_method            fapswitch 2.2
_symmetry_space_group_name_H-M    P1
_symmetry_Int_Tables_number       1
_space_group_crystal_system       monoclinic
_cell_length_a                    32.117135
_cell_length_b                    32.117135
_cell_length_c                    23.561367
_cell_angle_alpha                 89.999972
_cell_angle_beta                  90.0
_cell_angle_gamma                 90.0
_cell_volume                      24303.7941706

loop_
_atom_site_label
_atom_site_type_symbol
_atom_type_description
_atom_site_fract_x
_atom_site_fract_y
_atom_site_fract_z
_atom_type_partial_charge
C1    C     C_R   0.000000 0.419319 0.500000 0.907847
C2    C     C_1   0.162056 0.000000 0.500000 -0.035326
C3    C     C_R   0.727972 0.962219 0.499783 -0.215597
C4    C     C_R   0.037781 0.272028 0.499957 -0.215598
C5    C     C_R   0.727972 0.037781 0.500217 -0.215597
C6    C     C_R   0.962219 0.727972 0.499964 -0.215598
C7    C     C_R   0.272028 0.962219 0.500011 -0.215597
C8    C     C_R   0.462219 0.772028 0.000013 -0.215598
C9    C     C_R   0.772028 0.537781 0.999997 -0.215597
C10   C     C_R   0.537781 0.227972 0.000007 -0.215597
C11   C     C_R   0.227972 0.462219 0.999994 -0.215597
C12   C     C_R   0.537781 0.772028 0.999986 -0.215598
C13   C     C_1   0.000000 0.837944 0.500000 -0.035326
C14   C     C_R   0.227972 0.537781 0.000006 -0.215597
C15   C     C_R   0.462219 0.227972 0.999993 -0.215597
C16   C     C_R   0.772028 0.462219 0.000003 -0.215597
C17   C     C_R   0.000000 0.293524 0.500000 0.129165
C18   C     C_R   0.293524 0.000000 0.500000 0.129165
C19   C     C_R   0.000000 0.706476 0.499999 0.129166
C20   C     C_R   0.706476 1.000000 0.500000 0.129165
C21   C     C_R   0.500000 0.793524 1.000000 0.129165
C22   C     C_R   0.793524 0.500000 1.000000 0.129165
C23   C     C_R   0.500000 0.206476 0.000000 0.129165
C24   C     C_1   0.837944 1.000000 0.500000 -0.035326
C25   C     C_R   0.206476 0.500000 0.000000 0.129165
C26   C     C_1   0.077604 0.207127 0.499910 0.174328
C27   C     C_1   0.207127 0.922396 0.500023 0.174328
C28   C     C_1   0.922396 0.792873 0.499927 0.174328
C29   C     C_1   0.792873 0.077604 0.500446 0.174328
C30   C     C_1   0.922396 0.207127 0.500092 0.174328
C31   C     C_1   0.792873 0.922396 0.499554 0.174328
C32   C     C_1   0.077604 0.792873 0.500072 0.174327
C33   C     C_1   0.207127 0.077604 0.499976 0.174328
C34   C     C_1   0.577604 0.707127 0.999972 0.174328
C35   C     C_1   0.500000 0.662056 1.000000 -0.035326
C36   C     C_1   0.707127 0.422396 0.000006 0.174328
C37   C     C_1   0.422396 0.292873 0.999985 0.174328
C38   C     C_1   0.292873 0.577604 0.000012 0.174328
C39   C     C_1   0.422396 0.707127 0.000027 0.174328
C40   C     C_1   0.292873 0.422396 0.999988 0.174328
C41   C     C_1   0.577604 0.292873 0.000015 0.174327
C42   C     C_1   0.707127 0.577604 0.999994 0.174328
C43   C     C_1   0.662056 0.500000 0.000000 -0.035326
C44   C     C_1   0.500000 0.337944 0.000000 -0.035326
C45   C     C_1   0.337944 0.500000 0.000000 -0.035326
C46   C     C_1   0.000000 0.337882 0.500000 -0.039817
C47   C     C_1   0.337882 0.000000 0.500000 -0.039817
C48   C     C_1   0.000000 0.662118 0.500000 -0.039817
C49   C     C_R   0.419319 0.000000 0.500000 0.907847
C50   C     C_1   0.662118 1.000000 0.500000 -0.039817
C51   C     C_1   0.500000 0.837882 1.000000 -0.039817
C52   C     C_1   0.837882 0.500000 1.000000 -0.039817
C53   C     C_1   0.500000 0.162118 0.000000 -0.039817
C54   C     C_1   0.162118 0.500000 0.000000 -0.039817
C55   C     C_1   0.000000 0.375138 0.500000 -0.175423
C56   C     C_1   0.375138 0.000000 0.500000 -0.175423
C57   C     C_1   0.000000 0.624862 0.500000 -0.175423
C58   C     C_1   0.624862 1.000000 0.500000 -0.175423
C59   C     C_1   0.500000 0.875138 0.000000 -0.175423
C60   C     C_R   0.000000 0.580681 0.500000 0.907846
C61   C     C_1   0.875138 0.500000 0.000000 -0.175423
C62   C     C_1   0.500000 0.124862 0.000000 -0.175423
C63   C     C_1   0.124862 0.500000 0.000000 -0.175423
C64   C     C_1   0.000000 0.124806 0.500000 -0.154963
C65   C     C_1   0.124806 0.000000 0.500000 -0.154963
C66   C     C_1   0.000000 0.875194 0.500000 -0.154963
C67   C     C_1   0.875194 1.000000 0.500000 -0.154963
C68   C     C_1   0.500000 0.624806 1.000000 -0.154963
C69   C     C_1   0.624806 0.500000 0.000000 -0.154963
C70   C     C_1   0.500000 0.375194 0.000000 -0.154963
C71   C     C_R   0.580681 1.000000 0.500000 0.907846
C72   C     C_1   0.375194 0.500000 0.000000 -0.154963
C73   C     C_R   0.000000 0.500000 0.390455 0.905623
C74   C     C_R   0.500000 0.000000 0.390455 0.905623
C75   C     C_R   1.000000 0.500000 0.609545 0.905623
C76   C     C_R   0.500000 0.000000 0.609545 0.905622
C77   C     C_R   0.500000 0.000000 0.890455 0.905623
C78   C     C_R   0.000000 0.500000 0.890455 0.905623
C79   C     C_R   0.500000 0.000000 0.109545 0.905622
C80   C     C_R   0.000000 0.500000 0.109545 0.905622
C81   C     C_R   0.080644 0.000000 0.500000 0.911326
C82   C     C_R   0.500000 0.919319 0.000000 0.907847
C83   C     C_R   1.000000 0.919356 0.500000 0.911327
C84   C     C_R   0.919356 1.000000 0.500000 0.911327
C85   C     C_R   0.000000 0.080644 0.500000 0.911326
C86   C     C_R   0.580644 0.500000 0.000000 0.911326
C87   C     C_R   0.500000 0.419356 0.000000 0.911327
C88   C     C_R   0.419356 0.500000 0.000000 0.911327
C89   C     C_R   0.500000 0.580644 1.000000 0.911326
C90   C     C_1   0.000000 0.500000 0.330315 -0.180891
C91   C     C_1   0.500000 0.000000 0.330315 -0.180891
C92   C     C_1   0.000000 0.500000 0.669685 -0.180891
C93   C     C_R   0.919319 0.500000 0.000000 0.907847
C94   C     C_1   0.500000 1.000000 0.669685 -0.180891
C95   C     C_1   0.500000 1.000000 0.830315 -0.180891
C96   C     C_1   0.000000 0.500000 0.830315 -0.180891
C97   C     C_1   0.500000 1.000000 0.169685 -0.180891
C98   C     C_1   0.000000 0.500000 0.169685 -0.180891
C99   C     C_1   0.000000 0.500000 0.279598 0.012987
C100  C     C_1   0.500000 0.000000 0.279598 0.012987
C101  C     C_1   0.000000 0.500000 0.720402 0.012987
C102  C     C_1   0.500000 1.000000 0.720402 0.012987
C103  C     C_1   0.500000 1.000000 0.779598 0.012987
C104  C     C_R   0.500000 0.080681 0.000000 0.907846
C105  C     C_1   0.000000 0.500000 0.779598 0.012987
C106  C     C_1   0.500000 0.000000 0.220402 0.012987
C107  C     C_1   0.000000 0.500000 0.220402 0.012987
C108  C     C_R   0.038048 0.228587 0.499956 -0.003497
C109  C     C_R   0.228587 0.961952 0.500011 -0.003497
C110  C     C_R   0.961952 0.771413 0.499964 -0.003496
C111  C     C_R   0.771413 0.038047 0.500219 -0.003497
C112  C     C_R   0.961952 0.228587 0.500045 -0.003496
C113  C     C_R   0.771413 0.961952 0.499781 -0.003497
C114  C     C_R   0.038048 0.771413 0.500035 -0.003497
C115  C     C_R   0.080681 0.500000 0.000000 0.907846
C116  C     C_R   0.228587 0.038048 0.499988 -0.003497
C117  C     C_R   0.538048 0.728587 0.999986 -0.003496
C118  C     C_R   0.728587 0.461952 0.000003 -0.003497
C119  C     C_R   0.461952 0.271413 0.999993 -0.003497
C120  C     C_R   0.271413 0.538048 0.000006 -0.003497
C121  C     C_R   0.461952 0.728587 0.000013 -0.003496
C122  C     C_R   0.271413 0.461952 0.999994 -0.003497
C123  C     C_R   0.538048 0.271413 0.000007 -0.003497
C124  C     C_R   0.728587 0.538048 0.999997 -0.003497
C125  C     C_R   0.000000 0.206699 0.500000 0.056843
C126  C     C_1   0.000000 0.162056 0.500000 -0.035326
C127  C     C_R   0.206699 0.000000 0.500000 0.056843
C128  C     C_R   0.000000 0.793301 0.499999 0.056843
C129  C     C_R   0.793301 1.000000 0.500000 0.056843
C130  C     C_R   0.500000 0.706699 1.000000 0.056843
C131  C     C_R   0.706699 0.500000 1.000000 0.056843
C132  C     C_R   0.500000 0.293301 0.000000 0.056843
C133  C     C_R   0.293301 0.500000 0.000000 0.056843
C134  C     C_R   0.962219 0.272028 0.500045 -0.215598
C135  C     C_R   0.272028 0.037781 0.499988 -0.215597
C136  C     C_R   0.037781 0.727972 0.500035 -0.215597
H1    H     H_    0.066923 0.289118 0.499922 0.152620
H2    H     H_    0.789118 0.433076 0.000005 0.152620
H3    H     H_    0.433076 0.210882 0.999987 0.152620
H4    H     H_    0.210882 0.566924 0.000011 0.152620
H5    H     H_    0.433076 0.789118 0.000024 0.152620
H6    H     H_    0.210882 0.433076 0.999989 0.152620
H7    H     H_    0.566924 0.210882 0.000013 0.152620
H8    H     H_    0.789118 0.566924 0.999995 0.152620
H9    H     H_    0.289118 0.933076 0.500020 0.152620
H10   H     H_    0.933076 0.710882 0.499937 0.152620
H11   H     H_    0.710882 0.066923 0.500385 0.152620
H12   H     H_    0.933076 0.289118 0.500079 0.152620
H13   H     H_    0.710882 0.933077 0.499615 0.152620
H14   H     H_    0.066924 0.710882 0.500062 0.152619
H15   H     H_    0.289118 0.066924 0.499980 0.152620
H16   H     H_    0.566924 0.789118 0.999976 0.152620
N1    N     N_1   0.109267 0.189925 0.499873 -0.175783
N2    N     N_1   0.689925 0.390733 0.000008 -0.175783
N3    N     N_1   0.390733 0.310075 0.999979 -0.175783
N4    N     N_1   0.310075 0.609267 0.000017 -0.175783
N5    N     N_1   0.390733 0.689925 0.000039 -0.175783
N6    N     N_1   0.310075 0.390733 0.999982 -0.175783
N7    N     N_1   0.609267 0.310075 0.000021 -0.175783
N8    N     N_1   0.689925 0.609267 0.999992 -0.175783
N9    N     N_1   0.189925 0.890733 0.500033 -0.175783
N10   N     N_1   0.890733 0.810075 0.499897 -0.175783
N11   N     N_1   0.810075 0.109266 0.500628 -0.175783
N12   N     N_1   0.890733 0.189925 0.500129 -0.175784
N13   N     N_1   0.810075 0.890734 0.499372 -0.175783
N14   N     N_1   0.109267 0.810075 0.500101 -0.175783
N15   N     N_1   0.189925 0.109267 0.499967 -0.175783
N16   N     N_1   0.609267 0.689925 0.999961 -0.175783
O1    O     O_R   0.965560 0.438990 0.499980 -0.614418
O2    O     O_R   0.938990 0.534440 0.999980 -0.614419
O3    O     O_R   0.534440 0.061010 0.999980 -0.614419
O4    O     O_R   0.061010 0.465560 0.999980 -0.614418
O5    O     O_R   0.534440 0.938990 0.000020 -0.614419
O6    O     O_R   0.061010 0.534440 0.000020 -0.614419
O7    O     O_R   0.465560 0.061010 0.000020 -0.614418
O8    O     O_R   0.938990 0.465560 0.000020 -0.614418
O9    O     O_R   0.060930 0.999970 0.453240 -0.613582
O10   O     O_R   0.999970 0.939070 0.453240 -0.613576
O11   O     O_R   0.939070 0.000030 0.453240 -0.613583
O12   O     O_R   0.438990 0.034440 0.499980 -0.614419
O13   O     O_R   0.000030 0.060930 0.453240 -0.613589
O14   O     O_R   0.939070 0.999970 0.546760 -0.613583
O15   O     O_R   0.000030 0.939070 0.546760 -0.613589
O16   O     O_R   0.060930 0.000030 0.546760 -0.613583
O17   O     O_R   0.999970 0.060930 0.546760 -0.613577
O18   O     O_R   0.560930 0.499970 0.953240 -0.613582
O19   O     O_R   0.499970 0.439070 0.953240 -0.613582
O20   O     O_R   0.439070 0.500030 0.953240 -0.613583
O21   O     O_R   0.500030 0.560930 0.953240 -0.613583
O22   O     O_R   0.439070 0.499970 0.046760 -0.613583
O23   O     O_R   0.034440 0.561010 0.499980 -0.614419
O24   O     O_R   0.500030 0.439070 0.046760 -0.613583
O25   O     O_R   0.560930 0.500030 0.046760 -0.613583
O26   O     O_R   0.499970 0.560930 0.046760 -0.613583
O27   O     O_R   0.965560 0.499980 0.417220 -0.613320
O28   O     O_R   0.499980 0.034440 0.417220 -0.613318
O29   O     O_R   0.034440 0.500020 0.417220 -0.613320
O30   O     O_R   0.500020 0.965560 0.417220 -0.613321
O31   O     O_R   0.034440 0.499980 0.582780 -0.613320
O32   O     O_R   0.500020 0.034440 0.582780 -0.613322
O33   O     O_R   0.965560 0.500020 0.582780 -0.613320
O34   O     O_R   0.561010 0.965560 0.499980 -0.614418
O35   O     O_R   0.499980 0.965560 0.582780 -0.613318
O36   O     O_R   0.465560 0.999980 0.917220 -0.613320
O37   O     O_R   0.999980 0.534440 0.917220 -0.613321
O38   O     O_R   0.534440 0.000020 0.917220 -0.613320
O39   O     O_R   0.000020 0.465560 0.917220 -0.613319
O40   O     O_R   0.534440 0.999980 0.082780 -0.613321
O41   O     O_R   0.000020 0.534440 0.082780 -0.613320
O42   O     O_R   0.465560 0.000020 0.082780 -0.613320
O43   O     O_R   0.999980 0.465560 0.082780 -0.613320
O44   O     O_R   0.034440 0.438990 0.500020 -0.614419
O45   O     O_R   0.561010 0.034440 0.500020 -0.614419
O46   O     O_R   0.965560 0.561010 0.500020 -0.614418
O47   O     O_R   0.438990 0.965560 0.500020 -0.614418
O48   O     O_R   0.465560 0.938990 0.999980 -0.614418
Zn1   Zn    Zn3+2 0.954010 0.500000 0.500000 0.984020
Zn2   Zn    Zn3+2 0.000000 0.000000 0.562390 0.994220
Zn3   Zn    Zn3+2 0.500000 0.500000 0.937610 0.994220
Zn4   Zn    Zn3+2 0.500000 0.500000 0.062390 0.994220
Zn5   Zn    Zn3+2 0.500000 0.045990 0.500000 0.984020
Zn6   Zn    Zn3+2 0.045990 0.500000 0.500000 0.984020
Zn7   Zn    Zn3+2 0.500000 0.954010 0.500000 0.984020
Zn8   Zn    Zn3+2 0.454010 0.000000 0.000000 0.984020
Zn9   Zn    Zn3+2 1.000000 0.545990 0.000000 0.984020
Zn10  Zn    Zn3+2 0.545990 0.000000 0.000000 0.984020
Zn11  Zn    Zn3+2 1.000000 0.454010 0.000000 0.984020
Zn12  Zn    Zn3+2 0.000000 0.000000 0.437610 0.994220

loop_
_geom_bond_atom_site_label_1
_geom_bond_atom_site_label_2
_ccdc_geom_bond_type
C79   O42   A    
O1    Zn1   S    
C96   C105  T    
C5    H11   S    
C32   N14   T    
C123  C132  A    
C71   O34   A    
C12   H16   S    
C40   C122  S    
C42   C124  S    
C59   C82   S    
C38   N4    T    
C121  C130  A    
C2    C65   T    
C18   C47   S    
C75   O33   A    
C76   O35   A    
C36   N2    T    
C48   C57   T    
C116  C135  A    
O19   Zn3   S    
O44   Zn6   S    
C88   O22   A    
C6    C19   A    
C4    C108  A    
C113  C129  A    
O32   Zn5   S    
C35   C68   T    
C40   N6    T    
O6    Zn9   S    
C73   C90   S    
C115  O6    A    
C16   H2    S    
O5    Zn10  S    
C86   O25   A    
C6    H10   S    
O4    Zn11  S    
C61   C93   S    
C8    C121  A    
C54   C63   T    
C11   C25   A    
C79   O40   A    
C9    C124  A    
C120  C133  A    
O23   Zn6   S    
O11   Zn12  S    
C60   O46   A    
C78   O39   A    
C20   C50   S    
C118  C131  A    
C24   C67   T    
C76   C94   S    
C4    H1    S    
C41   N7    T    
C13   C128  S    
O45   Zn5   S    
C24   C129  S    
C111  C129  A    
C31   N13   T    
C78   C96   S    
C116  C127  A    
C73   O29   A    
C46   C55   T    
O38   Zn10  S    
C85   O13   A    
O7    Zn8   S    
C82   O5    A    
C44   C70   T    
C8    H5    S    
C30   N12   T    
C108  C125  A    
C36   C118  S    
C62   C104  S    
O28   Zn5   S    
O25   Zn4   S    
C49   O12   A    
C38   C120  S    
C2    C127  S    
C34   C117  S    
O16   Zn2   S    
C66   C83   S    
C67   C84   S    
C43   C69   T    
O43   Zn11  S    
O36   Zn8   S    
C1    O44   A    
C101  C105  S    
C6    C110  A    
C33   N15   T    
O41   Zn9   S    
C37   N3    T    
C34   N16   T    
C70   C87   S    
C15   C119  A    
C72   C88   S    
C9    H8    S    
C95   C103  T    
C23   C53   S    
C104  O7    A    
C15   H3    S    
C13   C66   T    
O13   Zn12  S    
C85   O17   A    
O22   Zn4   S    
C74   O28   A    
C93   O2    A    
C3    H13   S    
O42   Zn8   S    
O17   Zn2   S    
C28   N10   T    
C50   C58   T    
C74   O30   A    
O12   Zn5   S    
C17   C46   S    
O29   Zn6   S    
C3    C113  A    
C26   C108  S    
C5    C20   A    
C19   C48   S    
C43   C131  S    
C57   C60   S    
O26   Zn4   S    
C5    C111  A    
C28   C110  S    
C19   C136  A    
C71   O45   A    
C12   C21   A    
C77   C95   S    
C98   C107  T    
C7    C109  A    
C124  C131  A    
C30   C112  S    
C74   C91   S    
C84   O11   A    
C29   N11   T    
O48   Zn8   S    
C122  C133  A    
C32   C114  S    
C136  H14   S    
C8    C21   A    
C16   C118  A    
C114  C128  A    
C53   C62   T    
C65   C81   S    
C37   C119  S    
O3    Zn10  S    
C7    C18   A    
O14   Zn2   S    
C119  C132  A    
C87   O24   A    
O35   Zn7   S    
C18   C135  A    
O31   Zn6   S    
C45   C72   T    
C25   C54   S    
O37   Zn9   S    
C117  C130  A    
C35   C130  S    
C94   C102  T    
C112  C125  A    
C92   C101  T    
C104  O3    A    
C82   O48   A    
C4    C17   A    
C75   C92   S    
O39   Zn11  S    
C14   H4    S    
C10   C123  A    
O15   Zn2   S    
C64   C126  T    
C73   O27   A    
C76   O32   A    
C125  C126  S    
C91   C100  T    
C11   C122  A    
C51   C59   T    
O24   Zn4   S    
C77   O36   A    
C64   C85   S    
C21   C51   S    
C134  H12   S    
C22   C52   S    
O20   Zn3   S    
C90   C99   T    
O8    Zn11  S    
C83   O15   A    
C33   C116  S    
C16   C22   A    
C83   O10   A    
C80   C98   S    
C45   C133  S    
O34   Zn7   S    
C79   C97   S    
C42   N8    T    
C112  C134  A    
C115  O4    A    
O46   Zn1   S    
O47   Zn7   S    
C87   O19   A    
C80   O43   A    
C86   O18   A    
C75   O31   A    
C10   C23   A    
C44   C132  S    
C49   C56   S    
C99   C107  S    
O18   Zn3   S    
C49   O47   A    
C93   O8    A    
C100  C106  S    
C39   C121  S    
C14   C120  A    
C52   C61   T    
O40   Zn10  S    
C15   C23   A    
C41   C123  S    
C84   O14   A    
O30   Zn7   S    
C1    C55   S    
C78   O37   A    
C81   O9    A    
C3    C20   A    
C77   O38   A    
C27   N9    T    
O9    Zn12  S    
C114  C136  A    
C63   C115  S    
C60   O23   A    
C135  H15   S    
C89   O26   A    
C1    O1    A    
C109  C127  A    
C10   H7    S    
C14   C25   A    
C29   C111  S    
C102  C103  S    
C9    C22   A    
C11   H6    S    
O27   Zn1   S    
C58   C71   S    
O33   Zn1   S    
C12   C117  A    
C88   O20   A    
C27   C109  S    
O2    Zn9   S    
C17   C134  A    
O10   Zn12  S    
C89   O21   A    
C80   O41   A    
C26   N1    T    
C81   O16   A    
C68   C89   S    
C31   C113  S    
C39   N5    T    
C69   C86   S    
O21   Zn3   S    
C110  C128  A    
C47   C56   T    
C7    H9    S    
C97   C106  T    
