data_mof_unit_42432.cif
_audit_creation_date              2012-12-10T17:53:17-0500
_audit_creation_method            fapswitch 2.2
_symmetry_space_group_name_H-M    P1
_symmetry_Int_Tables_number       1
_space_group_crystal_system       triclinic
_cell_length_a                    23.41993
_cell_length_b                    10.612623
_cell_length_c                    9.912614
_cell_angle_alpha                 89.998504
_cell_angle_beta                  90.006797
_cell_angle_gamma                 91.421764
_cell_volume                      2462.9908442

loop_
_atom_site_label
_atom_site_type_symbol
_atom_type_description
_atom_site_fract_x
_atom_site_fract_y
_atom_site_fract_z
_atom_type_partial_charge
C1    C     C_R   0.501482 0.260739 0.500019 0.855796
C2    C     C_R   0.967690 0.255664 0.390349 0.002623
C3    C     C_R   0.028139 0.254462 0.398322 0.386697
C4    C     C_R   0.059412 0.361244 0.448182 -0.133715
C5    C     C_R   0.029647 0.469076 0.489341 -0.078102
C6    C     C_R   0.060045 0.578678 0.533085 0.012582
C7    C     C_R   0.030829 0.685818 0.573466 -0.133234
C8    C     C_R   0.971828 0.684806 0.573654 -0.179422
C9    C     C_R   0.119817 0.366714 0.456227 0.557337
C10   C     C_R   0.119395 0.579244 0.535325 0.508388
C11   C     C_R   0.238068 0.486774 0.376685 -0.094744
C12   C     C_R   0.389393 0.498808 0.500026 0.855951
C13   C     C_R   0.297283 0.493783 0.377012 -0.220848
C14   C     C_R   0.327135 0.493238 0.499848 -0.040816
C15   C     C_R   0.297029 0.484890 0.622186 -0.231177
C16   C     C_R   0.237761 0.477815 0.621439 -0.096203
C17   C     C_R   0.208397 0.478954 0.498744 0.310954
C18   C     C_R   0.761537 0.474340 0.622033 -0.097943
C19   C     C_R   0.702525 0.483826 0.622493 -0.244423
C20   C     C_R   0.672692 0.491745 0.499984 -0.038285
C21   C     C_R   0.702558 0.489291 0.377258 -0.207989
C22   C     C_R   0.761522 0.479778 0.377196 -0.123909
C23   C     C_R   0.501586 0.739432 0.499979 0.873761
C24   C     C_R   0.790939 0.472710 0.499421 0.335984
C25   C     C_R   0.596939 0.136673 0.625650 -0.173202
C26   C     C_R   0.641539 0.073377 0.686788 -0.119495
C27   C     C_R   0.641519 0.942263 0.686932 -0.126128
C28   C     C_R   0.596918 0.874019 0.625843 -0.192320
C29   C     C_R   0.550963 0.936820 0.564773 0.094903
C30   C     C_R   0.550969 0.068844 0.564692 0.092500
C31   C     C_R   0.505454 0.128703 0.499603 -0.102447
C32   C     C_R   0.462400 0.062278 0.431621 -0.212929
C33   C     C_R   0.462422 0.933650 0.431634 -0.204921
C34   C     C_R   0.610596 0.499048 0.499990 0.843418
C35   C     C_R   0.505456 0.871955 0.499715 -0.103632
C36   C     C_R   0.426139 0.333222 0.139787 -0.195179
C37   C     C_R   0.390891 0.248491 0.069787 -0.227306
C38   C     C_R   0.391311 0.246524 0.929469 0.118221
C39   C     C_R   0.426630 0.332411 0.859977 -0.198864
C40   C     C_R   0.463699 0.417618 0.927779 0.142270
C41   C     C_R   0.463628 0.417773 0.072223 0.172959
C42   C     C_R   0.534791 0.578702 0.071495 -0.114135
C43   C     C_R   0.534752 0.578730 0.928361 -0.112050
C44   C     C_R   0.881582 0.575407 0.535745 0.486561
C45   C     C_R   0.877675 0.362456 0.457890 0.511224
C46   C     C_R   0.937944 0.360209 0.444561 -0.102400
C47   C     C_R   0.969487 0.468199 0.488769 -0.038434
C48   C     C_R   0.940890 0.576738 0.533132 0.013712
H1    H     H_    0.680395 0.484876 0.718401 0.161195
H2    H     H_    0.680502 0.494893 0.281488 0.161900
H3    H     H_    0.784547 0.479336 0.282459 0.131976
H4    H     H_    0.428025 0.110277 0.381286 0.145231
H5    H     H_    0.599442 0.238463 0.624907 0.155014
H6    H     H_    0.676510 0.126270 0.732913 0.146083
H7    H     H_    0.676467 0.893257 0.733214 0.148796
H8    H     H_    0.599412 0.772438 0.625191 0.145890
H9    H     H_    0.428080 0.881823 0.381245 0.158607
H10   H     H_    0.563235 0.642982 0.125229 0.147515
H11   H     H_    0.422884 0.329127 0.246693 0.208167
H12   H     H_    0.363434 0.183626 0.125807 0.154713
H13   H     H_    0.423834 0.329521 0.753056 0.207929
H14   H     H_    0.563150 0.643067 0.874545 0.143225
H15   H     H_    0.053442 0.770741 0.606125 0.203179
H16   H     H_    0.950566 0.768995 0.606447 0.187242
H17   H     H_    0.215103 0.487988 0.281875 0.143545
H18   H     H_    0.319546 0.499638 0.281358 0.167246
H19   H     H_    0.319136 0.483454 0.718143 0.164364
H20   H     H_    0.214564 0.471615 0.715801 0.142646
H21   H     H_    0.784549 0.469213 0.716559 0.136867
N1    N     N_R   0.851657 0.469679 0.498559 -0.350462
N2    N     N_R   0.147611 0.474461 0.497779 -0.369579
N3    N     N_R   0.499460 0.498800 0.142780 -0.117718
N4    N     N_R   0.499440 0.498720 0.857170 -0.115441
O1    O     O_R   0.500000 0.316780 0.614690 -0.645816
O2    O     O_2   0.844823 0.258521 0.435968 -0.583506
O3    O     O_2   0.151246 0.266448 0.424016 -0.473153
O4    O     O_2   0.149033 0.683864 0.574201 -0.539853
O5    O     O_R   0.500000 0.316750 0.385360 -0.623662
O6    O     O_R   0.416160 0.499970 0.614690 -0.635483
O7    O     O_R   0.416150 0.499950 0.385360 -0.639234
O8    O     O_R   0.500000 0.683250 0.614640 -0.616570
O9    O     O_R   0.500000 0.683220 0.385310 -0.608305
O10   O     O_R   0.583850 0.500050 0.614640 -0.633581
O11   O     O_R   0.583840 0.500030 0.385310 -0.614375
O12   O     O_2   0.853647 0.678764 0.575813 -0.583216
Zn1   Zn    Zn3+2 0.500000 0.500020 0.653130 0.928237
Zn2   Zn    Zn3+2 0.500000 0.499980 0.346870 0.942828
C49   C     C_3   0.937074 0.150059 0.312045 -0.305920
C50   C     C_3   0.923371 0.035113 0.401852 -0.273720
C51   C     C_3   0.890647 0.933062 0.323167 -0.825253
H22   H     H_    0.849267 0.969243 0.286947 0.272690
H23   H     H_    0.916201 0.901742 0.235491 0.260543
H24   H     H_    0.881972 0.850667 0.389491 0.280869
H25   H     H_    0.963497 0.994871 0.440623 0.242986
H26   H     H_    0.897576 0.062814 0.490463 0.259584
H27   H     H_    0.898429 0.184039 0.260397 0.225159
H28   H     H_    0.963553 0.120266 0.225362 0.217933
Cl1   Cl    Cl    0.063320 0.117173 0.342129 -0.562497
C52   C     C_3   0.354480 0.152481 0.852653 -0.425561
C53   C     C_3   0.391192 0.050258 0.789394 -0.346722
C54   C     C_3   0.354839 0.956026 0.708376 -0.809271
H29   H     H_    0.322006 0.910071 0.774002 0.269860
H30   H     H_    0.333497 0.004403 0.623489 0.266833
H31   H     H_    0.382482 0.882072 0.666432 0.251025
H32   H     H_    0.423670 0.094046 0.721248 0.231676
H33   H     H_    0.413882 0.998960 0.870323 0.234178
H34   H     H_    0.322420 0.106972 0.920945 0.215396
H35   H     H_    0.330625 0.202624 0.772730 0.206180

loop_
_geom_bond_atom_site_label_1
_geom_bond_atom_site_label_2
_ccdc_geom_bond_type
O5    Zn2   S    
C43   N4    A    
C44   C48   A    
C49   H27   S    
C54   H29   S    
C23   O9    A    
C19   C20   A    
O11   Zn2   S    
C36   H11   S    
C42   H10   S    
C28   H8    S    
C24   N1    S    
C7    C8    A    
C45   C46   A    
C2    C46   A    
C52   H35   S    
C5    C47   A    
C28   C29   A    
C53   H32   S    
C37   C38   A    
C18   C24   A    
C1    O1    A    
C36   C37   A    
C25   H5    S    
O7    Zn2   S    
C49   C50   S    
C30   C31   A    
C27   H7    S    
C15   C16   A    
C12   O6    A    
C1    C31   S    
C40   N4    A    
C18   C19   A    
C50   H25   S    
C32   H4    S    
C52   C53   S    
C16   C17   A    
C44   N1    A    
C16   H20   S    
C9    O3    S    
O8    Zn1   S    
C20   C34   S    
C10   N2    A    
C18   H21   S    
C54   H30   S    
C21   C22   A    
C1    O5    A    
C36   C41   A    
C34   O11   A    
C26   H6    S    
C21   H2    S    
C10   O4    S    
C13   H18   S    
C38   C39   A    
C39   H13   S    
C9    N2    A    
C39   C40   A    
C4    C5    A    
C25   C26   A    
C3    C4    A    
C50   H26   S    
C8    C48   A    
C29   C30   A    
C19   H1    S    
C51   H23   S    
C47   C48   A    
C15   H19   S    
C42   N3    A    
C26   C27   A    
O1    Zn1   S    
C2    C49   S    
C7    H15   S    
C8    H16   S    
C41   N3    A    
C40   C41   A    
C12   C14   S    
C17   N2    S    
C54   H31   S    
C23   C35   S    
C22   C24   A    
C42   C43   A    
C44   O12   S    
N3    Zn2   S    
C51   H24   S    
C25   C30   A    
C46   C47   A    
C11   C17   A    
C33   H9    S    
C23   O8    A    
C45   N1    A    
C31   C32   A    
C49   H28   S    
C38   C52   S    
C6    C10   A    
C6    C7    A    
C52   H34   S    
C29   C35   A    
C53   H33   S    
C45   O2    S    
C32   C33   A    
C2    C3    A    
C4    C9    A    
C11   C13   A    
C3    Cl1   S    
C51   H22   S    
C5    C6    A    
C12   O7    A    
C53   C54   S    
C33   C35   A    
N4    Zn1   S    
C37   H12   S    
C11   H17   S    
O10   Zn1   S    
C20   C21   A    
C34   O10   A    
C27   C28   A    
C14   C15   A    
C50   C51   S    
C13   C14   A    
O6    Zn1   S    
O9    Zn2   S    
C43   H14   S    
C22   H3    S    
