data_mof_unit_37874.cif
_audit_creation_date              2012-10-26T18:50:03-0400
_audit_creation_method            fapswitch 2.2
_symmetry_space_group_name_H-M    P1
_symmetry_Int_Tables_number       1
_space_group_crystal_system       triclinic
_cell_length_a                    10.887491
_cell_length_b                    13.056407
_cell_length_c                    11.664416
_cell_angle_alpha                 99.935127
_cell_angle_beta                  93.725081
_cell_angle_gamma                 88.260184
_cell_volume                      1629.4888646

loop_
_atom_site_label
_atom_site_type_symbol
_atom_type_description
_atom_site_fract_x
_atom_site_fract_y
_atom_site_fract_z
_atom_type_partial_charge
C1    C     C_R   0.489977 0.299856 0.478831 0.551586
C2    C     C_R   0.540532 0.862793 0.439779 0.099955
C3    C     C_R   0.474196 0.030168 0.550739 0.049566
C4    C     C_R   0.519590 0.970873 0.446595 0.069334
C5    C     C_R   0.381870 0.406131 0.022018 0.059656
C6    C     C_R   0.617253 0.594615 0.978060 0.053670
C7    C     C_R   0.394042 0.415135 0.144770 0.062871
C8    C     C_R   0.605404 0.585344 0.855287 0.062153
C9    C     C_R   0.551001 0.538677 0.156970 0.043713
C10   C     C_R   0.449701 0.460648 0.842903 0.061823
C11   C     C_R   0.542524 0.533967 0.034190 0.013307
C12   C     C_R   0.508113 0.700531 0.520904 0.521013
C13   C     C_R   0.457047 0.466373 0.965829 0.015904
C14   C     C_R   0.262636 0.508602 0.501390 0.523370
C15   C     C_R   0.737336 0.494299 0.498907 0.595825
C16   C     C_R   0.106389 0.705851 0.542775 0.103861
C17   C     C_R   0.890166 0.301264 0.453846 0.108650
C18   C     C_R   0.029763 0.793828 0.563979 -0.056230
C19   C     C_R   0.965343 0.212000 0.431782 -0.107757
C20   C     C_R   0.904223 0.784577 0.565834 -0.152182
C21   C     C_R   0.091344 0.219934 0.431212 -0.152014
C22   C     C_R   0.853245 0.686997 0.545401 -0.117678
C23   C     C_R   0.509056 0.813938 0.532394 -0.018913
C24   C     C_R   0.144115 0.317012 0.453092 -0.116325
C25   C     C_R   0.926893 0.594971 0.522420 -0.020665
C26   C     C_R   0.071972 0.409834 0.477151 -0.012465
C27   C     C_R   0.056613 0.602808 0.522571 0.012833
C28   C     C_R   0.942452 0.402711 0.476492 0.044201
C29   C     C_R   0.871122 0.496410 0.498746 -0.003982
C30   C     C_R   0.128446 0.508400 0.501359 -0.013756
C31   C     C_R   0.483742 0.186807 0.465516 -0.036339
C32   C     C_R   0.539612 0.021300 0.351167 0.102210
C33   C     C_R   0.459010 0.980710 0.647792 0.090062
C34   C     C_R   0.523450 0.128017 0.362889 -0.184878
C35   C     C_R   0.474111 0.873606 0.636522 -0.152545
C36   C     C_R   0.445629 0.137223 0.555010 0.105502
Cu1   Cu    Cu3+1 0.509250 0.507730 0.615930 0.937876
Cu2   Cu    Cu3+1 0.490750 0.492270 0.384070 0.926577
H1    H     H_    0.148725 0.150467 0.413645 0.116279
H2    H     H_    0.617254 0.588460 0.210981 0.155660
H3    H     H_    0.662022 0.631356 0.811505 0.127190
H4    H     H_    0.336862 0.369624 0.188617 0.128475
H5    H     H_    0.253576 0.292096 0.008569 0.225400
H6    H     H_    0.223747 0.381360 0.922557 0.225280
H7    H     H_    0.758524 0.697109 0.990029 0.226162
H8    H     H_    0.654270 0.726754 0.090671 0.241727
H9    H     H_    0.280576 0.697729 0.609692 0.260916
H10   H     H_    0.263928 0.694897 0.459437 0.260030
H11   H     H_    0.745172 0.238372 0.512633 0.230064
H12   H     H_    0.845737 0.853459 0.582511 0.117581
H13   H     H_    0.733077 0.247444 0.369034 0.225735
H14   H     H_    0.668182 0.756503 0.367800 0.232531
H15   H     H_    0.530473 0.760153 0.286841 0.256211
H16   H     H_    0.336785 0.262598 0.624558 0.222063
H17   H     H_    0.290085 0.149307 0.641877 0.231805
H18   H     H_    0.512176 0.979685 0.176173 0.223775
H19   H     H_    0.661439 0.995915 0.224815 0.228621
H20   H     H_    0.350109 0.010660 0.784228 0.225836
H21   H     H_    0.502490 0.024114 0.820323 0.230321
H22   H     H_    0.068604 0.870795 0.579099 0.132966
H23   H     H_    0.925004 0.135607 0.414566 0.112065
H24   H     H_    0.754650 0.685258 0.547762 0.122807
H25   H     H_    0.242691 0.317704 0.450286 0.125544
H26   H     H_    0.456016 0.836862 0.710093 0.136280
H27   H     H_    0.545225 0.165277 0.290757 0.136760
H28   H     H_    0.385241 0.409245 0.788636 0.165530
N1    N     N_R   0.523180 0.519350 0.790130 -0.258248
N2    N     N_3   0.431819 0.038495 0.759701 -0.579393
N3    N     N_R   0.476820 0.480650 0.209870 -0.257273
N4    N     N_3   0.294277 0.336124 0.954957 -0.631338
N5    N     N_3   0.704402 0.665014 0.045149 -0.647075
N6    N     N_3   0.233460 0.726806 0.541172 -0.649234
N7    N     N_3   0.760933 0.286341 0.452153 -0.596913
N8    N     N_3   0.597117 0.804089 0.340568 -0.585736
N9    N     N_3   0.370410 0.191845 0.644546 -0.547654
N10   N     N_3   0.577722 0.965948 0.241670 -0.594493
O1    O     O_R   0.506570 0.354460 0.582000 -0.474748
O2    O     O_R   0.493430 0.645540 0.418000 -0.521302
O3    O     O_R   0.490940 0.341410 0.386200 -0.506209
O4    O     O_R   0.509060 0.658590 0.613800 -0.526912
O5    O     O_R   0.327470 0.506520 0.597900 -0.521021
O6    O     O_R   0.672530 0.493480 0.402100 -0.490520
O7    O     O_R   0.311840 0.493460 0.402100 -0.510083
O8    O     O_R   0.688160 0.506540 0.597900 -0.495251

loop_
_geom_bond_atom_site_label_1
_geom_bond_atom_site_label_2
_ccdc_geom_bond_type
H18   N10   S    
Cu2   O7    S    
H7    N5    S    
C1    O1    A    
H15   N8    S    
C16   N6    S    
C10   N1    A    
C12   C23   S    
Cu1   Cu2   S    
H19   N10   S    
C28   C29   A    
C19   C21   A    
H10   N6    S    
H14   N8    S    
Cu2   O3    S    
C3    C33   A    
Cu1   N1    S    
C1    C31   S    
C7    H4    S    
C20   H12   S    
C17   C19   A    
C22   C25   A    
C12   O2    A    
Cu1   O8    S    
H6    N4    S    
C35   H26   S    
C5    C13   A    
C2    N8    S    
H17   N9    S    
C16   C27   A    
Cu2   N3    S    
Cu2   O6    S    
C27   C30   A    
C17   N7    S    
Cu1   O5    S    
C14   O7    A    
C14   C30   S    
C34   H27   S    
C15   C29   S    
C15   O6    A    
C10   H28   S    
C25   C29   A    
C6    N5    S    
Cu1   O4    S    
H13   N7    S    
C8    H3    S    
C6    C11   A    
C5    C7    A    
C6    C8    A    
Cu2   O2    S    
Cu1   O1    S    
C9    H2    S    
C32   C34   A    
C2    C4    A    
C7    N3    A    
C5    N4    S    
C36   N9    S    
H21   N2    S    
C22   H24   S    
C21   H1    S    
C31   C34   A    
C9    C11   A    
H8    N5    S    
C4    C32   A    
H20   N2    S    
C20   C22   A    
C26   C30   A    
H5    N4    S    
C23   C35   A    
C1    O3    A    
H11   N7    S    
C25   C27   A    
C3    C4    A    
C18   H22   S    
C17   C28   A    
C24   C26   A    
C9    N3    A    
C10   C13   A    
C32   N10   S    
C15   O8    A    
C24   H25   S    
C26   C28   A    
C11   C13   A    
C3    C36   A    
C19   H23   S    
C12   O4    A    
C33   C35   A    
C18   C20   A    
H9    N6    S    
H16   N9    S    
C8    N1    A    
C16   C18   A    
C21   C24   A    
C2    C23   A    
C31   C36   A    
C14   O5    A    
C33   N2    S    
