data_mof_unit_65832.cif
_audit_creation_date              2012-12-10T20:17:23-0500
_audit_creation_method            fapswitch 2.2
_symmetry_space_group_name_H-M    P1
_symmetry_Int_Tables_number       1
_space_group_crystal_system       triclinic
_cell_length_a                    35.520251
_cell_length_b                    35.520236
_cell_length_c                    23.536944
_cell_angle_alpha                 90.000443
_cell_angle_beta                  90.001033
_cell_angle_gamma                 90.004645
_cell_volume                      29696.2725971

loop_
_atom_site_label
_atom_site_type_symbol
_atom_type_description
_atom_site_fract_x
_atom_site_fract_y
_atom_site_fract_z
_atom_type_partial_charge
C1    C     C_R   0.999999 0.426557 0.500000 0.943117
C2    C     C_1   0.266741 0.999979 0.500001 0.156441
C3    C     C_R   0.826336 0.000138 0.448454 -0.132975
C4    C     C_R   0.999777 0.173663 0.551549 -0.132980
C5    C     C_R   0.826338 0.999889 0.551537 -0.132977
C6    C     C_R   0.000024 0.826336 0.551541 -0.132985
C7    C     C_R   0.173661 0.000020 0.551540 -0.132961
C8    C     C_R   0.500109 0.673662 0.948462 -0.132976
C9    C     C_R   0.673665 0.500196 0.948445 -0.133007
C10   C     C_R   0.500302 0.326339 0.948460 -0.132965
C11   C     C_R   0.326336 0.500081 0.948454 -0.132973
C12   C     C_R   0.499864 0.673663 0.051544 -0.132976
C13   C     C_1   0.000022 0.733259 0.500000 0.156442
C14   C     C_R   0.326339 0.499950 0.051535 -0.132976
C15   C     C_R   0.499736 0.326336 0.051546 -0.132993
C16   C     C_R   0.673662 0.499766 0.051555 -0.132975
C17   C     C_R   0.000203 0.134496 0.448385 -0.183387
C18   C     C_R   0.134497 0.999954 0.448390 -0.183399
C19   C     C_R   0.000003 0.865505 0.448390 -0.183384
C20   C     C_R   0.865503 0.000130 0.448386 -0.183359
C21   C     C_R   0.999784 0.134497 0.551618 -0.183362
C22   C     C_R   0.865505 0.999884 0.551608 -0.183410
C23   C     C_R   0.000015 0.865503 0.551610 -0.183389
C24   C     C_1   0.733259 0.000017 0.499994 0.156441
C25   C     C_R   0.134495 0.000028 0.551611 -0.183374
C26   C     C_R   0.500114 0.634495 0.948391 -0.183417
C27   C     C_R   0.634498 0.500203 0.948376 -0.183390
C28   C     C_R   0.500289 0.365505 0.948388 -0.183362
C29   C     C_R   0.365503 0.500073 0.948387 -0.183342
C30   C     C_R   0.499871 0.634497 0.051612 -0.183354
C31   C     C_R   0.365505 0.499943 0.051608 -0.183430
C32   C     C_R   0.499730 0.365502 0.051614 -0.183395
C33   C     C_R   0.634495 0.499778 0.051625 -0.183332
C34   C     C_R   0.999996 0.114638 0.500001 -0.050099
C35   C     C_1   0.499983 0.766741 0.000004 0.156442
C36   C     C_R   0.114638 0.999995 0.500001 -0.050122
C37   C     C_R   0.000005 0.885362 0.499999 -0.050122
C38   C     C_R   0.885362 0.000004 0.499998 -0.050117
C39   C     C_R   0.499996 0.614638 0.000001 -0.050118
C40   C     C_R   0.614638 0.499995 0.000001 -0.050075
C41   C     C_R   0.500005 0.385362 1.000000 -0.050106
C42   C     C_R   0.385362 0.500004 0.999998 -0.050120
C43   C     C_R   0.999986 0.193104 0.500003 0.135041
C44   C     C_R   0.193104 0.999978 0.500000 0.135009
C45   C     C_R   0.000023 0.806896 0.500002 0.135008
C46   C     C_1   0.766742 0.499978 0.000002 0.156431
C47   C     C_R   0.806896 0.000017 0.499994 0.135016
C48   C     C_R   0.499983 0.693103 0.000004 0.135014
C49   C     C_R   0.693104 0.499976 0.999999 0.135076
C50   C     C_R   0.500024 0.306896 0.000004 0.135027
C51   C     C_R   0.306896 0.500019 0.999994 0.135011
C52   C     C_1   0.999984 0.233107 0.500003 -0.012634
C53   C     C_1   0.233106 0.999977 0.500000 -0.012637
C54   C     C_1   0.000024 0.766894 0.500001 -0.012637
C55   C     C_1   0.766894 0.000018 0.499994 -0.012637
C56   C     C_1   0.499982 0.733106 0.000004 -0.012637
C57   C     C_1   0.500022 0.233258 0.000002 0.156468
C58   C     C_1   0.733107 0.499975 0.000001 -0.012632
C59   C     C_1   0.500025 0.266893 0.000003 -0.012644
C60   C     C_1   0.266894 0.500020 0.999993 -0.012637
C61   C     C_1   0.233259 0.500019 0.999994 0.156440
C62   C     C_R   0.965796 0.326296 0.499963 0.605102
C63   C     C_R   0.326294 0.034181 0.500162 0.605101
C64   C     C_R   0.034208 0.673703 0.500131 0.605101
C65   C     C_R   0.426557 0.999998 0.500000 0.943115
C66   C     C_R   0.673705 0.965817 0.499954 0.605101
C67   C     C_R   0.034184 0.326295 0.500043 0.605099
C68   C     C_R   0.673704 0.034205 0.500038 0.605102
C69   C     C_R   0.965820 0.673706 0.499868 0.605102
C70   C     C_R   0.326297 0.965793 0.499841 0.605100
C71   C     C_R   0.465795 0.826296 0.999957 0.605104
C72   C     C_R   0.826294 0.534180 0.000038 0.605101
C73   C     C_R   0.534203 0.173702 0.000122 0.605103
C74   C     C_R   0.173706 0.465818 0.999957 0.605100
C75   C     C_R   0.534183 0.826295 0.000049 0.605100
C76   C     C_R   0.000002 0.573443 0.500000 0.943115
C77   C     C_R   0.173704 0.534207 0.000034 0.605103
C78   C     C_R   0.465825 0.173706 0.999879 0.605104
C79   C     C_R   0.826297 0.465792 0.999966 0.605100
C80   C     C_R   0.965800 0.365468 0.499962 -0.269609
C81   C     C_R   0.365466 0.034185 0.500160 -0.269607
C82   C     C_R   0.034202 0.634531 0.500130 -0.269608
C83   C     C_R   0.634533 0.965814 0.499956 -0.269609
C84   C     C_R   0.034187 0.365468 0.500041 -0.269607
C85   C     C_R   0.634532 0.034201 0.500039 -0.269609
C86   C     C_R   0.965815 0.634534 0.499870 -0.269608
C87   C     C_R   0.573443 0.000001 0.500000 0.943116
C88   C     C_R   0.365469 0.965798 0.499843 -0.269608
C89   C     C_R   0.465799 0.865468 0.999957 -0.269610
C90   C     C_R   0.865466 0.534185 0.000037 -0.269612
C91   C     C_R   0.534197 0.134530 0.000120 -0.269618
C92   C     C_R   0.134533 0.465814 0.999960 -0.269608
C93   C     C_R   0.534186 0.865467 0.000047 -0.269608
C94   C     C_R   0.134531 0.534202 0.000035 -0.269607
C95   C     C_R   0.465820 0.134533 0.999880 -0.269622
C96   C     C_R   0.865470 0.465798 0.999966 -0.269607
C97   C     C_R   0.999995 0.385328 0.500001 -0.226972
C98   C     C_R   0.499999 0.926557 0.000000 0.943115
C99   C     C_R   0.385327 0.999994 0.500001 -0.226972
C100  C     C_R   0.000006 0.614672 0.500000 -0.226973
C101  C     C_R   0.614672 0.000005 0.499998 -0.226973
C102  C     C_R   0.499995 0.885327 0.000001 -0.226974
C103  C     C_R   0.885328 0.499994 0.000001 -0.226974
C104  C     C_R   0.500006 0.114672 0.000000 -0.227009
C105  C     C_R   0.114672 0.500006 0.999998 -0.226971
C106  C     C_R   0.999988 0.306791 0.500003 -0.165536
C107  C     C_R   0.306791 0.999984 0.500001 -0.165539
C108  C     C_R   0.000017 0.693209 0.500000 -0.165536
C109  C     C_R   0.926557 0.499998 0.000000 0.943118
C110  C     C_R   0.693209 0.000013 0.499995 -0.165535
C111  C     C_R   0.499987 0.806791 0.000003 -0.165532
C112  C     C_R   0.806791 0.499984 0.000002 -0.165530
C113  C     C_R   0.500017 0.193209 0.000001 -0.165445
C114  C     C_R   0.193209 0.500014 0.999995 -0.165540
C115  C     C_R   0.926567 0.000000 0.499999 0.881466
C116  C     C_R   1.000000 0.073433 0.500000 0.881463
C117  C     C_R   0.073433 0.000000 0.500000 0.881469
C118  C     C_R   1.000000 0.926567 0.500000 0.881470
C119  C     C_R   0.426567 0.500000 1.000000 0.881467
C120  C     C_R   0.500001 0.073442 1.000000 0.943124
C121  C     C_R   0.500000 0.573433 0.000000 0.881467
C122  C     C_R   0.573433 0.500000 0.000000 0.881460
C123  C     C_R   0.500000 0.426567 1.000000 0.881465
C124  C     C_R   0.000000 0.500000 0.609448 0.904560
C125  C     C_R   0.500000 0.000000 0.609448 0.904561
C126  C     C_R   1.000000 0.500000 0.390552 0.904561
C127  C     C_R   0.500000 1.000000 0.390552 0.904561
C128  C     C_R   0.500000 1.000000 0.109448 0.904560
C129  C     C_R   1.000000 0.500000 0.109448 0.904561
C130  C     C_R   0.500000 0.000000 0.890552 0.904561
C131  C     C_R   0.073443 0.500001 1.000000 0.943116
C132  C     C_R   0.000000 0.500000 0.890552 0.904561
C133  C     C_1   0.000001 0.500000 0.669626 -0.167719
C134  C     C_1   0.499999 0.000000 0.669626 -0.167719
C135  C     C_1   0.999999 0.500000 0.330374 -0.167719
C136  C     C_1   0.500000 1.000000 0.330374 -0.167719
C137  C     C_1   0.500001 1.000000 0.169626 -0.167719
C138  C     C_1   0.999999 0.500000 0.169626 -0.167720
C139  C     C_1   0.499999 0.000000 0.830374 -0.167719
C140  C     C_1   0.000000 0.500000 0.830374 -0.167719
C141  C     C_1   0.000001 0.500000 0.720382 0.023487
C142  C     C_1   0.999985 0.266741 0.500004 0.156436
C143  C     C_1   0.499999 0.000000 0.720382 0.023487
C144  C     C_1   0.999999 0.500000 0.279618 0.023487
C145  C     C_1   0.500001 1.000000 0.279618 0.023487
C146  C     C_1   0.500001 1.000000 0.220382 0.023487
C147  C     C_1   0.999999 0.500000 0.220382 0.023487
C148  C     C_1   0.499999 0.000000 0.779618 0.023487
C149  C     C_1   0.000001 0.500000 0.779618 0.023487
C150  C     C_R   0.000200 0.173662 0.448456 -0.132984
C151  C     C_R   0.173663 0.999945 0.448460 -0.132986
C152  C     C_R   0.000013 0.826339 0.448461 -0.132962
F1    F     F_    0.932532 0.307444 0.499923 -0.638610
F2    F     F_    0.807441 0.567439 0.000073 -0.638613
F3    F     F_    0.567462 0.192552 0.000242 -0.638643
F4    F     F_    0.192558 0.432558 0.999918 -0.638610
F5    F     F_    0.567442 0.807442 0.000096 -0.638613
F6    F     F_    0.192554 0.567470 0.000072 -0.638609
F7    F     F_    0.432571 0.192559 0.999760 -0.638643
F8    F     F_    0.807447 0.432528 0.999932 -0.638613
F9    F     F_    0.307441 0.067440 0.500320 -0.638611
F10   F     F_    0.067472 0.692553 0.500261 -0.638609
F11   F     F_    0.692558 0.932557 0.499910 -0.638612
F12   F     F_    0.067444 0.307443 0.500084 -0.638612
F13   F     F_    0.692555 0.067469 0.500079 -0.638610
F14   F     F_    0.932561 0.692559 0.499739 -0.638612
F15   F     F_    0.307446 0.932529 0.499682 -0.638608
F16   F     F_    0.432532 0.807445 0.999911 -0.638611
H1    H     H_    0.000365 0.188759 0.408445 0.147750
H2    H     H_    0.688763 0.500363 0.908427 0.147735
H3    H     H_    0.500529 0.311243 0.908451 0.147761
H4    H     H_    0.311238 0.500134 0.908447 0.147764
H5    H     H_    0.499766 0.688761 0.091551 0.147762
H6    H     H_    0.311243 0.499901 0.091541 0.147754
H7    H     H_    0.499516 0.311238 0.091555 0.147748
H8    H     H_    0.688757 0.499593 0.091572 0.147751
H9    H     H_    0.000374 0.119819 0.408055 0.163278
H10   H     H_    0.119820 0.999928 0.408066 0.163288
H11   H     H_    0.999995 0.880184 0.408065 0.163298
H12   H     H_    0.188761 0.999914 0.408453 0.147754
H13   H     H_    0.880179 0.000227 0.408061 0.163299
H14   H     H_    0.999617 0.119820 0.591947 0.163285
H15   H     H_    0.880183 0.999782 0.591935 0.163285
H16   H     H_    0.000016 0.880179 0.591934 0.163292
H17   H     H_    0.119817 0.000061 0.591936 0.163301
H18   H     H_    0.500214 0.619817 0.908065 0.163283
H19   H     H_    0.619823 0.500379 0.908040 0.163255
H20   H     H_    0.500511 0.380184 0.908060 0.163293
H21   H     H_    0.380179 0.500122 0.908063 0.163307
H22   H     H_    0.499776 0.619820 0.091937 0.163301
H23   H     H_    0.000012 0.811243 0.408455 0.147763
H24   H     H_    0.380183 0.499888 0.091933 0.163281
H25   H     H_    0.499499 0.380178 0.091940 0.163276
H26   H     H_    0.619817 0.499610 0.091963 0.163281
H27   H     H_    0.939092 0.380179 0.499929 0.205916
H28   H     H_    0.380176 0.060895 0.500287 0.205915
H29   H     H_    0.060909 0.619819 0.500234 0.205919
H30   H     H_    0.619823 0.939104 0.499923 0.205917
H31   H     H_    0.060897 0.380178 0.500073 0.205918
H32   H     H_    0.619820 0.060908 0.500073 0.205917
H33   H     H_    0.939105 0.619824 0.499766 0.205916
H34   H     H_    0.811239 0.000238 0.408446 0.147761
H35   H     H_    0.380181 0.939091 0.499715 0.205918
H36   H     H_    0.439093 0.880179 0.999919 0.205918
H37   H     H_    0.880176 0.560895 0.000064 0.205917
H38   H     H_    0.560899 0.119818 0.000216 0.205927
H39   H     H_    0.119823 0.439104 0.999929 0.205916
H40   H     H_    0.560896 0.880177 0.000084 0.205918
H41   H     H_    0.119820 0.560909 0.000067 0.205917
H42   H     H_    0.439114 0.119824 0.999784 0.205925
H43   H     H_    0.880181 0.439091 0.999938 0.205919
H44   H     H_    0.999608 0.188760 0.591561 0.147754
H45   H     H_    0.811242 0.999793 0.591543 0.147754
H46   H     H_    0.000031 0.811238 0.591548 0.147756
H47   H     H_    0.188758 0.000046 0.591546 0.147764
H48   H     H_    0.500203 0.688758 0.908456 0.147754
O1    O     O_R   0.031300 0.444560 0.499980 -0.620720
O2    O     O_R   0.944560 0.468700 0.999980 -0.620728
O3    O     O_R   0.468700 0.055440 0.999980 -0.620719
O4    O     O_R   0.055440 0.531300 0.999980 -0.620725
O5    O     O_R   0.468700 0.944560 0.000020 -0.620726
O6    O     O_R   0.055440 0.468700 0.000020 -0.620719
O7    O     O_R   0.531300 0.055440 0.000020 -0.620728
O8    O     O_R   0.944560 0.531300 0.000020 -0.620719
O9    O     O_R   0.031300 0.500000 0.582760 -0.610220
O10   O     O_R   0.500000 0.968700 0.582760 -0.610204
O11   O     O_R   0.968700 0.500000 0.582760 -0.610206
O12   O     O_R   0.444560 0.968700 0.499980 -0.620726
O13   O     O_R   0.500000 0.031300 0.582760 -0.610221
O14   O     O_R   0.968700 0.500000 0.417240 -0.610220
O15   O     O_R   0.500000 0.968700 0.417240 -0.610221
O16   O     O_R   0.031300 0.500000 0.417240 -0.610205
O17   O     O_R   0.500000 0.031300 0.417240 -0.610204
O18   O     O_R   0.531300 0.000000 0.082760 -0.610219
O19   O     O_R   1.000000 0.468700 0.082760 -0.610210
O20   O     O_R   0.468700 0.000000 0.082760 -0.610206
O21   O     O_R   1.000000 0.531300 0.082760 -0.610215
O22   O     O_R   0.468700 0.000000 0.917240 -0.610219
O23   O     O_R   0.968700 0.555440 0.499980 -0.620718
O24   O     O_R   1.000000 0.468700 0.917240 -0.610216
O25   O     O_R   0.531300 0.000000 0.917240 -0.610206
O26   O     O_R   1.000000 0.531300 0.917240 -0.610210
O27   O     O_R   0.944690 0.999980 0.546690 -0.620337
O28   O     O_R   0.999980 0.055310 0.546690 -0.620301
O29   O     O_R   0.055310 0.000020 0.546690 -0.620292
O30   O     O_R   0.000020 0.944690 0.546690 -0.620322
O31   O     O_R   0.055310 0.999980 0.453310 -0.620335
O32   O     O_R   0.000020 0.055310 0.453310 -0.620322
O33   O     O_R   0.944690 0.000020 0.453310 -0.620290
O34   O     O_R   0.555440 0.031300 0.499980 -0.620725
O35   O     O_R   0.999980 0.944690 0.453310 -0.620305
O36   O     O_R   0.444690 0.499980 0.046690 -0.620359
O37   O     O_R   0.499980 0.555310 0.046690 -0.620283
O38   O     O_R   0.555310 0.500020 0.046690 -0.620269
O39   O     O_R   0.500020 0.444690 0.046690 -0.620340
O40   O     O_R   0.555310 0.499980 0.953310 -0.620351
O41   O     O_R   0.500020 0.555310 0.953310 -0.620345
O42   O     O_R   0.444690 0.500020 0.953310 -0.620269
O43   O     O_R   0.499980 0.444690 0.953310 -0.620284
O44   O     O_R   0.968700 0.444560 0.500020 -0.620726
O45   O     O_R   0.555440 0.968700 0.500020 -0.620719
O46   O     O_R   0.031300 0.555440 0.500020 -0.620726
O47   O     O_R   0.444560 0.031300 0.500020 -0.620718
O48   O     O_R   0.531300 0.944560 0.999980 -0.620719
Zn1   Zn    Zn3+2 0.041800 0.500000 0.500000 1.000353
Zn2   Zn    Zn3+2 0.000000 0.000000 0.437610 0.972109
Zn3   Zn    Zn3+2 0.500000 0.500000 0.062390 0.972106
Zn4   Zn    Zn3+2 0.500000 0.500000 0.937610 0.972106
Zn5   Zn    Zn3+2 0.500000 0.958200 0.500000 1.000354
Zn6   Zn    Zn3+2 0.958200 0.500000 0.500000 1.000353
Zn7   Zn    Zn3+2 0.500000 0.041800 0.500000 1.000353
Zn8   Zn    Zn3+2 0.541800 0.000000 0.000000 1.000355
Zn9   Zn    Zn3+2 0.000000 0.458200 0.000000 1.000352
Zn10  Zn    Zn3+2 0.458200 0.000000 0.000000 1.000355
Zn11  Zn    Zn3+2 0.000000 0.541800 0.000000 1.000354
Zn12  Zn    Zn3+2 1.000000 0.000000 0.562390 0.972108

loop_
_geom_bond_atom_site_label_1
_geom_bond_atom_site_label_2
_ccdc_geom_bond_type
C125  C134  S    
C128  O20   A    
C87   O34   A    
C72   C112  A    
C94   C105  A    
C4    C21   A    
C31   C42   A    
C46   C112  S    
C29   C42   A    
C8    C26   A    
C28   C41   A    
C17   C150  A    
C91   C104  A    
C12   C48   A    
C70   C88   A    
C91   H38   S    
O46   Zn1   S    
C116  O28   A    
C145  C146  S    
C141  C149  S    
C15   C32   A    
C105  C131  S    
O21   Zn11  S    
O24   Zn9   S    
C24   C55   T    
C5    C47   A    
C75   C93   A    
C126  C135  S    
C67   C84   A    
C79   C112  A    
C63   C81   A    
C76   O23   A    
C84   C97   A    
C62   C80   A    
C126  O14   A    
O26   Zn11  S    
C152  H23   S    
C125  O13   A    
O12   Zn5   S    
C13   C108  S    
O10   Zn5   S    
C122  O40   A    
C80   C97   A    
C130  O25   A    
C103  C109  S    
C43   C52   S    
C57   C59   T    
C150  H1    S    
O32   Zn2   S    
C131  O6    A    
C34   C116  S    
C127  C136  S    
C22   C38   A    
C98   O5    A    
C77   C94   A    
C73   C113  A    
O16   Zn1   S    
C48   C56   S    
C15   C50   A    
C74   C92   A    
O8    Zn11  S    
C14   C31   A    
C69   F14   S    
C85   C101  A    
C109  O2    A    
C19   C37   A    
C66   C83   A    
C87   C101  S    
O31   Zn2   S    
C67   F12   S    
C62   F1    S    
C37   C118  S    
C116  O32   A    
O28   Zn12  S    
C71   C111  A    
C30   C39   A    
C134  C143  T    
C32   C41   A    
C106  C142  S    
O43   Zn4   S    
C123  O39   A    
C3    C47   A    
C86   C100  A    
C45   C54   S    
C87   O45   A    
O45   Zn5   S    
C136  C145  T    
C75   C111  A    
C77   F6    S    
C1    O44   A    
C129  O21   A    
C68   F13   S    
C75   F5    S    
O47   Zn7   S    
C118  O35   A    
O40   Zn4   S    
O42   Zn4   S    
C11   H4    S    
O48   Zn8   S    
C96   H43   S    
C46   C58   T    
O4    Zn11  S    
C68   C85   A    
C20   H13   S    
C9    H2    S    
C65   O47   A    
O41   Zn4   S    
O34   Zn7   S    
C144  C147  S    
C130  C139  S    
C44   C53   S    
C26   H18   S    
O9    Zn1   S    
C69   C108  A    
C64   C108  A    
C117  O31   A    
C84   H31   S    
C128  O18   A    
C143  C148  S    
C139  C148  T    
O38   Zn3   S    
C127  O17   A    
C44   C151  A    
C72   F2    S    
C5    C22   A    
C6    C45   A    
C74   F4    S    
C33   C40   A    
C124  O9    A    
C137  C146  T    
O5    Zn10  S    
C9    C49   A    
C16   C49   A    
C73   C91   A    
C82   H29   S    
C64   F10   S    
C68   C110  A    
C1    C97   S    
C79   F8    S    
C57   C113  S    
C21   C34   A    
O14   Zn6   S    
C18   H10   S    
C123  O43   A    
C10   H3    S    
C98   C102  S    
C65   C99   S    
C31   H24   S    
O3    Zn10  S    
O37   Zn3   S    
C49   C58   S    
C65   O12   A    
C60   C61   T    
O33   Zn2   S    
C70   F15   S    
C126  O16   A    
C128  C137  S    
C8    C48   A    
C122  O38   A    
C22   H15   S    
C21   H14   S    
C90   H37   S    
C72   C90   A    
C26   C39   A    
C78   F7    S    
O36   Zn3   S    
C14   C51   A    
C86   H33   S    
C78   C95   A    
C5    H45   S    
C73   F3    S    
C89   C102  A    
C127  O15   A    
C19   C152  A    
C24   C110  S    
C3    C20   A    
C27   H19   S    
C7    C44   A    
C66   C110  A    
C83   H30   S    
C121  O37   A    
C36   C117  S    
C109  O8    A    
O35   Zn2   S    
C64   C82   A    
C89   H36   S    
C43   C150  A    
C25   H17   S    
C71   C89   A    
C115  O27   A    
C124  C133  S    
C85   H32   S    
C132  O26   A    
C135  C144  T    
C129  O19   A    
C33   H26   S    
C120  O7    A    
O1    Zn1   S    
C71   F16   S    
O29   Zn12  S    
C2    C107  S    
C129  C138  S    
C29   H21   S    
C78   C113  A    
C76   C100  S    
C17   C34   A    
C50   C59   S    
C63   C107  A    
C18   C151  A    
C10   C50   A    
C19   H11   S    
C124  O11   A    
C35   C111  S    
C95   C104  A    
C9    C27   A    
C47   C55   S    
C13   C54   T    
C39   C121  S    
C10   C28   A    
C63   F9    S    
C80   H27   S    
C76   O46   A    
C130  O22   A    
C83   C101  A    
O23   Zn6   S    
C12   C30   A    
C35   C56   T    
C6    H46   S    
C95   H42   S    
C82   C100  A    
C32   H25   S    
C8    H48   S    
C2    C53   T    
C7    C25   A    
C93   C102  A    
O17   Zn7   S    
C1    O1    A    
C118  O30   A    
C67   C106  A    
O18   Zn8   S    
C115  O33   A    
C4    C43   A    
C117  O29   A    
C132  C140  S    
C81   C99   A    
C133  C141  T    
C4    H44   S    
O25   Zn8   S    
C15   H7    S    
C70   C107  A    
C45   C152  A    
O2    Zn9   S    
C41   C123  S    
O6    Zn9   S    
C28   H20   S    
C132  O24   A    
O7    Zn8   S    
C14   H6    S    
C16   C33   A    
C23   C37   A    
C119  O36   A    
C81   H28   S    
C27   C40   A    
C38   C115  S    
O13   Zn7   S    
C40   C122  S    
C151  H12   S    
O39   Zn3   S    
C120  O3    A    
O19   Zn9   S    
C6    C23   A    
O15   Zn5   S    
C23   H16   S    
C140  C149  T    
C66   F11   S    
C20   C38   A    
O20   Zn10  S    
C30   H22   S    
C88   H35   S    
O44   Zn6   S    
C77   C114  A    
C42   C119  S    
O11   Zn6   S    
C52   C142  T    
C90   C103  A    
C88   C99   A    
C11   C51   A    
C16   H8    S    
C25   C36   A    
O30   Zn12  S    
C98   O48   A    
C92   C105  A    
C79   C96   A    
C119  O42   A    
C11   C29   A    
C94   H41   S    
C62   C106  A    
C96   C103  A    
C61   C114  S    
C92   H39   S    
C3    H34   S    
C138  C147  T    
C131  O4    A    
C17   H9    S    
C51   C60   S    
O22   Zn10  S    
C93   H40   S    
C18   C36   A    
O27   Zn12  S    
C7    H47   S    
C69   C86   A    
C125  O10   A    
C121  O41   A    
C12   H5    S    
C104  C120  S    
C74   C114  A    
