data_mof_unit_51972.cif
_audit_creation_date              2013-03-05T15:48:11-0500
_audit_creation_method            fapswitch 2.2
_symmetry_space_group_name_H-M    P1
_symmetry_Int_Tables_number       1
_space_group_crystal_system       triclinic
_cell_length_a                    20.916087
_cell_length_b                    7.130715
_cell_length_c                    14.084864
_cell_angle_alpha                 90.000317
_cell_angle_beta                  98.355356
_cell_angle_gamma                 89.999158
_cell_volume                      2078.41311854

loop_
_atom_site_label
_atom_site_type_symbol
_atom_site_description
_atom_site_fract_x
_atom_site_fract_y
_atom_site_fract_z
_atom_type_partial_charge
O1    O     O_R   0.447130 0.507140 0.597350 -0.580340
O2    O     O_R   0.552870 0.007140 0.402650 -0.580336
O3    O     O_R   0.578910 0.181280 0.586990 -0.582795
O4    O     O_R   0.421090 0.681280 0.413010 -0.582789
C1    C     C_R   0.604503 0.344471 0.607291 0.994900
C2    C     C_R   0.395497 0.844473 0.392709 0.994897
O5    O     O_R   0.449230 0.177860 0.608640 -0.592237
O6    O     O_R   0.550770 0.677860 0.391360 -0.592235
O7    O     O_R   0.422260 0.000770 0.424450 -0.592762
O8    O     O_R   0.577740 0.500770 0.575550 -0.592764
C3    C     C_R   0.433017 0.346812 0.634429 0.959314
C4    C     C_R   0.566983 0.846809 0.365571 0.959304
O9    O     O_3   0.491310 0.336980 0.439550 -0.280856
O10   O     O_3   0.508690 0.836980 0.560450 -0.280861
V1    V     V_3+5 0.501610 0.064760 0.511210 1.231111
V2    V     V_3+5 0.498390 0.564760 0.488790 1.231114
C5    C     C_R   0.614107 0.947799 0.124592 0.263501
C6    C     C_R   0.385894 0.447884 0.875399 0.263490
H1    H     H_    0.524754 0.935248 0.182528 0.153124
H2    H     H_    0.475246 0.435322 0.817462 0.153119
H3    H     H_    0.697267 0.952073 0.997225 0.196216
H4    H     H_    0.302736 0.452234 0.002765 0.196249
C7    C     C_R   0.605712 0.861525 0.288117 -0.160416
C8    C     C_R   0.394290 0.361536 0.711885 -0.160419
C9    C     C_R   0.916653 0.845817 0.299720 -0.223649
C10   C     C_R   0.083352 0.345747 0.700289 -0.223666
C11   C     C_R   0.881399 0.870679 0.374728 -0.156438
C12   C     C_R   0.118605 0.370583 0.625278 -0.156441
C13   C     C_R   0.815024 0.906322 0.357057 0.346762
C14   C     C_R   0.184977 0.406256 0.642945 0.346756
C15   C     C_R   0.781473 0.894356 0.261250 -0.061004
C16   C     C_R   0.218529 0.394348 0.738752 -0.061013
C17   C     C_R   0.818456 0.883087 0.183574 -0.084508
C18   C     C_R   0.181547 0.383109 0.816430 -0.084484
C19   C     C_R   0.712506 0.893538 0.239809 0.099182
C20   C     C_R   0.287496 0.393554 0.760192 0.099190
C21   C     C_R   0.682123 0.930387 0.144752 0.016827
C22   C     C_R   0.317879 0.430459 0.855243 0.016827
C23   C     C_R   0.719679 0.937075 0.070984 -0.238081
C24   C     C_R   0.280323 0.437188 0.929010 -0.238105
C25   C     C_R   0.785536 0.898205 0.088058 0.315422
C26   C     C_R   0.214467 0.398290 0.911945 0.315384
C27   C     C_R   0.672697 0.845517 0.308735 -0.122997
C28   C     C_R   0.327306 0.345502 0.691271 -0.123014
C29   C     C_R   0.576707 0.917396 0.197215 -0.185422
C30   C     C_R   0.423294 0.417454 0.802778 -0.185413
C31   C     C_R   0.886908 0.860618 0.204757 -0.138584
C32   C     C_R   0.113096 0.360608 0.795250 -0.138554
H5    H     H_    0.692706 0.793666 0.378839 0.144712
H6    H     H_    0.307299 0.293613 0.621175 0.144717
H7    H     H_    0.968557 0.827656 0.316001 0.130920
H8    H     H_    0.031450 0.327557 0.684010 0.130921
H9    H     H_    0.907018 0.875374 0.447264 0.165195
H10   H     H_    0.092986 0.375232 0.552742 0.165198
C33   C     C_1   0.166206 0.857044 0.169273 -0.149050
C34   C     C_1   0.833795 0.357045 0.830725 -0.149015
C35   C     C_1   0.218639 0.854795 0.220361 0.132152
C36   C     C_1   0.781361 0.354794 0.779637 0.132118
C37   C     C_1   0.280486 0.853338 0.280119 0.119934
C38   C     C_1   0.719514 0.353335 0.719880 0.119919
C39   C     C_1   0.332977 0.851037 0.331063 -0.239366
C40   C     C_1   0.667023 0.351033 0.668936 -0.239368
O11   O     O_R   0.922300 0.202240 0.924350 -0.562923
O12   O     O_R   0.077700 0.702240 0.075650 -0.562965
O13   O     O_R   0.050780 0.535130 0.891350 -0.604176
O14   O     O_R   0.949220 0.035130 0.108650 -0.604134
C41   C     C_R   0.070010 0.368391 0.868654 0.975159
C42   C     C_R   0.929993 0.868392 0.131350 0.975139
O15   O     O_R   0.921100 0.531560 0.912990 -0.551452
O16   O     O_R   0.078900 0.031560 0.087010 -0.551435
O17   O     O_R   0.947120 0.708470 0.097370 -0.573936
O18   O     O_R   0.052880 0.208470 0.902630 -0.573904
C43   C     C_R   0.896138 0.363454 0.892859 0.985174
C44   C     C_R   0.103862 0.863453 0.107140 0.985141
O19   O     O_3   0.008710 0.375800 0.060400 -0.277063
O20   O     O_3   0.991290 0.875800 0.939600 -0.277049
V3    V     V_3+5 0.998380 0.648080 0.988790 1.274412
V4    V     V_3+5 0.001620 0.148080 0.011210 1.274436
I1    I     I_    0.563242 0.021357 0.987552 -0.349798
I2    I     I_    0.436759 0.521491 0.012431 -0.349808
N1    N     N_R   0.785190 0.980311 0.434860 0.216524
O21   O     O_R   0.801886 0.917521 0.521691 -0.405818
O22   O     O_R   0.749347 0.129982 0.421897 -0.404562
N2    N     N_R   0.214807 0.480215 0.565131 0.216526
O23   O     O_R   0.198116 0.417375 0.478309 -0.405807
O24   O     O_R   0.250643 0.629900 0.578075 -0.404560
N3    N     N_R   0.815254 0.849457 0.006567 0.220035
O25   O     O_R   0.821384 0.672274 0.988686 -0.412623
O26   O     O_R   0.813844 0.968437 0.936368 -0.409726
N4    N     N_R   0.184754 0.349569 0.993445 0.220041
O27   O     O_R   0.186236 0.468469 0.063689 -0.409752
O28   O     O_R   0.178558 0.172397 0.011275 -0.412595

loop_
_geom_bond_atom_site_label_1
_geom_bond_atom_site_label_2
_geom_bond_distance
_ccdc_geom_bond_type
O14   C42   1.309565 A    
N3    O25   1.298283 A    
C7    C29   1.392942 A    
C11   C13   1.397671 A    
O12   V3    1.951540 S    
O15   V3    1.985301 S    
O1    C3    1.308332 A    
O2    C4    1.308334 A    
C2    O7    1.297167 A    
N1    O21   1.301552 A    
C23   C25   1.391340 A    
O5    C3    1.316862 A    
C4    C7    1.454020 S    
C16   C20   1.430210 A    
C2    C39   1.461533 S    
C19   C21   1.420627 A    
C5    C29   1.392043 A    
C35   C37   1.437188 S    
O16   V4    1.985284 S    
C36   C38   1.437188 S    
C3    C8    1.454016 S    
C5    I1    2.129751 S    
C7    C27   1.393599 A    
C38   C40   1.221305 T    
C41   O18   1.306758 A    
O18   V4    2.037248 S    
C33   C44   1.461737 S    
O13   C41   1.309562 A    
C18   C26   1.423543 A    
O16   C44   1.321699 A    
C15   C17   1.430986 A    
O15   C43   1.321703 A    
C19   C27   1.409953 A    
C9    C31   1.394774 A    
C10   C32   1.394770 A    
C24   C26   1.391347 A    
O6    V2    2.042274 S    
C22   C24   1.391418 A    
C14   N2    1.437833 S    
C25   N3    1.425468 S    
C6    C30   1.392040 A    
N1    O22   1.301779 A    
O14   V4    2.042220 S    
C37   C39   1.221306 T    
O13   V3    2.042201 S    
O20   V3    1.763209 S    
O4    C2    1.295368 A    
C12   H10   1.083014 S    
C27   H5    1.080143 S    
O5    V1    2.042255 S    
O11   C43   1.321792 A    
C26   N4    1.425486 S    
C16   C18   1.430987 A    
O4    V2    1.985474 S    
C9    H7    1.084230 S    
C13   N1    1.437835 S    
C10   H8    1.084232 S    
N4    O28   1.298242 A    
H3    C23   1.081171 S    
O6    C4    1.316862 A    
H4    C24   1.081165 S    
H1    C29   1.083733 S    
O1    V2    2.032931 S    
C5    C21   1.415100 A    
N2    O23   1.301548 A    
O2    V1    2.032920 S    
O19   V3    2.184098 S    
C33   C35   1.221244 T    
C17   C31   1.428450 A    
C15   C19   1.430216 A    
C20   C28   1.409953 A    
C18   C32   1.428456 A    
C31   C42   1.467979 S    
O17   V3    2.037240 S    
O3    V1    1.985489 S    
C28   H6    1.080141 S    
C34   C43   1.461740 S    
C13   C15   1.430196 A    
O20   V4    2.184094 S    
O3    C1    1.295369 A    
C11   H9    1.083017 S    
C9    C11   1.384813 A    
C10   C12   1.384808 A    
C8    C30   1.392937 A    
C12   C14   1.397666 A    
O7    V1    1.966381 S    
C17   C25   1.423528 A    
C1    O8    1.297166 A    
C21   C23   1.391421 A    
O8    V2    1.966373 S    
C14   C16   1.430191 A    
N4    O27   1.299900 A    
C42   O17   1.306757 A    
C8    C28   1.393592 A    
C20   C22   1.420620 A    
C34   C36   1.221244 T    
C1    C40   1.461533 S    
C32   C41   1.467976 S    
C6    C22   1.415100 A    
O19   V4    1.763205 S    
C6    I2    2.129747 S    
O9    V2    1.763863 S    
N3    O26   1.299939 A    
O12   C44   1.321794 A    
O10   V1    1.763866 S    
N2    O24   1.301774 A    
H2    C30   1.083731 S    
O11   V4    1.951531 S    
