data_mof_unit_32854.cif
_audit_creation_date              2012-10-26T19:02:37-0400
_audit_creation_method            fapswitch 2.2
_symmetry_space_group_name_H-M    P1
_symmetry_Int_Tables_number       1
_space_group_crystal_system       triclinic
_cell_length_a                    17.146197
_cell_length_b                    8.780533
_cell_length_c                    7.425807
_cell_angle_alpha                 102.71572
_cell_angle_beta                  91.254647
_cell_angle_gamma                 92.477801
_cell_volume                      1088.97067059

loop_
_atom_site_label
_atom_site_type_symbol
_atom_type_description
_atom_site_fract_x
_atom_site_fract_y
_atom_site_fract_z
_atom_type_partial_charge
Br1   Br    Br    0.271607 0.673906 0.213190 -0.367263
Br2   Br    Br    0.728398 0.326100 0.786810 -0.367261
Br3   Br    Br    0.027396 0.263345 0.296575 -0.303155
Br4   Br    Br    0.972607 0.736686 0.703438 -0.303152
Br5   Br    Br    0.094387 0.424503 0.888233 -0.322573
Br6   Br    Br    0.905612 0.575520 0.111775 -0.322574
Br7   Br    Br    0.440194 0.929591 0.194980 -0.346189
Br8   Br    Br    0.559808 0.070409 0.805017 -0.346188
C1    C     C_R   0.497433 0.200362 0.454716 0.582503
C2    C     C_R   0.774874 0.402386 0.588522 0.168334
C3    C     C_R   0.145085 0.610953 0.425719 -0.052433
C4    C     C_R   0.854919 0.389073 0.574293 -0.052431
C5    C     C_R   0.105607 0.559435 0.564727 0.038905
C6    C     C_R   0.894396 0.440595 0.435285 0.038906
C7    C     C_R   0.146678 0.499174 0.696891 0.208481
C8    C     C_R   0.853323 0.500847 0.303118 0.208481
C9    C     C_R   0.227334 0.487211 0.685121 -0.091080
C10   C     C_R   0.772666 0.512800 0.314883 -0.091081
C11   C     C_2   0.020636 0.558165 0.558220 0.183564
C12   C     C_R   0.502567 0.799638 0.545284 0.582502
C13   C     C_2   0.979367 0.441868 0.441791 0.183564
C14   C     C_2   0.489342 0.034601 0.431091 0.119465
C15   C     C_2   0.510659 0.965399 0.568908 0.119465
C16   C     C_R   0.351049 0.510601 0.525366 0.563338
C17   C     C_R   0.648951 0.489399 0.474634 0.563338
C18   C     C_R   0.267013 0.532550 0.540615 -0.003048
C19   C     C_R   0.732988 0.467457 0.459387 -0.003050
C20   C     C_R   0.225129 0.597628 0.411484 0.168334
Cu1   Cu    Cu3+1 0.508700 0.517250 0.683000 1.112475
Cu2   Cu    Cu3+1 0.491300 0.482750 0.317000 1.112476
H1    H     H_    0.741431 0.562294 0.214713 0.179384
H2    H     H_    0.258568 0.437712 0.785288 0.179384
H3    H     H_    0.887121 0.342134 0.675385 0.209708
H4    H     H_    0.112884 0.657897 0.324630 0.209706
H5    H     H_    0.439169 0.379474 0.957111 0.258420
H6    H     H_    0.560831 0.620526 0.042889 0.258420
N1    N     N_2   0.478180 0.456750 0.041980 -0.213940
N2    N     N_2   0.521820 0.543250 0.958020 -0.213940
O1    O     O_R   0.505650 0.286040 0.618880 -0.491976
O2    O     O_R   0.494350 0.713960 0.381120 -0.491976
O3    O     O_R   0.490960 0.256910 0.309800 -0.457042
O4    O     O_R   0.509040 0.743090 0.690200 -0.457042
O5    O     O_R   0.394600 0.516230 0.672450 -0.515588
O6    O     O_R   0.605400 0.483770 0.327550 -0.515587
O7    O     O_R   0.379910 0.487100 0.363380 -0.460293
O8    O     O_R   0.620090 0.512900 0.636620 -0.460293

loop_
_geom_bond_atom_site_label_1
_geom_bond_atom_site_label_2
_ccdc_geom_bond_type
C2    C19   A    
Cu1   N2    S    
Br1   C20   S    
C12   O4    A    
Cu2   O3    S    
N1    N2    D    
Cu1   O4    S    
C17   C19   S    
Br7   C14   S    
Cu2   O7    S    
C1    O3    A    
C12   C15   S    
Cu1   O8    S    
Cu1   O1    S    
H6    N2    S    
Cu2   O2    S    
Cu1   O5    S    
C3    C5    A    
Cu2   O6    S    
Cu1   Cu2   S    
C2    C4    A    
C3    C20   A    
C9    C18   A    
C6    C13   S    
C11   C13   D    
C4    C6    A    
C5    C7    A    
C12   O2    A    
C6    C8    A    
C1    C14   S    
Br3   C13   S    
Br5   C7    S    
C9    H2    S    
C16   O7    A    
Br6   C8    S    
Br2   C2    S    
C1    O1    A    
Br8   C15   S    
C17   O6    A    
C8    C10   A    
C7    C9    A    
C16   O5    A    
C5    C11   S    
C14   C15   D    
C10   H1    S    
H5    N1    S    
C4    H3    S    
Br4   C11   S    
C18   C20   A    
C17   O8    A    
C3    H4    S    
C10   C19   A    
Cu2   N1    S    
C16   C18   S    
