data_mof_unit_39067.cif
_audit_creation_date              2012-12-10T18:50:50-0500
_audit_creation_method            fapswitch 2.2
_symmetry_space_group_name_H-M    P1
_symmetry_Int_Tables_number       1
_space_group_crystal_system       triclinic
_cell_length_a                    10.74319
_cell_length_b                    9.930724
_cell_length_c                    15.767851
_cell_angle_alpha                 90.007745
_cell_angle_beta                  92.669631
_cell_angle_gamma                 90.002084
_cell_volume                      1680.40930225

loop_
_atom_site_label
_atom_site_type_symbol
_atom_type_description
_atom_site_fract_x
_atom_site_fract_y
_atom_site_fract_z
_atom_type_partial_charge
C1    C     C_R   0.260501 0.499999 0.506424 0.959747
C2    C     C_3   0.643346 0.511432 0.955952 0.065405
C3    C     C_3   0.639854 0.511183 0.057412 0.619472
C4    C     C_1   0.500474 0.500080 0.824922 0.200646
C5    C     C_1   0.497355 0.499879 0.174982 0.101722
C6    C     C_1   0.498411 0.499953 0.250105 -0.100150
C7    C     C_R   0.062825 0.376332 0.523080 0.403089
C8    C     C_R   0.062837 0.623667 0.523116 0.403154
C9    C     C_R   0.935199 0.377939 0.516944 -0.209813
C10   C     C_R   0.935210 0.622065 0.516980 -0.209150
C11   C     C_R   0.872157 0.500003 0.510336 -0.156750
C12   C     C_R   0.128318 0.499999 0.518762 -0.260670
C13   C     C_R   0.577966 0.071956 0.555732 0.167744
C14   C     C_R   0.577961 0.928070 0.555734 0.170636
C15   C     C_R   0.499496 0.499990 0.338629 0.936276
C16   C     C_R   0.423826 0.928328 0.444069 0.392238
C17   C     C_R   0.423829 0.071643 0.444067 0.391762
C18   C     C_R   0.739763 0.500002 0.502017 0.900737
C19   C     C_R   0.500390 0.500011 0.661385 0.850391
C20   C     C_3   0.417710 0.630659 0.046992 0.094912
C21   C     C_3   0.436236 0.357885 0.047577 0.093238
C22   C     C_3   0.435830 0.362106 0.945863 0.614396
C23   C     C_3   0.417949 0.626471 0.945296 0.612142
C24   C     C_1   0.500476 0.500044 0.749851 -0.051878
C25   C     C_3   0.496725 0.499815 0.083134 -0.079142
C26   C     C_3   0.500104 0.500077 0.916689 -0.203801
H1    H     H_    0.885532 0.282973 0.517293 0.202791
H2    H     H_    0.885550 0.717029 0.517360 0.202908
N1    N     N_R   0.499970 0.857200 0.499980 -0.150025
N2    N     N_R   0.499970 0.142800 0.499980 -0.150149
O1    O     O_R   0.316750 0.614620 0.499990 -0.534645
O2    O     O_R   0.316750 0.385380 0.499990 -0.534481
O3    O     O_R   0.499990 0.614720 0.377140 -0.574612
O4    O     O_R   0.499990 0.385280 0.377140 -0.577529
O5    O     O_R   0.683220 0.614710 0.500000 -0.644511
O6    O     O_R   0.683220 0.385290 0.500000 -0.645243
O7    O     O_R   0.499980 0.614620 0.622860 -0.612398
O8    O     O_R   0.499980 0.385380 0.622860 -0.610190
Zn1   Zn    Zn3+2 0.499980 0.653120 0.500000 1.051309
Zn2   Zn    Zn3+2 0.499980 0.346880 0.500000 1.050631
Cl1   Cl    Cl    0.263215 0.629438 0.894825 -0.462745
Cl2   Cl    Cl    0.283099 0.334898 0.895530 -0.451862
Cl3   Cl    Cl    0.325526 0.841427 0.370351 -0.460485
Cl4   Cl    Cl    0.325555 0.158510 0.370335 -0.461984
C27   C     C_3   0.282191 0.636824 0.081247 -0.661820
H3    H     H_    0.211396 0.577363 0.046443 0.259478
H4    H     H_    0.280974 0.610754 0.149582 0.231577
H5    H     H_    0.240323 0.738872 0.074917 0.264156
C28   C     C_3   0.303063 0.330262 0.081996 -0.663415
H6    H     H_    0.298385 0.355955 0.150215 0.233675
H7    H     H_    0.224863 0.377732 0.047007 0.259831
H8    H     H_    0.275544 0.222647 0.076198 0.262343
C29   C     C_3   0.508968 0.230912 0.083030 -0.636971
H9    H     H_    0.457359 0.135709 0.069386 0.249957
H10   H     H_    0.597458 0.211305 0.053265 0.274184
H11   H     H_    0.525390 0.236172 0.153010 0.257558
C30   C     C_3   0.472419 0.767772 0.081955 -0.641935
H12   H     H_    0.408436 0.853755 0.067966 0.251106
H13   H     H_    0.489365 0.765128 0.151953 0.260001
H14   H     H_    0.557302 0.801258 0.052101 0.273013
Cl5   Cl    Cl    0.503844 0.215115 0.897924 -0.546682
Cl6   Cl    Cl    0.465536 0.782604 0.896786 -0.531645
Cl7   Cl    Cl    0.723527 0.649679 0.108683 -0.559431
Cl8   Cl    Cl    0.741396 0.387456 0.109249 -0.561035
C31   C     C_3   0.711852 0.639447 0.923081 -0.642112
H15   H     H_    0.813608 0.635936 0.939418 0.265664
H16   H     H_    0.701320 0.648920 0.852953 0.229608
H17   H     H_    0.682877 0.734342 0.951944 0.277576
C32   C     C_3   0.728359 0.395549 0.923606 -0.642002
H18   H     H_    0.712407 0.297105 0.952837 0.276787
H19   H     H_    0.719266 0.384551 0.853520 0.229664
H20   H     H_    0.828554 0.414996 0.939938 0.266271
Cl9   Cl    Cl    0.130950 0.215650 0.539526 -0.447267
Cl10  Cl    Cl    0.130982 0.784341 0.539612 -0.447333
C33   C     C_3   0.666627 0.143027 0.618451 -0.725114
H21   H     H_    0.666942 0.251752 0.614519 0.267557
H22   H     H_    0.643169 0.117636 0.684371 0.253165
H23   H     H_    0.764082 0.112920 0.607865 0.216805
C34   C     C_3   0.666591 0.857024 0.618470 -0.731486
H24   H     H_    0.666919 0.748299 0.614519 0.267639
H25   H     H_    0.764054 0.887146 0.607922 0.217851
H26   H     H_    0.643083 0.882413 0.684386 0.249649

loop_
_geom_bond_atom_site_label_1
_geom_bond_atom_site_label_2
_ccdc_geom_bond_type
C21   C29   S    
C11   C18   S    
C2    C31   S    
C21   C28   S    
C7    Cl9   S    
C29   H9    S    
O3    Zn1   S    
O4    Zn2   S    
C5    C6    T    
C4    C24   T    
C27   H5    S    
C20   C25   S    
C1    O1    A    
C23   C26   S    
C32   H19   S    
C19   O7    A    
C6    C15   S    
C23   Cl6   S    
C13   C33   S    
C16   C17   A    
C31   H16   S    
C2    C32   S    
C18   O5    A    
C15   O4    A    
C20   C27   S    
C31   H17   S    
C29   H10   S    
C21   C22   S    
C17   N2    A    
C1    C12   S    
C27   H4    S    
C7    C12   A    
C13   N2    A    
O6    Zn2   S    
C34   H25   S    
C30   H14   S    
C28   H7    S    
C16   N1    A    
C3    Cl8   S    
C1    O2    A    
C32   H20   S    
O5    Zn1   S    
C33   H21   S    
C19   O8    A    
C9    C11   A    
C20   C23   S    
C3    C25   S    
C8    C12   A    
C28   H8    S    
N1    Zn1   S    
C8    Cl10  S    
N2    Zn2   S    
C2    C26   S    
C14   C34   S    
C33   H22   S    
C16   Cl3   S    
C5    C25   S    
C31   H15   S    
C14   N1    A    
C9    H1    S    
C29   H11   S    
C10   H2    S    
C7    C9    A    
C21   C25   S    
C34   H26   S    
C4    C26   S    
C3    Cl7   S    
C23   Cl1   S    
C2    C3    S    
C17   Cl4   S    
O7    Zn1   S    
C22   Cl5   S    
O8    Zn2   S    
C30   H12   S    
C22   Cl2   S    
O1    Zn1   S    
C19   C24   S    
O2    Zn2   S    
C32   H18   S    
C33   H23   S    
C30   H13   S    
C10   C11   A    
C34   H24   S    
C27   H3    S    
C8    C10   A    
C28   H6    S    
C22   C26   S    
C20   C30   S    
C13   C14   A    
C18   O6    A    
C15   O3    A    
