data_mof_unit_54348.cif
_audit_creation_date              2013-03-05T15:51:28-0500
_audit_creation_method            fapswitch 2.2
_symmetry_space_group_name_H-M    P1
_symmetry_Int_Tables_number       1
_space_group_crystal_system       triclinic
_cell_length_a                    12.057014
_cell_length_b                    12.869585
_cell_length_c                    17.092955
_cell_angle_alpha                 91.910906
_cell_angle_beta                  80.959112
_cell_angle_gamma                 95.533405
_cell_volume                      2606.68953488

loop_
_atom_site_label
_atom_site_type_symbol
_atom_site_description
_atom_site_fract_x
_atom_site_fract_y
_atom_site_fract_z
_atom_type_partial_charge
O1    O     O_R   0.421320 0.658850 0.503920 -0.635075
O2    O     O_R   0.578680 0.341150 0.496080 -0.639733
O3    O     O_R   0.609840 0.646370 0.494500 -0.622867
O4    O     O_R   0.390160 0.353630 0.505500 -0.579263
C1    C     C_R   0.524789 0.700240 0.498721 0.948602
C2    C     C_R   0.475350 0.299372 0.501497 0.838167
O5    O     O_R   0.394600 0.506990 0.621070 -0.649804
O6    O     O_R   0.605400 0.493010 0.378930 -0.651707
O7    O     O_R   0.583120 0.494520 0.611640 -0.551548
O8    O     O_R   0.416880 0.505480 0.388360 -0.617440
C3    C     C_R   0.483831 0.500763 0.653594 0.903023
C4    C     C_R   0.515029 0.496966 0.346452 0.820374
Zn1   Zn    Zn3+2 0.374120 0.508330 0.506290 0.968715
Zn2   Zn    Zn3+2 0.625880 0.491670 0.493710 0.973951
C5    C     C_R   0.469398 0.492888 0.740322 -0.170660
C6    C     C_R   0.516809 0.481394 0.260646 -0.207813
C7    C     C_R   0.546687 0.439619 0.775328 -0.023707
C8    C     C_R   0.424310 0.513488 0.228544 -0.001876
C9    C     C_R   0.529685 0.427692 0.856446 -0.186322
C10   C     C_R   0.399892 0.470362 0.157946 -0.196772
C11   C     C_R   0.440091 0.469659 0.904248 0.065389
C12   C     C_R   0.474227 0.408311 0.111509 0.068267
C13   C     C_R   0.362440 0.523419 0.872074 -0.022095
C14   C     C_R   0.571308 0.380208 0.138870 0.000676
C15   C     C_R   0.374448 0.532634 0.789155 -0.060164
C16   C     C_R   0.594479 0.418708 0.213881 -0.081338
C17   C     C_2   0.440566 0.473290 0.988893 -0.228120
C18   C     C_2   0.458556 0.390849 0.028972 -0.239600
H1    H     H_    0.471661 0.315897 0.999548 0.159320
H2    H     H_    0.431626 0.549046 0.018169 0.166581
H3    H     H_    0.325813 0.491991 0.135842 0.144997
H4    H     H_    0.591098 0.390201 0.883107 0.141795
C19   C     C_R   0.455612 0.186489 0.503978 -0.176619
C20   C     C_R   0.545614 0.812467 0.496812 -0.091100
C21   C     C_R   0.586121 0.954162 0.406533 -0.028686
C22   C     C_R   0.404529 0.041734 0.592395 -0.077381
C23   C     C_R   0.611776 0.858123 0.430007 -0.169526
C24   C     C_R   0.383494 0.139842 0.568466 -0.072379
C25   C     C_R   0.478853 0.871381 0.552561 -0.064948
C26   C     C_R   0.526604 0.127083 0.451103 -0.063749
C27   C     C_R   0.470716 0.977596 0.537847 -0.049437
C28   C     C_R   0.525637 0.019325 0.463473 0.111405
N1    N     N_R   0.206400 0.519440 0.514690 -0.135304
N2    N     N_R   0.793600 0.480560 0.485310 -0.136601
C29   C     C_R   0.951742 0.384914 0.438635 -0.115880
C30   C     C_R   0.049737 0.618708 0.556893 -0.102606
C31   C     C_R   0.837737 0.399418 0.444129 -0.025438
C32   C     C_R   0.162718 0.601883 0.554528 -0.007017
C33   C     C_R   0.858924 0.553977 0.521644 0.054545
C34   C     C_R   0.142068 0.447780 0.476089 0.060568
C35   C     C_R   0.977014 0.545141 0.519098 -0.042265
C36   C     C_R   0.024322 0.457466 0.477433 -0.043838
H5    H     H_    0.217869 0.657087 0.583000 0.132819
H6    H     H_    0.782664 0.344784 0.415639 0.178840
C37   C     C_R   0.649792 0.399056 0.730604 0.134108
C38   C     C_R   0.755843 0.451199 0.737238 -0.056974
C39   C     C_R   0.853348 0.417488 0.692399 -0.129810
C40   C     C_R   0.845688 0.331254 0.641147 -0.143774
C41   C     C_R   0.741110 0.276582 0.636222 -0.110248
C42   C     C_R   0.643412 0.309544 0.681456 -0.109662
H7    H     H_    0.762591 0.519462 0.775625 0.151364
H8    H     H_    0.934680 0.459234 0.696314 0.151685
H9    H     H_    0.920827 0.307540 0.604767 0.143374
H10   H     H_    0.735613 0.209285 0.596815 0.135025
H11   H     H_    0.563413 0.266228 0.677014 0.099058
C43   C     C_R   0.354117 0.596269 0.265557 0.160602
C44   C     C_R   0.402781 0.699033 0.272478 -0.162299
C45   C     C_R   0.339752 0.775225 0.313023 -0.105048
C46   C     C_R   0.226898 0.750099 0.344983 -0.108176
C47   C     C_R   0.175983 0.649402 0.334662 -0.145863
C48   C     C_R   0.239006 0.572893 0.294342 -0.135154
H12   H     H_    0.488833 0.720371 0.245503 0.123229
H13   H     H_    0.378147 0.853840 0.319520 0.174382
H14   H     H_    0.178956 0.809196 0.376835 0.111943
H15   H     H_    0.088006 0.630430 0.358380 0.132704
H16   H     H_    0.198926 0.495197 0.286853 0.095176
C49   C     C_R   0.986949 0.291698 0.392176 0.118356
C50   C     C_R   0.027168 0.299258 0.310750 -0.166166
C51   C     C_R   0.059022 0.210585 0.266596 -0.082895
C52   C     C_R   0.049719 0.113950 0.303297 -0.080232
C53   C     C_R   0.007262 0.105627 0.383992 -0.099145
C54   C     C_R   0.973957 0.193774 0.428147 -0.003816
H17   H     H_    0.033811 0.373587 0.281726 0.139217
H18   H     H_    0.091011 0.216804 0.203961 0.145857
H19   H     H_    0.075087 0.045475 0.269201 0.132271
H20   H     H_    0.000883 0.031062 0.412431 0.094650
H21   H     H_    0.940627 0.186196 0.490496 0.092768
C55   C     C_R   0.016262 0.716529 0.597547 0.085783
C56   C     C_R   0.011747 0.805751 0.553472 -0.193551
C57   C     C_R   0.983723 0.899288 0.592084 -0.144978
C58   C     C_R   0.962314 0.904752 0.674833 -0.058077
C59   C     C_R   0.969081 0.816756 0.719061 -0.062870
C60   C     C_R   0.996527 0.722921 0.680641 -0.089154
H22   H     H_    0.028616 0.802272 0.489480 0.119024
H23   H     H_    0.978706 0.967498 0.557908 0.111368
H24   H     H_    0.940743 0.977168 0.704740 0.129776
H25   H     H_    0.953167 0.821296 0.783126 0.147987
H26   H     H_    0.002038 0.655326 0.715420 0.158566
C61   C     C_2   0.702521 0.399184 0.239941 0.489628
H27   H     H_    0.704396 0.369791 0.298009 0.080761
O9    O     O_2   0.791931 0.416925 0.195830 -0.567332
C62   C     C_2   0.287051 0.582746 0.754698 0.518173
H28   H     H_    0.310973 0.639419 0.708542 0.107053
O10   O     O_2   0.186712 0.558712 0.776463 -0.604232
C63   C     C_2   0.271531 0.571612 0.926763 0.459834
H29   H     H_    0.233839 0.533200 0.981443 0.051191
O11   O     O_2   0.241921 0.656489 0.913324 -0.523762
C64   C     C_2   0.646507 0.310536 0.088674 0.477743
H30   H     H_    0.658445 0.315047 0.024607 0.035400
O12   O     O_2   0.692768 0.244782 0.118260 -0.517858
C65   C     C_2   0.606403 0.181434 0.386652 0.492010
H31   H     H_    0.576471 0.239044 0.352195 0.042953
O13   O     O_2   0.705770 0.164878 0.374037 -0.612265
C66   C     C_2   0.417697 0.817873 0.624490 0.338931
H32   H     H_    0.327086 0.819375 0.640315 0.089581
O14   O     O_2   0.469686 0.772757 0.666721 -0.583638
C67   C     C_R   0.286397 0.191093 0.612070 0.217333
C68   C     C_R   0.177006 0.151857 0.601036 0.038139
C69   C     C_R   0.083041 0.187876 0.648686 -0.166085
C70   C     C_R   0.097419 0.262854 0.708103 -0.106775
C71   C     C_R   0.205891 0.301444 0.719996 -0.080483
C72   C     C_R   0.300166 0.265786 0.672221 -0.106959
H33   H     H_    0.164808 0.091676 0.556545 0.123381
H34   H     H_    0.999222 0.156041 0.640456 0.109059
H35   H     H_    0.024663 0.289641 0.745864 0.145944
H36   H     H_    0.216853 0.356746 0.767704 0.163506
H37   H     H_    0.383116 0.293613 0.683895 0.084544
C73   C     C_R   0.708628 0.808000 0.384923 0.105292
C74   C     C_R   0.692780 0.725075 0.331609 -0.124596
C75   C     C_R   0.785450 0.683285 0.286362 -0.104407
C76   C     C_R   0.894788 0.724557 0.293933 -0.109730
C77   C     C_R   0.911314 0.807716 0.346769 -0.184512
C78   C     C_R   0.818616 0.849221 0.392258 -0.150126
H38   H     H_    0.608901 0.693204 0.325547 0.105240
H39   H     H_    0.772428 0.619759 0.244882 0.166933
H40   H     H_    0.966513 0.692698 0.258428 0.147207
H41   H     H_    0.995751 0.840787 0.351863 0.123283
H42   H     H_    0.832079 0.913820 0.432931 0.138557
C79   C     C_2   0.607089 0.974574 0.319777 0.447790
H43   H     H_    0.681218 0.948983 0.282505 0.102151
O15   O     O_2   0.538369 0.015489 0.288499 -0.585922
C80   C     C_2   0.372362 0.016596 0.677911 0.352974
H44   H     H_    0.435630 0.992733 0.710554 0.108388
O16   O     O_2   0.275770 0.019964 0.711939 -0.559897
C81   C     C_2   0.200204 0.363765 0.431859 0.477129
H45   H     H_    0.249750 0.377912 0.374124 0.061329
O17   O     O_2   0.193824 0.277315 0.460052 -0.603903
C82   C     C_2   0.802908 0.641548 0.562166 0.520848
H46   H     H_    0.799831 0.712131 0.530024 0.059890
O18   O     O_2   0.762085 0.636711 0.632027 -0.559431

loop_
_geom_bond_atom_site_label_1
_geom_bond_atom_site_label_2
_geom_bond_distance
_ccdc_geom_bond_type
N2    C33   1.367422 A    
C37   C38   1.404689 A    
C20   C23   1.397707 A    
C27   C28   1.433676 A    
C75   H39   1.080429 S    
O7    Zn2   2.000645 S    
C73   C74   1.398724 A    
C66   H32   1.085339 S    
C57   C58   1.397960 A    
C39   H8    1.082295 S    
C25   C27   1.413494 A    
C62   H28   1.078826 S    
C49   C50   1.403431 A    
C38   C39   1.396689 A    
O5    C3    1.296354 A    
C63   O11   1.221115 D    
C41   H10   1.082711 S    
O4    Zn1   2.018169 S    
O1    C1    1.299273 A    
C18   H1    1.086476 S    
C9    C11   1.389927 A    
C82   O18   1.219182 D    
C48   H16   1.080491 S    
C15   C62   1.491508 S    
C5    C15   1.432867 A    
C54   H21   1.082377 S    
C13   C63   1.493440 S    
C56   H22   1.080908 S    
C64   H30   1.084617 S    
C44   H12   1.080569 S    
C72   H37   1.075738 S    
C21   C28   1.422256 A    
C22   C80   1.490275 S    
C68   C69   1.395674 A    
C21   C79   1.492420 S    
C58   H24   1.082002 S    
C24   C67   1.484242 S    
C3    C5    1.470960 S    
C50   H17   1.082569 S    
C4    C6    1.470762 S    
C77   C78   1.397639 A    
C33   C35   1.433009 A    
C34   C36   1.433587 A    
C47   C48   1.398700 A    
C14   C64   1.491046 S    
N1    C32   1.346738 A    
C7    C37   1.483975 S    
C8    C10   1.373451 A    
C53   H20   1.080848 S    
N2    C31   1.345211 A    
C16   C61   1.487083 S    
C23   C73   1.484225 S    
C26   C28   1.408446 A    
C43   C44   1.403235 A    
C11   C17   1.446931 S    
C78   H42   1.082474 S    
C41   C42   1.397704 A    
C12   C18   1.459810 S    
C37   C42   1.406203 A    
C17   H2    1.087804 S    
C22   C27   1.424554 A    
O2    C2    1.299115 A    
C9    H4    1.085525 S    
C81   O17   1.218020 D    
C59   H25   1.082236 S    
C81   H45   1.081501 S    
C26   C65   1.488991 S    
C30   C55   1.477210 S    
C29   C31   1.393128 A    
C6    C16   1.426254 A    
C32   H5    1.082252 S    
C30   C32   1.393968 A    
C19   C26   1.403915 A    
C20   C25   1.399750 A    
C57   H23   1.082160 S    
C82   H46   1.083774 S    
O4    C2    1.288532 A    
C76   H40   1.082174 S    
C58   C59   1.398197 A    
C70   H35   1.081896 S    
C45   C46   1.395623 A    
C29   C36   1.435597 A    
C45   H13   1.081016 S    
C69   H34   1.081645 S    
C30   C35   1.435149 A    
C53   C54   1.397592 A    
C44   C45   1.397205 A    
C33   C82   1.467569 S    
C71   H36   1.079827 S    
C67   C72   1.402019 A    
C43   C48   1.404846 A    
C52   H19   1.082355 S    
C61   H27   1.078211 S    
O6    C4    1.304104 A    
C25   C66   1.484297 S    
C1    C20   1.442495 S    
C46   H14   1.080396 S    
C65   O13   1.221568 D    
C69   C70   1.396542 A    
C62   O10   1.221369 D    
O7    C3    1.303353 A    
C71   C72   1.397635 A    
O3    Zn2   2.018169 S    
O8    C4    1.295717 A    
C31   H6    1.077582 S    
C34   C81   1.468693 S    
C61   O9    1.221188 D    
C10   C12   1.393997 A    
C42   H11   1.078595 S    
C11   C13   1.403490 A    
C12   C14   1.408743 A    
C51   C52   1.398502 A    
O1    Zn1   1.965545 S    
C76   C77   1.397033 A    
Zn1   N1    2.023242 S    
C70   C71   1.396425 A    
Zn2   N2    2.023239 S    
C74   C75   1.397283 A    
C40   H9    1.078979 S    
C5    C7    1.422041 A    
C55   C60   1.403731 A    
O6    Zn2   2.016377 S    
C65   H31   1.083679 S    
C21   C23   1.389292 A    
C50   C51   1.398361 A    
C14   C16   1.418092 A    
C52   C53   1.397647 A    
O3    C1    1.283720 A    
O8    Zn1   2.000648 S    
C66   O14   1.221252 D    
C79   H43   1.084897 S    
N1    C34   1.367413 A    
C8    C43   1.487333 S    
C63   H29   1.085567 S    
C19   C24   1.404914 A    
C2    C19   1.450242 S    
C22   C24   1.398064 A    
C75   C76   1.396689 A    
C40   C41   1.396540 A    
C35   C36   1.431293 A    
C67   C68   1.404812 A    
C79   O15   1.221366 D    
C39   C40   1.395876 A    
C51   H18   1.082293 S    
C49   C54   1.405040 A    
C59   C60   1.398214 A    
C7    C9    1.380911 A    
C64   O12   1.221125 D    
C80   O16   1.221338 D    
C68   H33   1.083385 S    
C13   C15   1.409706 A    
C46   C47   1.397417 A    
O2    Zn2   1.965545 S    
C74   H38   1.073255 S    
O5    Zn1   2.016373 S    
C55   C56   1.404156 A    
C6    C8    1.418362 A    
C47   H15   1.081957 S    
C80   H44   1.085308 S    
C38   H7    1.083278 S    
C29   C49   1.476039 S    
C77   H41   1.080268 S    
C56   C57   1.397925 A    
C73   C78   1.402811 A    
C60   H26   1.082874 S    
C17   C18   1.334765 D    
C10   H3    1.085819 S    
