data_mof_unit_18623.cif
_audit_creation_date              2012-12-11T15:39:27-0500
_audit_creation_method            fapswitch 2.2
_symmetry_space_group_name_H-M    P1
_symmetry_Int_Tables_number       1
_space_group_crystal_system       triclinic
_cell_length_a                    14.277619
_cell_length_b                    14.809605
_cell_length_c                    33.151635
_cell_angle_alpha                 98.106398
_cell_angle_beta                  90.738175
_cell_angle_gamma                 118.736657
_cell_volume                      6058.69044865

loop_
_atom_site_label
_atom_site_type_symbol
_atom_type_description
_atom_site_fract_x
_atom_site_fract_y
_atom_site_fract_z
_atom_type_partial_charge
C1    C     C_R   0.617302 0.908976 0.436893 0.573082
C2    C     C_R   0.710366 0.433380 0.950020 0.555153
C3    C     C_R   0.552026 0.773152 0.764978 0.281963
C4    C     C_R   0.560731 0.787211 0.724098 -0.099438
C5    C     C_R   0.624767 0.758530 0.699998 -0.054894
C6    C     C_R   0.675296 0.706946 0.715472 0.105713
C7    C     C_R   0.669386 0.694574 0.757110 0.328129
C8    C     C_R   0.610394 0.731708 0.782113 0.122901
C9    C     C_R   0.573128 0.721641 0.625954 -0.180973
C10   C     C_R   0.574802 0.753136 0.588117 -0.008890
C11   C     C_R   0.724132 0.925681 0.616677 -0.050844
C12   C     C_2   0.537669 0.332011 0.092107 0.330923
C13   C     C_R   0.709434 0.739043 0.949959 0.557862
C14   C     C_2   0.166974 0.031101 0.329290 0.239106
C15   C     C_2   0.863539 0.015335 0.200988 0.283178
C16   C     C_2   0.465700 0.701549 0.381711 0.259803
C17   C     C_2   0.480925 0.721416 0.173039 0.292094
C18   C     C_2   0.511797 0.720805 0.083140 0.291909
C19   C     C_2   0.855711 0.352157 0.909933 0.307516
C20   C     C_2   0.522158 0.372843 0.698075 0.274832
C21   C     C_2   0.170150 0.952927 0.945073 0.261584
C22   C     C_2   0.677328 0.151883 0.281880 0.290177
C23   C     C_2   0.112046 0.993050 0.662475 0.285664
C24   C     C_R   0.839213 0.447896 0.164322 0.243460
C25   C     C_2   0.161360 0.990260 0.576178 0.256722
C26   C     C_2   0.804029 0.963219 0.689409 0.250966
C27   C     C_2   0.466780 0.546840 0.820223 0.298161
C28   C     C_2   0.737502 0.670718 0.688287 0.303696
C29   C     C_2   0.505684 0.671136 0.553343 0.250958
C30   C     C_2   0.744217 0.933065 0.837147 0.329439
C31   C     C_2   0.542392 0.268205 0.172797 0.295194
C32   C     C_2   0.814078 0.027899 0.610632 0.243532
C33   C     C_2   0.784647 0.536110 0.327014 0.239982
C34   C     C_2   0.515738 0.309713 0.328019 0.226396
C35   C     C_R   0.835716 0.474238 0.126167 -0.059375
C36   C     C_R   0.719324 0.274964 0.233447 -0.139622
C37   C     C_R   0.710058 0.259357 0.274100 0.061323
C38   C     C_R   0.727529 0.344428 0.305035 0.028612
C39   C     C_R   0.761218 0.444797 0.295060 0.016049
C40   C     C_R   0.768650 0.456964 0.253999 -0.051223
C41   C     C_R   0.744400 0.371876 0.223408 -0.048671
C42   C     C_R   0.742176 0.385032 0.180429 -0.037734
C43   C     C_R   0.591530 0.299641 0.356096 -0.009863
C44   C     C_R   0.592946 0.204103 0.456114 0.566688
C45   C     C_R   0.557762 0.265185 0.393633 0.205066
C46   C     C_R   0.737689 0.297510 0.413125 -0.083182
C47   C     C_R   0.772046 0.329528 0.376122 0.251223
C48   C     C_R   0.697324 0.325733 0.346540 0.004690
C49   C     C_R   0.630812 0.261320 0.421546 0.005304
C50   C     C_R   0.245253 0.877751 0.392660 0.020925
C51   C     C_R   0.209597 0.946273 0.382275 0.204406
C52   C     C_R   0.191436 0.950086 0.340401 -0.032236
C53   C     C_R   0.722531 0.892080 0.654755 -0.021001
C54   C     C_R   0.204464 0.880911 0.309793 0.056882
C55   C     C_R   0.228675 0.805578 0.320491 0.224203
C56   C     C_R   0.294911 0.892343 0.434315 0.577545
C57   C     C_R   0.249001 0.804724 0.361828 -0.160003
C58   C     C_R   0.202136 0.810657 0.162669 -0.137170
C59   C     C_R   0.169594 0.785001 0.120978 -0.110667
C60   C     C_R   0.111350 0.915057 0.127515 -0.109260
C61   C     C_R   0.144729 0.941745 0.169761 0.278676
C62   C     C_R   0.185025 0.884992 0.187363 0.072340
C63   C     C_1   0.195386 0.891198 0.230947 0.107851
C64   C     C_R   0.642570 0.790871 0.659437 -0.011595
C65   C     C_1   0.199787 0.888997 0.267034 0.138511
C66   C     C_R   0.118147 0.832581 0.103459 -0.012665
C67   C     C_R   0.638491 0.876620 0.394648 -0.010269
C68   C     C_R   0.616438 0.903958 0.550824 0.583039
C69   C     C_R   0.557450 0.790030 0.367215 -0.052829
C70   C     C_R   0.566129 0.785423 0.324903 -0.137210
C71   C     C_R   0.654415 0.862537 0.309668 0.033156
C72   C     C_R   0.740551 0.941262 0.336323 0.287539
C73   C     C_R   0.735349 0.944807 0.379159 0.238336
C74   C     C_R   0.773208 0.927413 0.173475 0.003446
C75   C     C_R   0.642602 0.859418 0.584380 0.041401
C76   C     C_R   0.791808 0.905526 0.132982 -0.160118
C77   C     C_R   0.603300 0.776657 0.115808 0.022989
C78   C     C_R   0.585989 0.789011 0.157972 0.013647
C79   C     C_R   0.672305 0.862835 0.186771 -0.019409
C80   C     C_R   0.590202 0.199833 0.571079 0.535161
C81   C     C_1   0.661738 0.862527 0.230084 0.036554
C82   C     C_1   0.656527 0.861426 0.266239 0.090592
C83   C     C_R   0.709995 0.826607 0.104612 -0.037611
C84   C     C_R   0.624732 0.251655 0.614221 0.012833
C85   C     C_R   0.569004 0.297390 0.635212 -0.143372
C86   C     C_R   0.053588 0.782004 0.063602 0.530960
C87   C     C_R   0.584936 0.326002 0.678025 0.031684
C88   C     C_R   0.656949 0.306037 0.699993 0.073598
C89   C     C_R   0.717878 0.267481 0.678772 -0.124867
C90   C     C_R   0.702713 0.241392 0.636259 -0.128237
C91   C     C_R   0.752699 0.332417 0.845996 -0.172821
C92   C     C_R   0.289190 0.887398 0.548748 0.524771
C93   C     C_R   0.761912 0.349302 0.888825 -0.024247
C94   C     C_R   0.581228 0.327161 0.887544 0.263088
C95   C     C_R   0.572279 0.309491 0.844619 0.311891
C96   C     C_R   0.661672 0.318808 0.823911 -0.020654
C97   C     C_R   0.743672 0.484737 0.065590 0.519061
C98   C     C_1   0.662344 0.315530 0.780295 0.038684
C99   C     C_1   0.661513 0.312960 0.743817 0.081929
C100  C     C_R   0.681509 0.361338 0.909879 -0.031233
C101  C     C_R   0.082132 0.764077 0.911573 -0.045534
C102  C     C_R   0.143365 0.871396 0.908316 -0.060473
C103  C     C_R   0.174733 0.899405 0.869712 0.217685
C104  C     C_R   0.738179 0.439767 0.103037 -0.078681
C105  C     C_R   0.145192 0.821023 0.835355 -0.042569
C106  C     C_R   0.096185 0.714450 0.839583 0.209366
C107  C     C_R   0.062854 0.685991 0.877804 0.281726
C108  C     C_R   0.741284 0.790488 0.065697 0.513793
C109  C     C_R   0.262672 0.902234 0.780370 0.315740
C110  C     C_R   0.272684 0.919711 0.739918 0.349712
C111  C     C_R   0.179401 0.879164 0.712517 0.002454
C112  C     C_R   0.078021 0.832489 0.726786 -0.022962
C113  C     C_R   0.066626 0.820862 0.767576 0.259141
C114  C     C_R   0.158978 0.850653 0.794289 -0.011665
C115  C     C_R   0.161936 0.930441 0.644281 -0.026556
C116  C     C_R   0.640392 0.370952 0.117495 -0.000847
C117  C     C_R   0.184331 0.928524 0.602613 -0.042047
C118  C     C_R   0.242410 0.800384 0.608887 -0.128328
C119  C     C_R   0.023593 0.733287 0.948004 0.560462
C120  C     C_R   0.220957 0.801721 0.649754 0.232734
C121  C     C_R   0.186679 0.870885 0.668033 0.023579
C122  C     C_R   0.231590 0.867911 0.586015 -0.052980
C123  C     C_R   0.657679 0.740580 0.910911 0.028671
C124  C     C_R   0.583895 0.645673 0.885833 0.152366
C125  C     C_R   0.557245 0.644253 0.844325 -0.041315
C126  C     C_R   0.616522 0.736025 0.827087 -0.013183
C127  C     C_R   0.684338 0.832538 0.852962 0.050511
C128  C     C_R   0.642582 0.342220 0.156478 0.000989
C129  C     C_R   0.697260 0.835140 0.895243 0.164721
Cr1   Cr    Cr6+3 0.424820 0.846020 0.489780 1.066729
Cr2   Cr    Cr6+3 0.657880 0.078580 0.505700 1.095032
Cr3   Cr    Cr6+3 0.417280 0.075360 0.504550 1.119786
Cr4   Cr    Cr6+3 0.903360 0.812540 0.006510 1.077099
Cr5   Cr    Cr6+3 0.914630 0.587050 0.006280 1.110480
Cr6   Cr    Cr6+3 0.673560 0.582680 0.008540 1.096828
H1    H     H_    0.794409 0.296110 0.434736 0.173054
H2    H     H_    0.773603 0.252483 0.695291 0.122589
H3    H     H_    0.746935 0.206479 0.620953 0.135010
H4    H     H_    0.509874 0.307155 0.618322 0.131437
H5    H     H_    0.006879 0.802532 0.705759 0.181210
H6    H     H_    0.275930 0.751991 0.595986 0.132272
H7    H     H_    0.703153 0.210610 0.209175 0.119887
H8    H     H_    0.520574 0.824419 0.711290 0.141477
H9    H     H_    0.516273 0.642434 0.629643 0.111724
H10   H     H_    0.790145 0.532067 0.245419 0.185331
H11   H     H_    0.533124 0.309881 0.059211 0.111464
H12   H     H_    0.177215 0.722094 0.103135 0.181937
H13   H     H_    0.404286 0.198326 0.377194 0.316752
H14   H     H_    0.933673 0.451323 0.208488 0.349184
H15   H     H_    0.255843 0.689867 0.302440 0.358868
H16   H     H_    0.140230 0.025920 0.404071 0.325659
H17   H     H_    0.108412 0.053172 0.177144 0.321057
H18   H     H_    0.195523 0.104912 0.349765 0.123583
H19   H     H_    0.943479 0.051251 0.190857 0.118715
H20   H     H_    0.860315 0.081834 0.339572 0.361287
H21   H     H_    0.889374 0.028730 0.393101 0.337985
H22   H     H_    0.469761 0.686956 0.412636 0.159777
H23   H     H_    0.234196 0.767412 0.176110 0.160786
H24   H     H_    0.454128 0.752003 0.199390 0.096293
H25   H     H_    0.523700 0.696573 0.052184 0.125350
H26   H     H_    0.927257 0.369746 0.894234 0.134989
H27   H     H_    0.895376 0.387610 0.343867 0.336072
H28   H     H_    0.475987 0.266311 0.794702 0.356906
H29   H     H_    0.496470 0.294310 0.933706 0.335935
H30   H     H_    0.460521 0.376510 0.679982 0.118409
H31   H     H_    0.185008 0.938092 0.975001 0.104888
H32   H     H_    0.996218 0.535715 0.856610 0.367361
H33   H     H_    0.262142 0.696003 0.655910 0.326553
H34   H     H_    0.274211 0.750703 0.369722 0.176332
H35   H     H_    0.660943 0.090266 0.256267 0.124025
H36   H     H_    0.372159 0.992797 0.701022 0.323739
H37   H     H_    0.340352 0.903885 0.829927 0.335438
H38   H     H_    0.284110 0.042989 0.888313 0.371765
H39   H     H_    0.966166 0.788483 0.809677 0.345281
H40   H     H_    0.052401 0.999225 0.644222 0.166043
H41   H     H_    0.137922 0.960296 0.543746 0.134274
H42   H     H_    0.119569 0.666565 0.784468 0.346869
H43   H     H_    0.536316 0.497829 0.880780 0.349419
H44   H     H_    0.730250 0.924638 0.947956 0.343360
H45   H     H_    0.072629 0.952960 0.114315 0.120162
H46   H     H_    0.837239 0.047070 0.692684 0.104507
H47   H     H_    0.454854 0.830272 0.772599 0.369669
H48   H     H_    0.414438 0.482795 0.835433 0.171218
H49   H     H_    0.748129 0.687929 0.657418 0.090557
H50   H     H_    0.715722 0.645964 0.801720 0.322028
H51   H     H_    0.434527 0.601861 0.559086 0.104517
H52   H     H_    0.767569 0.006614 0.857113 0.173772
H53   H     H_    0.531924 0.280334 0.205089 0.168726
H54   H     H_    0.834610 0.098299 0.632195 0.075465
H55   H     H_    0.780379 0.528622 0.359101 0.113225
H56   H     H_    0.911207 0.526363 0.115302 0.176721
H57   H     H_    0.457720 0.330716 0.340630 0.142445
H58   H     H_    0.872370 0.948133 0.123912 0.125054
H59   H     H_    0.503175 0.722058 0.303513 0.180341
H60   H     H_    0.817531 0.331024 0.829693 0.132971
O1    O     O_R   0.318160 0.824460 0.443680 -0.523131
O2    O     O_R   0.668160 0.499860 0.053480 -0.504702
O3    O     O_R   0.689170 0.693840 0.050110 -0.510655
O4    O     O_R   0.525040 0.857250 0.449830 -0.522125
O5    O     O_R   0.803860 0.812940 0.962540 -0.481787
O6    O     O_R   0.982950 0.787950 0.964120 -0.501587
O7    O     O_R   0.007050 0.649970 0.960540 -0.439682
O8    O     O_R   0.807910 0.482370 0.965590 -0.441790
O9    O     O_R   0.643310 0.460980 0.963840 -0.479987
O10   O     O_R   0.666140 0.657800 0.967020 -0.435850
O11   O     O_3   0.830520 0.660760 0.007110 -0.270819
O12   O     O_R   0.645130 0.163230 0.552140 -0.508226
O13   O     O_R   0.684760 0.998800 0.456360 -0.417596
O14   O     O_R   0.647540 0.166310 0.470260 -0.517957
O15   O     O_R   0.500960 0.181750 0.467450 -0.421751
O16   O     O_R   0.331100 0.981120 0.457080 -0.426140
O17   O     O_R   0.315560 0.821140 0.532010 -0.510320
O18   O     O_R   0.522630 0.854180 0.531710 -0.471199
O19   O     O_R   0.682160 0.995480 0.544690 -0.474454
O20   O     O_2   0.458827 0.328405 0.107378 -0.416683
O21   O     O_3   0.452732 0.229376 0.402799 -0.650012
O22   O     O_3   0.939277 0.487865 0.185110 -0.670839
O23   O     O_R   0.498360 0.178430 0.555780 -0.499797
O24   O     O_3   0.237518 0.736991 0.289883 -0.681868
O25   O     O_3   0.195046 0.009141 0.413678 -0.659547
O26   O     O_3   0.133031 0.018082 0.194571 -0.634062
O27   O     O_2   0.113541 0.016046 0.297517 -0.419577
O28   O     O_2   0.849735 0.051705 0.234307 -0.437099
O29   O     O_3   0.826487 0.015656 0.319746 -0.609243
O30   O     O_3   0.822962 0.014410 0.406376 -0.654947
O31   O     O_2   0.385377 0.641362 0.358765 -0.511901
O32   O     O_2   0.426094 0.629753 0.157526 -0.410155
O33   O     O_2   0.422423 0.707606 0.089547 -0.460253
O34   O     O_R   0.328690 0.978040 0.538950 -0.494793
O35   O     O_2   0.851962 0.328873 0.944000 -0.467143
O36   O     O_3   0.877748 0.359314 0.369692 -0.660242
O37   O     O_3   0.475487 0.285195 0.824497 -0.599075
O38   O     O_3   0.491025 0.313324 0.906612 -0.595768
O39   O     O_2   0.539337 0.409785 0.734428 -0.438225
O40   O     O_2   0.171339 0.034980 0.942650 -0.433256
O41   O     O_3   0.005772 0.582311 0.882652 -0.674333
O42   O     O_3   0.237090 0.739137 0.673116 -0.684229
O43   O     O_2   0.668821 0.130081 0.316268 -0.489761
O44   O     O_3   0.375156 0.971506 0.727792 -0.638286
O45   O     O_3   0.499990 0.999990 0.500010 -0.281712
O46   O     O_3   0.356411 0.934933 0.804697 -0.618940
O47   O     O_3   0.231725 0.002294 0.864134 -0.593077
O48   O     O_3   0.963626 0.776089 0.779475 -0.583350
O49   O     O_2   0.138077 0.039714 0.697656 -0.454955
O50   O     O_2   0.172702 0.076327 0.589708 -0.478225
O51   O     O_3   0.075273 0.636333 0.806750 -0.673177
O52   O     O_3   0.542082 0.554631 0.902134 -0.639441
O53   O     O_3   0.755363 0.931109 0.920232 -0.676858
O54   O     O_2   0.837161 0.929228 0.714217 -0.429230
O55   O     O_3   0.491226 0.803833 0.789400 -0.663784
O56   O     O_R   0.828710 0.851830 0.052170 -0.505622
O57   O     O_2   0.446726 0.536946 0.783465 -0.453059
O58   O     O_2   0.776858 0.620283 0.699566 -0.410450
O59   O     O_3   0.725160 0.650021 0.772472 -0.569254
O60   O     O_2   0.530550 0.676930 0.518315 -0.482045
O61   O     O_2   0.772007 0.935962 0.802485 -0.460489
O62   O     O_2   0.472809 0.190536 0.150720 -0.453805
O63   O     O_2   0.868368 0.033215 0.581973 -0.438783
O64   O     O_2   0.809631 0.621433 0.317910 -0.479004
O65   O     O_2   0.514913 0.292480 0.290883 -0.500481
O66   O     O_R   0.005980 0.823990 0.047210 -0.502357
O67   O     O_R   0.031900 0.688850 0.050170 -0.512786
O68   O     O_R   0.830940 0.518420 0.048680 -0.495015

loop_
_geom_bond_atom_site_label_1
_geom_bond_atom_site_label_2
_ccdc_geom_bond_type
C44   C49   S    
H21   O30   S    
C73   O30   S    
C107  O41   S    
C63   C65   T    
C101  C107  A    
Cr5   O68   S    
C115  C121  A    
C13   O5    A    
C111  C121  S    
C9    C64   A    
C24   C42   A    
C41   C42   S    
C112  H5    S    
Cr1   O17   S    
C111  C112  A    
C119  O6    A    
C3    O55   S    
C80   C84   S    
C118  H6    S    
Cr2   O12   S    
Cr3   O34   S    
C103  O47   S    
Cr6   O3    S    
H44   O53   S    
C36   C41   A    
C7    C8    A    
C54   C65   S    
C21   O40   D    
C77   C78   A    
C29   H51   S    
C68   C75   S    
Cr4   O66   S    
C20   H30   S    
C119  O7    A    
C46   C49   A    
Cr1   O45   S    
C33   C39   S    
C74   C76   A    
C40   H10   S    
C123  C124  A    
C36   C37   A    
Cr1   O1    S    
C69   C70   A    
C18   C77   S    
C59   C66   A    
C19   H26   S    
C5    C6    A    
C13   C123  S    
C53   C64   A    
Cr5   O11   S    
C23   H40   S    
C106  C107  A    
C77   C83   A    
C54   C55   A    
C72   O29   S    
C20   C87   S    
C45   O21   S    
C83   C108  S    
Cr4   O11   S    
Cr1   O18   S    
C44   O14   A    
C118  C122  A    
C12   H11   S    
C1    O13   A    
C36   H7    S    
C110  C111  A    
C15   H19   S    
C50   C51   A    
C91   C96   A    
C104  C116  A    
H38   O47   S    
C14   C52   S    
H42   O51   S    
C35   C104  A    
C113  O48   S    
C61   O26   S    
C96   C98   S    
C31   H53   S    
Cr2   O14   S    
H15   O24   S    
Cr5   O7    S    
C70   C71   A    
C67   C73   A    
C109  O46   S    
C68   O19   A    
C9    C10   A    
C85   H4    S    
C86   O66   A    
C38   C48   S    
H27   O36   S    
C19   C93   S    
C42   C128  A    
C120  O42   S    
Cr6   O10   S    
C71   C82   S    
C24   O22   S    
C16   H22   S    
C60   C66   A    
Cr5   O67   S    
C56   O1    A    
H17   O26   S    
C123  C129  A    
Cr2   O19   S    
C108  O3    A    
H20   O29   S    
C1    O4    A    
Cr3   O16   S    
C84   C90   A    
C31   C128  S    
C4    H8    S    
Cr2   O13   S    
H13   O21   S    
C76   C83   A    
C112  C113  A    
C90   H3    S    
C9    H9    S    
C52   C54   A    
C81   C82   T    
C6    C7    A    
C118  C120  A    
C85   C87   A    
Cr4   O6    S    
H32   O41   S    
C6    C28   S    
C24   C35   A    
C2    O8    A    
C108  O56   A    
C34   O65   D    
C102  C103  A    
C101  C119  S    
C101  C102  A    
C97   O2    A    
C105  C114  S    
Cr5   O8    S    
C84   C85   A    
C2    O9    A    
C28   O58   D    
C56   O16   A    
C31   O62   D    
C3    C8    A    
C58   H23   S    
H50   O59   S    
C79   C81   S    
C88   C99   S    
C110  O44   S    
C4    C5    A    
C55   O24   S    
C115  C117  A    
C58   C59   A    
C22   C37   S    
C46   H1    S    
C50   C56   S    
C21   H31   S    
C51   C52   A    
C5    C64   S    
C33   H55   S    
C67   C69   A    
C117  C122  A    
C127  C129  A    
C66   C86   S    
C37   C38   A    
C26   O54   D    
C92   C122  S    
C91   C93   A    
C44   O15   A    
C91   H60   S    
C10   C75   A    
C47   C48   A    
C94   C100  A    
Cr2   O45   S    
C70   H59   S    
C16   O31   D    
C33   O64   D    
C62   C63   S    
Cr3   O45   S    
C45   C49   A    
Cr3   O15   S    
C94   C95   A    
C103  C105  A    
H14   O22   S    
C106  O51   S    
C68   O18   A    
C43   C45   A    
C93   C100  A    
C22   H35   S    
C18   O33   D    
C58   C62   A    
Cr6   O11   S    
C59   H12   S    
C21   C102  S    
H39   O48   S    
C8    C126  S    
C40   C41   A    
H37   O46   S    
H28   O37   S    
Cr4   O5    S    
C89   H2    S    
C74   C79   A    
C55   C57   A    
C7    O59   S    
C125  C126  A    
C13   O10   A    
C92   O17   A    
C3    C4    A    
C89   C90   A    
C26   C53   S    
C46   C47   A    
C39   C40   A    
C120  C121  A    
C113  C114  A    
C43   C48   A    
Cr4   O56   S    
C30   C127  S    
C35   H56   S    
H29   O38   S    
C78   C79   A    
C50   C57   A    
C14   O27   D    
C80   O12   A    
C16   C69   S    
C72   C73   A    
C25   C117  S    
Cr6   O2    S    
C94   O38   S    
Cr6   O9    S    
C51   O25   S    
C60   H45   S    
C105  C106  A    
C20   O39   D    
C95   O37   S    
C22   O43   D    
C30   H52   S    
C124  O52   S    
C34   H57   S    
C28   H49   S    
C57   H34   S    
C71   C72   A    
C14   H18   S    
C11   C75   A    
C109  C110  A    
C80   O23   A    
C17   O32   D    
C25   H41   S    
C38   C39   A    
H36   O44   S    
C92   O34   A    
C126  C127  A    
C109  C114  A    
C27   C125  S    
C32   O63   D    
C17   C78   S    
C1    C67   S    
C23   C115  S    
C32   H54   S    
H47   O55   S    
Cr3   O23   S    
C29   O60   D    
C15   O28   D    
C61   C62   A    
C17   H24   S    
C19   O35   D    
C27   H48   S    
C97   C104  S    
C18   H25   S    
C76   H58   S    
C97   O68   A    
C2    C100  S    
H43   O52   S    
C26   H46   S    
C10   C29   S    
C15   C74   S    
C47   O36   S    
C88   C89   A    
C87   C88   A    
C98   C99   T    
C116  C128  A    
C95   C96   A    
C27   O57   D    
H16   O25   S    
C60   C61   A    
C30   O61   D    
C12   O20   D    
C12   C116  S    
C23   O49   D    
C34   C43   S    
H33   O42   S    
C86   O67   A    
Cr1   O4    S    
C25   O50   D    
C124  C125  A    
C11   C32   S    
C129  O53   S    
C11   C53   A    
