data_mof_unit_27612.cif
_audit_creation_date              2012-12-10T17:47:42-0500
_audit_creation_method            fapswitch 2.2
_symmetry_space_group_name_H-M    P1
_symmetry_Int_Tables_number       1
_space_group_crystal_system       triclinic
_cell_length_a                    10.630255
_cell_length_b                    10.722336
_cell_length_c                    9.886197
_cell_angle_alpha                 88.988547
_cell_angle_beta                  90.005056
_cell_angle_gamma                 91.890022
_cell_volume                      1126.05161167

loop_
_atom_site_label
_atom_site_type_symbol
_atom_type_description
_atom_site_fract_x
_atom_site_fract_y
_atom_site_fract_z
_atom_type_partial_charge
C1    C     C_R   0.506638 0.259674 0.502305 0.865226
C2    C     C_3   0.878753 0.500019 0.498781 0.180956
C3    C     C_3   0.931977 0.618206 0.569689 -0.400598
C4    C     C_3   0.928568 0.499787 0.350983 -0.393247
C5    C     C_R   0.507614 0.104739 0.763166 -0.176118
C6    C     C_R   0.461572 0.039784 0.877266 -0.148590
C7    C     C_R   0.396598 0.926358 0.862638 -0.156501
C8    C     C_R   0.389313 0.872201 0.735788 -0.161330
C9    C     C_R   0.446822 0.932217 0.621658 0.100005
C10   C     C_R   0.488618 0.056641 0.631437 0.096837
C11   C     C_R   0.509720 0.125462 0.508414 -0.129254
C12   C     C_R   0.257694 0.499536 0.499746 0.808624
C13   C     C_R   0.514521 0.064751 0.384581 -0.228722
C14   C     C_R   0.499015 0.937793 0.380712 -0.226503
C15   C     C_R   0.469367 0.870795 0.499181 -0.135685
C16   C     C_R   0.332408 0.337966 0.143044 -0.177522
C17   C     C_R   0.248903 0.259449 0.073927 -0.221310
C18   C     C_R   0.248732 0.259953 0.933938 -0.190665
C19   C     C_R   0.332492 0.338552 0.862360 -0.171108
C20   C     C_R   0.417354 0.420360 0.929014 0.152738
C21   C     C_R   0.417367 0.420262 0.073759 0.172641
C22   C     C_R   0.578852 0.576479 0.070126 -0.134450
C23   C     C_R   0.486739 0.738663 0.499285 0.880887
C24   C     C_R   0.578810 0.576448 0.926817 -0.121229
C25   C     C_R   0.742306 0.500263 0.499730 0.836965
C26   C     C_3   0.068116 0.382003 0.575306 -0.415551
C27   C     C_3   0.923690 0.381770 0.574425 -0.399647
C28   C     C_3   0.076414 0.618315 0.569059 -0.404901
C29   C     C_3   0.071334 0.498694 0.351035 -0.389495
C30   C     C_3   0.121277 0.499617 0.498822 0.198120
H1    H     H_    0.101815 0.380746 0.681876 0.178778
H2    H     H_    0.897615 0.584098 0.294275 0.172216
H3    H     H_    0.114308 0.703423 0.514931 0.151266
H4    H     H_    0.899336 0.703712 0.516669 0.155675
H5    H     H_    0.532628 0.115017 0.290127 0.171394
H6    H     H_    0.562095 0.189281 0.781807 0.170615
H7    H     H_    0.474442 0.078737 0.976828 0.146179
H8    H     H_    0.355932 0.878184 0.950160 0.136437
H9    H     H_    0.338931 0.783257 0.727895 0.152341
H10   H     H_    0.513198 0.892148 0.285221 0.169004
H11   H     H_    0.643197 0.638888 0.122941 0.140807
H12   H     H_    0.101049 0.296059 0.526682 0.150192
H13   H     H_    0.327345 0.331197 0.250345 0.205843
H14   H     H_    0.184403 0.197372 0.129531 0.145080
H15   H     H_    0.184548 0.197867 0.880285 0.148969
H16   H     H_    0.329300 0.331114 0.755256 0.207619
H17   H     H_    0.643089 0.638888 0.871577 0.148459
H18   H     H_    0.885988 0.296340 0.524029 0.153849
H19   H     H_    0.888488 0.378948 0.680539 0.179071
H20   H     H_    0.111524 0.621685 0.675091 0.176672
H21   H     H_    0.897867 0.620600 0.676066 0.176320
H22   H     H_    0.109090 0.581827 0.293171 0.179715
H23   H     H_    0.102017 0.413830 0.298532 0.173809
N1    N     N_R   0.498810 0.498800 0.142780 -0.120532
N2    N     N_R   0.498760 0.498720 0.857170 -0.125637
O1    O     O_R   0.500000 0.316780 0.614690 -0.650716
O2    O     O_R   0.499990 0.316750 0.385360 -0.636101
O3    O     O_R   0.314800 0.499990 0.614670 -0.648742
O4    O     O_R   0.314790 0.499970 0.385330 -0.645234
O5    O     O_R   0.500010 0.683250 0.614640 -0.618475
O6    O     O_R   0.500000 0.683220 0.385310 -0.618539
O7    O     O_R   0.685210 0.500030 0.614670 -0.624710
O8    O     O_R   0.685200 0.500010 0.385330 -0.624812
Zn1   Zn    Zn3+2 0.500010 0.500020 0.653130 0.914153
Zn2   Zn    Zn3+2 0.499990 0.499980 0.346870 0.920422
H24   H     H_    0.890848 0.416093 0.297232 0.178040

loop_
_geom_bond_atom_site_label_1
_geom_bond_atom_site_label_2
_ccdc_geom_bond_type
C27   H18   S    
C8    C9    A    
C27   H19   S    
C2    C4    S    
O1    Zn1   S    
C26   C30   S    
C16   C21   A    
C8    H9    S    
C1    O2    A    
C9    C10   A    
C6    C7    A    
C4    C29   S    
C1    C11   S    
C21   N1    A    
O5    Zn1   S    
C2    C27   S    
C12   O3    A    
N2    Zn1   S    
C24   H17   S    
C15   C23   S    
C17   C18   A    
C9    C15   A    
C19   H16   S    
C26   H1    S    
C22   N1    A    
N1    Zn2   S    
C4    H2    S    
C13   C14   A    
O4    Zn2   S    
C24   N2    A    
C4    H24   S    
C11   C13   A    
C16   H13   S    
C26   C27   S    
C29   C30   S    
C29   H23   S    
C20   N2    A    
C5    C6    A    
C28   H20   S    
C28   C30   S    
C3    C28   S    
C7    H8    S    
C28   H3    S    
C13   H5    S    
C2    C25   S    
C2    C3    S    
C25   O7    A    
C5    C10   A    
O3    Zn1   S    
C23   O5    A    
O8    Zn2   S    
C22   C24   A    
C6    H7    S    
C22   H11   S    
C7    C8    A    
C10   C11   A    
C14   H10   S    
C5    H6    S    
O6    Zn2   S    
C23   O6    A    
C20   C21   A    
C26   H12   S    
C18   H15   S    
C25   O8    A    
C3    H21   S    
C14   C15   A    
C18   C19   A    
O7    Zn1   S    
C3    H4    S    
C17   H14   S    
C12   O4    A    
C12   C30   S    
C1    O1    A    
C19   C20   A    
O2    Zn2   S    
C16   C17   A    
C29   H22   S    
