data_mof_unit_15663.cif
_audit_creation_date              2012-12-10T19:45:49-0500
_audit_creation_method            fapswitch 2.2
_symmetry_space_group_name_H-M    P1
_symmetry_Int_Tables_number       1
_space_group_crystal_system       triclinic
_cell_length_a                    10.809908
_cell_length_b                    14.610512
_cell_length_c                    14.596682
_cell_angle_alpha                 65.077075
_cell_angle_beta                  102.468269
_cell_angle_gamma                 102.700116
_cell_volume                      2019.64658159

loop_
_atom_site_label
_atom_site_type_symbol
_atom_type_description
_atom_site_fract_x
_atom_site_fract_y
_atom_site_fract_z
_atom_type_partial_charge
C1    C     C_R   0.477256 0.120684 0.311519 0.854165
C2    C     C_R   0.527301 0.880172 0.687414 0.864988
C3    C     C_R   0.870470 0.999377 0.497387 -0.094371
C4    C     C_R   0.129150 0.000086 0.503074 -0.095537
C5    C     C_R   0.908023 0.958962 0.436961 0.047345
C6    C     C_R   0.091507 0.041561 0.562651 0.038530
C7    C     C_R   0.446794 0.190255 0.203459 -0.169307
C8    C     C_R   0.581903 0.813110 0.788062 -0.156435
C9    C     C_R   0.281720 0.238004 0.057243 -0.290766
C10   C     C_R   0.773175 0.736088 0.874405 -0.263235
C11   C     C_R   0.333459 0.162673 0.145721 0.428687
C12   C     C_R   0.715804 0.822497 0.811105 0.420746
C13   C     C_R   0.519232 0.289232 0.161687 0.064893
C14   C     C_R   0.505661 0.722409 0.841122 0.071488
C15   C     C_R   0.477086 0.357056 0.060863 0.038476
C16   C     C_R   0.562494 0.631578 0.896417 0.043736
C17   C     C_R   0.350374 0.335551 0.016147 -0.054154
C18   C     C_R   0.698663 0.640348 0.914335 -0.065518
C19   C     C_R   0.551694 0.450007 0.006535 0.013500
C20   C     C_R   0.490368 0.532211 0.932576 0.020738
C21   C     C_R   0.363093 0.509651 0.890765 -0.301795
C22   C     C_R   0.685188 0.458849 0.015286 -0.315374
C23   C     C_R   0.262671 0.999761 0.501763 0.817016
C24   C     C_R   0.737184 0.000326 0.498042 0.840263
C25   C     C_R   0.293276 0.412602 0.931690 0.458882
C26   C     C_R   0.759106 0.553103 0.970399 0.497205
C27   C     C_R   0.708404 0.278880 0.675788 0.430699
C28   C     C_R   0.294291 0.721467 0.323361 0.415421
C29   C     C_R   0.675324 0.199354 0.641744 -0.016751
C30   C     C_R   0.323438 0.799459 0.359476 -0.033203
C31   C     C_R   0.525288 0.288251 0.507413 -0.031587
C32   C     C_R   0.477892 0.713323 0.491083 -0.008978
C33   C     C_R   0.554755 0.373300 0.535632 -0.091304
C34   C     C_R   0.450856 0.628916 0.462077 -0.082547
C35   C     C_R   0.641540 0.364903 0.626682 0.068267
C36   C     C_R   0.363922 0.637005 0.371153 0.066456
C37   C     C_R   0.495385 0.463356 0.478793 0.125076
C38   C     C_R   0.512098 0.539703 0.518166 0.126318
C39   C     C_R   0.587244 0.523849 0.613746 -0.234444
C40   C     C_R   0.421198 0.479588 0.382832 -0.222591
C41   C     C_R   0.654474 0.440680 0.666512 0.189001
C42   C     C_R   0.353054 0.562248 0.330406 0.224552
C43   C     C_R   0.347222 0.057208 0.778876 -0.288420
C44   C     C_R   0.675255 0.964037 0.202021 -0.304949
C45   C     C_R   0.253340 0.019305 0.716650 -0.246648
C46   C     C_R   0.761273 0.994628 0.273421 -0.257953
C47   C     C_R   0.184176 0.085311 0.630253 0.059958
C48   C     C_R   0.816125 0.922385 0.363560 0.064065
C49   C     C_R   0.207558 0.191469 0.607877 0.046191
C50   C     C_R   0.782363 0.817175 0.383034 0.041381
C51   C     C_R   0.298839 0.229114 0.673639 0.435097
C52   C     C_R   0.697903 0.786785 0.308619 0.455179
C53   C     C_R   0.370594 0.161937 0.758578 0.441698
C54   C     C_R   0.645014 0.860393 0.217905 0.457188
C55   C     C_R   0.962037 0.039873 0.559533 -0.197000
C56   C     C_R   0.037433 0.959284 0.441134 -0.223024
Cu1   Cu    Cu3+1 0.466270 0.918260 0.475690 0.961812
Cu2   Cu    Cu3+1 0.533730 0.081740 0.524310 0.953214
H1    H     H_    0.186172 0.219812 0.021472 0.199272
H2    H     H_    0.876752 0.743537 0.887176 0.204148
H3    H     H_    0.318018 0.564658 0.822579 0.182716
H4    H     H_    0.732434 0.391733 0.056177 0.174478
H5    H     H_    0.552722 0.718361 0.551427 0.146761
H6    H     H_    0.450628 0.284046 0.446640 0.145793
H7    H     H_    0.274630 0.865472 0.322084 0.176740
H8    H     H_    0.720463 0.131387 0.682012 0.162799
H9    H     H_    0.593809 0.575295 0.650541 0.131234
H10   H     H_    0.416019 0.428667 0.345668 0.122795
H11   H     H_    0.404174 0.005058 0.841486 0.163808
H12   H     H_    0.631131 0.021169 0.134699 0.161203
H13   H     H_    0.237298 0.938282 0.733760 0.158275
H14   H     H_    0.784325 0.075116 0.258962 0.153650
H15   H     H_    0.932884 0.070531 0.606199 0.177348
H16   H     H_    0.066718 0.929998 0.393295 0.165867
N1    N     N_R   0.584450 0.204570 0.560790 -0.211505
N2    N     N_R   0.415550 0.795430 0.439210 -0.213496
O1    O     O_R   0.455540 0.022090 0.338120 -0.542072
O2    O     O_R   0.544460 0.977910 0.661880 -0.558295
O3    O     O_R   0.512510 0.160150 0.379180 -0.597184
O4    O     O_R   0.487490 0.839850 0.620820 -0.590812
O5    O     O_R   0.291160 0.930970 0.479480 -0.586551
O6    O     O_R   0.708840 0.069030 0.520520 -0.582971
O7    O     O_R   0.348130 0.069020 0.520540 -0.570314
O8    O     O_R   0.651870 0.930980 0.479460 -0.578490
O9    O     O_3   0.472680 0.201505 0.813297 -0.561217
C57   C     C_3   0.451623 0.164769 0.915635 -0.363520
H17   H     H_    0.466009 0.083698 0.957447 0.162418
H18   H     H_    0.354622 0.174544 0.921042 0.150882
H19   H     H_    0.522397 0.209682 0.953875 0.196505
O10   O     O_3   0.555172 0.828259 0.150096 -0.549790
C58   C     C_3   0.600816 0.866007 0.055311 -0.337742
H20   H     H_    0.700007 0.850517 0.063999 0.141480
H21   H     H_    0.596310 0.948875 0.013362 0.157758
H22   H     H_    0.538217 0.826613 0.007914 0.202234
C59   C     C_3   0.734265 0.434578 0.767099 -0.739927
H23   H     H_    0.725359 0.497134 0.788450 0.206548
H24   H     H_    0.702921 0.361914 0.829561 0.274267
H25   H     H_    0.836738 0.441817 0.761337 0.242842
C60   C     C_3   0.274268 0.568929 0.229340 -0.775623
H26   H     H_    0.284861 0.507392 0.207090 0.190919
H27   H     H_    0.171361 0.560624 0.234636 0.232975
H28   H     H_    0.305192 0.642412 0.167629 0.283645
O11   O     O_3   0.798452 0.267157 0.761523 -0.578762
C61   C     C_3   0.921324 0.282987 0.734277 -0.385945
H29   H     H_    0.943352 0.361034 0.675298 0.171010
H30   H     H_    0.932274 0.224732 0.707457 0.142438
H31   H     H_    0.992942 0.275721 0.803005 0.233033
O12   O     O_3   0.204637 0.732859 0.237452 -0.580005
C62   C     C_3   0.081331 0.714111 0.264857 -0.437665
H32   H     H_    0.066567 0.773569 0.288532 0.166106
H33   H     H_    0.062957 0.636884 0.326175 0.166570
H34   H     H_    0.009579 0.716784 0.197150 0.191074
C63   C     C_3   0.140071 0.267190 0.513722 -0.812956
H35   H     H_    0.076439 0.232233 0.463052 0.223640
H36   H     H_    0.081660 0.305559 0.536805 0.226940
H37   H     H_    0.212035 0.325596 0.468008 0.249995
C64   C     C_3   0.832918 0.738672 0.483728 -0.832416
H38   H     H_    0.808177 0.750696 0.547449 0.239302
H39   H     H_    0.792037 0.659418 0.492327 0.259548
H40   H     H_    0.938559 0.745993 0.490606 0.222222
O13   O     O_3   0.324991 0.333634 0.647379 -0.583606
C65   C     C_3   0.295175 0.358754 0.722636 -0.240064
H41   H     H_    0.381382 0.362224 0.778975 0.210907
H42   H     H_    0.214091 0.305828 0.762055 0.138711
H43   H     H_    0.266761 0.436131 0.685243 0.182432
O14   O     O_3   0.657801 0.684700 0.327312 -0.559667
C66   C     C_3   0.742810 0.649997 0.292505 -0.341630
H44   H     H_    0.839961 0.653160 0.336747 0.148293
H45   H     H_    0.747273 0.693657 0.209539 0.164836
H46   H     H_    0.707499 0.569032 0.304566 0.192637
O15   O     O_3   0.167814 0.393757 0.889633 -0.630379
C67   C     C_3   0.089102 0.428680 0.929969 -0.290176
H47   H     H_    0.101107 0.513478 0.897141 0.193810
H48   H     H_    0.107562 0.398817 0.014914 0.164511
H49   H     H_    0.987884 0.400179 0.909156 0.209412
O16   O     O_3   0.889507 0.558974 0.973993 -0.594233
C68   C     C_3   0.950841 0.545408 0.073401 -0.387373
H50   H     H_    0.927045 0.465765 0.128472 0.165804
H51   H     H_    0.055640 0.560163 0.072236 0.203588
H52   H     H_    0.927295 0.600411 0.099268 0.165218
C69   C     C_3   0.370776 0.731143 0.846906 -0.897423
H53   H     H_    0.306616 0.733593 0.775630 0.231637
H54   H     H_    0.332304 0.668895 0.914598 0.251202
H55   H     H_    0.370960 0.802893 0.856072 0.217903
C70   C     C_3   0.627372 0.326381 0.230074 -0.836920
H56   H     H_    0.672783 0.405995 0.194577 0.221238
H57   H     H_    0.588959 0.329194 0.293100 0.247688
H58   H     H_    0.702508 0.275859 0.260513 0.218973
O17   O     O_3   0.790720 0.912669 0.759924 -0.583639
C71   C     C_3   0.849623 0.958887 0.829118 -0.340895
H59   H     H_    0.776909 0.975852 0.861190 0.169585
H60   H     H_    0.907383 0.032321 0.787643 0.177484
H61   H     H_    0.916271 0.911220 0.891598 0.161458
O18   O     O_3   0.260767 0.067712 0.185546 -0.581627
C72   C     C_3   0.252170 0.015635 0.121414 -0.315333
H62   H     H_    0.206891 0.057216 0.042419 0.140691
H63   H     H_    0.189571 0.941591 0.151222 0.212318
H64   H     H_    0.348111 0.999857 0.120879 0.182303

loop_
_geom_bond_atom_site_label_1
_geom_bond_atom_site_label_2
_ccdc_geom_bond_type
C49   C63   S    
O14   C66   S    
C72   H63   S    
C50   C64   S    
C1    O1    A    
C5    C56   A    
C36   C42   A    
C59   H23   S    
C18   C26   A    
C13   C70   S    
C6    C55   A    
C61   H30   S    
C70   H56   S    
O10   C58   S    
C59   H25   S    
O17   C71   S    
C39   C41   A    
O9    C57   S    
C15   C19   A    
C68   H51   S    
C23   O7    A    
Cu1   N2    S    
C10   C18   A    
C54   O10   S    
C37   C40   A    
C69   H54   S    
C38   C39   A    
C57   H18   S    
C45   H13   S    
O12   C62   S    
C24   O6    A    
C11   O18   S    
C3    C55   A    
C43   C53   A    
C19   C20   A    
C44   C46   A    
C67   H47   S    
C49   C51   A    
C71   H61   S    
C50   C52   A    
C31   C33   A    
C44   H12   S    
C46   H14   S    
C8    C12   A    
C63   H37   S    
C40   C42   A    
C14   C69   S    
C43   H11   S    
C1    C7    S    
C4    C56   A    
C72   H64   S    
Cu1   O4    S    
C3    C24   S    
C31   H6    S    
C61   H29   S    
C70   H57   S    
C52   C54   A    
Cu2   N1    S    
C7    C11   A    
C45   C47   A    
C68   H52   S    
C46   C48   A    
C56   H16   S    
C6    C47   S    
Cu1   O1    S    
C19   C22   A    
C26   O16   S    
Cu2   O6    S    
C4    C6    A    
C69   H55   S    
C58   H20   S    
C4    C23   S    
C52   O14   S    
C57   H17   S    
C27   C35   A    
C42   C60   S    
C33   C37   A    
C51   C53   A    
C32   C34   A    
C10   H2    S    
C22   H4    S    
C66   H45   S    
C37   C38   A    
C2    O2    A    
C58   H21   S    
C30   N2    A    
C31   N1    A    
C60   H26   S    
C16   C20   A    
O18   C72   S    
Cu1   O8    S    
C16   C18   A    
C48   C50   A    
C9    C11   A    
O13   C65   S    
C10   C12   A    
Cu2   O3    S    
C9    C17   A    
C60   H27   S    
C13   C15   A    
C40   H10   S    
C51   O13   S    
C71   H60   S    
C62   H34   S    
C65   H42   S    
O15   C67   S    
C25   O15   S    
O11   C61   S    
C70   H58   S    
C63   H35   S    
C21   H3    S    
C15   C17   A    
C21   C25   A    
C8    C14   A    
C23   O5    A    
C34   C38   A    
C39   H9    S    
C12   O17   S    
C2    C8    S    
C32   H5    S    
O16   C68   S    
C3    C5    A    
C57   H19   S    
C32   N2    A    
C59   H24   S    
C29   N1    A    
C47   C49   A    
C68   H50   S    
C64   H38   S    
C17   C25   A    
C65   H43   S    
C64   H39   S    
C24   O8    A    
C66   H46   S    
C28   C30   A    
C43   C45   A    
C69   H53   S    
C58   H22   S    
C5    C48   S    
Cu1   Cu2   S    
C41   C59   S    
C27   C29   A    
C28   O12   S    
C67   H49   S    
C1    O3    A    
C62   H33   S    
C27   O11   S    
C33   C35   A    
C34   C36   A    
C64   H40   S    
C14   C16   A    
C35   C41   A    
Cu1   O5    S    
C30   H7    S    
C2    O4    A    
Cu2   O2    S    
C29   H8    S    
C55   H15   S    
C44   C54   A    
C7    C13   A    
C60   H28   S    
C20   C21   A    
C28   C36   A    
C67   H48   S    
C22   C26   A    
C62   H32   S    
C72   H62   S    
C71   H59   S    
C53   O9    S    
C9    H1    S    
C65   H41   S    
Cu2   O7    S    
C61   H31   S    
C66   H44   S    
C63   H36   S    
