data_mof_unit_65193.cif
_audit_creation_date              2012-12-10T17:58:22-0500
_audit_creation_method            fapswitch 2.2
_symmetry_space_group_name_H-M    P1
_symmetry_Int_Tables_number       1
_space_group_crystal_system       triclinic
_cell_length_a                    21.731467
_cell_length_b                    21.739034
_cell_length_c                    22.348831
_cell_angle_alpha                 119.694119
_cell_angle_beta                  119.545473
_cell_angle_gamma                 89.754727
_cell_volume                      7565.9418773

loop_
_atom_site_label
_atom_site_type_symbol
_atom_type_description
_atom_site_fract_x
_atom_site_fract_y
_atom_site_fract_z
_atom_type_partial_charge
C1    C     C_R   0.498994 0.117691 0.498129 0.814360
C2    C     C_3   0.732747 0.324608 0.049234 -0.371231
C3    C     C_3   0.792545 0.290072 0.082714 0.324124
C4    C     C_3   0.752161 0.209755 0.047350 -0.372256
C5    C     C_3   0.703654 0.161457 0.950338 -0.375554
C6    C     C_1   0.838527 0.336183 0.174916 -0.115922
C7    C     C_1   0.663464 0.162142 0.825258 -0.116425
C8    C     C_1   0.625481 0.124735 0.749806 -0.176189
C9    C     C_R   0.478736 0.239606 0.540382 0.021268
C10   C     C_R   0.497267 0.182054 0.494100 -0.134872
C11   C     C_R   0.516855 0.190553 0.445902 0.254888
C12   C     C_R   0.580160 0.080042 0.659955 0.814920
C13   C     C_R   0.518005 0.256812 0.448178 -0.291047
C14   C     C_R   0.500449 0.314218 0.498100 -0.106905
C15   C     C_R   0.481611 0.303127 0.543506 0.085644
C16   C     C_3   0.454803 0.336100 0.598933 -0.494296
C17   C     C_3   0.451454 0.263261 0.595565 -0.096164
C18   C     C_3   0.251225 0.707925 0.046680 -0.036023
C19   C     C_3   0.339916 0.787269 0.049410 -0.376992
C20   C     C_3   0.291657 0.738095 0.952487 -0.380172
C21   C     C_1   0.124972 0.625532 0.749720 -0.174890
C22   C     C_3   0.291281 0.789554 0.082657 0.289510
C23   C     C_R   0.499942 0.880965 0.499445 0.793648
C24   C     C_3   0.202863 0.660613 0.948972 -0.383632
C25   C     C_3   0.208559 0.708308 0.917366 0.299348
C26   C     C_3   0.181980 0.775786 0.952339 -0.382674
C27   C     C_3   0.230214 0.823252 0.049197 -0.411571
C28   C     C_1   0.162584 0.663039 0.825137 -0.105634
C29   C     C_1   0.337099 0.837076 0.175008 -0.123640
C30   C     C_1   0.374714 0.875204 0.250393 -0.182238
C31   C     C_R   0.503421 0.814303 0.563263 0.102286
C32   C     C_R   0.502062 0.815014 0.500596 -0.073898
C33   C     C_R   0.511143 0.753965 0.444154 -0.211214
C34   C     C_R   0.419879 0.920080 0.340114 0.817687
C35   C     C_R   0.510937 0.689431 0.443964 -0.216498
C36   C     C_R   0.504260 0.686784 0.502154 -0.086776
C37   C     C_R   0.505467 0.751498 0.564683 0.137882
C38   C     C_3   0.454059 0.761896 0.592521 -0.486058
C39   C     C_3   0.451715 0.830867 0.590707 -0.462670
C40   C     C_R   0.881685 0.500252 0.500300 0.798427
C41   C     C_R   0.920361 0.419776 0.340093 0.825437
C42   C     C_R   0.119219 0.500019 0.500521 0.793769
C43   C     C_R   0.080153 0.580206 0.659922 0.821827
C44   C     C_R   0.619121 0.500195 0.500359 0.805747
C45   C     C_3   0.684164 0.276301 0.952353 -0.382553
C46   C     C_R   0.499846 0.381003 0.499582 0.826522
C47   C     C_R   0.380777 0.499750 0.499601 0.800221
C48   C     C_R   0.500341 0.619304 0.500413 0.800481
C49   C     C_R   0.757127 0.515535 0.452724 0.127378
C50   C     C_R   0.816443 0.501124 0.502328 -0.089262
C51   C     C_R   0.810131 0.486102 0.554067 -0.211664
C52   C     C_R   0.745568 0.486821 0.554718 -0.216393
C53   C     C_R   0.685897 0.499969 0.501485 -0.089569
C54   C     C_R   0.694231 0.513372 0.450996 0.126977
C55   C     C_3   0.657148 0.530402 0.387035 -0.484998
C56   C     C_3   0.792982 0.236750 0.952331 -0.370883
C57   C     C_3   0.728739 0.532078 0.388322 -0.474535
C58   C     C_R   0.186964 0.499510 0.438571 0.102346
C59   C     C_R   0.185080 0.497787 0.499187 -0.075327
C60   C     C_R   0.244829 0.485768 0.553256 -0.210778
C61   C     C_R   0.309445 0.486172 0.553611 -0.219697
C62   C     C_R   0.313374 0.495988 0.497859 -0.083876
C63   C     C_R   0.249786 0.497592 0.437182 0.136598
C64   C     C_3   0.241516 0.551894 0.413482 -0.488636
C65   C     C_3   0.172507 0.554107 0.415272 -0.459875
C66   C     C_3   0.841584 0.284961 0.049340 -0.376349
C67   C     C_1   0.875901 0.374249 0.250323 -0.175260
C68   C     C_3   0.709818 0.207887 0.917543 0.325305
Cu1   Cu    Cu3+1 0.438190 0.000000 0.500020 0.930255
Cu2   Cu    Cu3+1 0.561810 0.000000 0.499980 0.958196
Cu3   Cu    Cu3+1 0.000200 0.561800 0.500000 0.939213
Cu4   Cu    Cu3+1 0.000170 0.438200 0.500000 0.942412
Cu5   Cu    Cu3+1 0.541330 0.541310 0.582630 0.936897
Cu6   Cu    Cu3+1 0.458770 0.458690 0.417370 0.937296
H1    H     H_    0.760174 0.382261 0.073227 0.161596
H2    H     H_    0.624740 0.257220 0.929014 0.165624
H3    H     H_    0.696444 0.328775 0.071999 0.159961
H4    H     H_    0.793854 0.183395 0.070167 0.162673
H5    H     H_    0.532264 0.263227 0.411005 0.150541
H6    H     H_    0.497891 0.387312 0.660879 0.199235
H7    H     H_    0.398945 0.342041 0.566941 0.174747
H8    H     H_    0.393824 0.227415 0.561736 0.166112
H9    H     H_    0.220524 0.611236 0.922673 0.164790
H10   H     H_    0.688427 0.310917 0.930142 0.163951
H11   H     H_    0.366377 0.844899 0.072515 0.164849
H12   H     H_    0.386058 0.765472 0.073449 0.157535
H13   H     H_    0.312592 0.690487 0.929793 0.159388
H14   H     H_    0.297383 0.771528 0.929563 0.164950
H15   H     H_    0.193743 0.825824 0.071438 0.161139
H16   H     H_    0.256524 0.881533 0.073855 0.172786
H17   H     H_    0.122437 0.755862 0.928270 0.163345
H18   H     H_    0.212881 0.711879 0.067016 0.137895
H19   H     H_    0.143664 0.638623 0.924783 0.142893
H20   H     H_    0.813146 0.188732 0.928701 0.162591
H21   H     H_    0.185802 0.811205 0.930795 0.169725
H22   H     H_    0.514646 0.754846 0.397862 0.146721
H23   H     H_    0.514411 0.641398 0.397623 0.151439
H24   H     H_    0.399688 0.716312 0.544983 0.186344
H25   H     H_    0.482174 0.775033 0.656518 0.201920
H26   H     H_    0.395956 0.825211 0.541964 0.211246
H27   H     H_    0.478445 0.883739 0.653659 0.193472
H28   H     H_    0.855050 0.474823 0.594345 0.153941
H29   H     H_    0.741765 0.475913 0.595312 0.152556
H30   H     H_    0.607391 0.483100 0.327246 0.204160
H31   H     H_    0.799203 0.270688 0.930122 0.160853
H32   H     H_    0.648376 0.585796 0.412352 0.192916
H33   H     H_    0.720353 0.485438 0.329451 0.191491
H34   H     H_    0.761031 0.588332 0.413813 0.206702
H35   H     H_    0.242957 0.479854 0.597752 0.148539
H36   H     H_    0.356547 0.480370 0.598185 0.149609
H37   H     H_    0.287900 0.605680 0.462910 0.186455
H38   H     H_    0.228752 0.526010 0.349849 0.202082
H39   H     H_    0.178947 0.609204 0.465890 0.210956
H40   H     H_    0.119982 0.529546 0.352672 0.193273
H41   H     H_    0.871110 0.341903 0.073483 0.160452
H42   H     H_    0.884917 0.259934 0.072086 0.161775
H43   H     H_    0.644459 0.140157 0.926565 0.160736
H44   H     H_    0.722237 0.112075 0.926779 0.161468
H45   H     H_    0.716122 0.211637 0.069930 0.160902
O1    O     O_R   0.447800 0.090170 0.500010 -0.602492
O2    O     O_R   0.909990 0.447840 0.500030 -0.587634
O3    O     O_R   0.939920 0.491910 0.379430 -0.583977
O4    O     O_R   0.939890 0.387530 0.379440 -0.579311
O5    O     O_R   0.090380 0.552160 0.499970 -0.587975
O6    O     O_R   0.090350 0.447780 0.499980 -0.586874
O7    O     O_R   0.060480 0.612470 0.620560 -0.580239
O8    O     O_R   0.060450 0.508090 0.620570 -0.585562
O9    O     O_R   0.625130 0.534920 0.569820 -0.587487
O10   O     O_R   0.555400 0.465140 0.430260 -0.589797
O11   O     O_R   0.534920 0.444720 0.569790 -0.590388
O12   O     O_R   0.552190 0.090170 0.499980 -0.553253
O13   O     O_R   0.465190 0.374940 0.430230 -0.587540
O14   O     O_R   0.444700 0.534860 0.569740 -0.590027
O15   O     O_R   0.374970 0.465080 0.430180 -0.583983
O16   O     O_R   0.534910 0.625060 0.569770 -0.583379
O17   O     O_R   0.465180 0.555280 0.430210 -0.589712
O18   O     O_R   0.508090 0.060280 0.620580 -0.587709
O19   O     O_R   0.612480 0.060280 0.620550 -0.579676
O20   O     O_R   0.447810 0.909830 0.500020 -0.586952
O21   O     O_R   0.552200 0.909830 0.499990 -0.586535
O22   O     O_R   0.387520 0.939720 0.379450 -0.582335
O23   O     O_R   0.491910 0.939720 0.379420 -0.576333
O24   O     O_R   0.910020 0.552220 0.500020 -0.585082
N1    N     N_2   0.533577 0.132751 0.393942 -0.406536
H46   H     H_    0.570395 0.151880 0.385890 0.244825
C69   C     C_3   0.468573 0.072062 0.315382 -0.666256
H47   H     H_    0.435428 0.092216 0.276122 0.212092
H48   H     H_    0.432932 0.048017 0.325885 0.219423
H49   H     H_    0.486491 0.027210 0.281446 0.223805
C70   C     C_3   0.507335 0.273404 0.678872 -0.354426
C71   C     C_3   0.479678 0.304266 0.736016 -0.338516
C72   C     C_3   0.533001 0.311233 0.817351 -0.879597
H50   H     H_    0.537850 0.255654 0.804058 0.257960
H51   H     H_    0.588924 0.350414 0.851644 0.249347
H52   H     H_    0.511449 0.333037 0.857307 0.242917
H53   H     H_    0.474819 0.360197 0.750633 0.221070
H54   H     H_    0.423727 0.266301 0.703961 0.215642
H55   H     H_    0.513308 0.218149 0.666042 0.205832
H56   H     H_    0.563105 0.311578 0.710552 0.200564
C73   C     C_3   0.305712 0.669233 0.080308 -0.407419
C74   C     C_3   0.264585 0.599312 0.063389 -0.365852
C75   C     C_3   0.319126 0.562865 0.098135 -0.843976
H57   H     H_    0.350128 0.545577 0.068255 0.250145
H58   H     H_    0.359423 0.602371 0.166790 0.252802
H59   H     H_    0.287921 0.512597 0.085022 0.241181
H60   H     H_    0.233571 0.614894 0.093356 0.216118
H61   H     H_    0.223867 0.557887 0.995198 0.218905
H62   H     H_    0.337549 0.653566 0.051316 0.204531
H63   H     H_    0.346686 0.708180 0.148865 0.207561

loop_
_geom_bond_atom_site_label_1
_geom_bond_atom_site_label_2
_ccdc_geom_bond_type
Cu1   O20   S    
C13   H5    S    
C34   O22   A    
Cu2   O21   S    
C22   C29   S    
Cu6   O13   S    
Cu4   O2    S    
Cu5   Cu6   S    
Cu3   O3    S    
C19   C20   S    
C38   H24   S    
C3    C6    S    
C47   C62   S    
C74   C75   S    
C40   O24   A    
C42   O5    A    
C7    C8    T    
C14   C46   S    
C53   C54   A    
C25   C28   S    
C56   H20   S    
C40   O2    A    
C26   C27   S    
C29   C30   T    
C66   H42   S    
C45   H2    S    
C18   C24   S    
C71   H54   S    
C23   O20   A    
C36   C37   A    
C24   H9    S    
C69   H47   S    
C46   O13   A    
C38   C39   S    
C52   H29   S    
C56   C66   S    
C64   H38   S    
C20   C25   S    
Cu1   O22   S    
C15   C16   S    
C69   H49   S    
C20   H13   S    
Cu6   O15   S    
C58   C63   A    
C49   C57   S    
C27   H16   S    
C17   H8    S    
C65   H40   S    
C16   H7    S    
C60   H35   S    
C48   O16   A    
C42   O6    A    
C7    C68   S    
C21   C43   S    
C44   C53   S    
C44   O9    A    
C35   C36   A    
C16   C17   S    
Cu6   O17   S    
C73   H63   S    
C4    H45   S    
C36   C48   S    
C11   N1    S    
C69   H48   S    
C74   H60   S    
C8    C12   S    
C19   H12   S    
C59   C60   A    
C13   C14   A    
C47   O14   A    
C61   C62   A    
C45   C68   S    
C5    C68   S    
C61   H36   S    
C43   O7    A    
C39   H27   S    
C75   H58   S    
C2    C45   S    
Cu1   O18   S    
Cu2   O23   S    
C70   H56   S    
C30   C34   S    
C55   H32   S    
C51   C52   A    
Cu5   O11   S    
Cu5   O16   S    
C23   O21   A    
C19   C22   S    
C24   C25   S    
C41   C67   S    
C66   H41   S    
C43   O8    A    
C38   H25   S    
C64   H37   S    
Cu4   O8    S    
C19   H11   S    
C26   H17   S    
C56   C68   S    
C55   H30   S    
C31   C37   A    
C5    H43   S    
C60   C61   A    
C51   H28   S    
C1    O1    A    
C41   O3    A    
C4    H4    S    
C37   C38   S    
C75   H59   S    
Cu3   O5    S    
C58   C65   S    
C31   C32   A    
C14   C15   A    
C72   H52   S    
C71   C72   S    
C62   C63   A    
C50   C51   A    
Cu3   O7    S    
C71   H53   S    
C74   H61   S    
N1    C69   S    
C6    C67   T    
C57   H33   S    
C21   C28   T    
Cu5   O14   S    
Cu2   O19   S    
C22   C27   S    
C55   C57   S    
C47   O15   A    
C12   O19   A    
C58   C59   A    
C3    C66   S    
C3    C4    S    
C33   H22   S    
C52   C53   A    
Cu3   O24   S    
C75   H57   S    
C9    C10   A    
C9    C17   S    
C26   H21   S    
C54   C55   S    
C34   O23   A    
C70   H55   S    
C18   C22   S    
C65   H39   S    
C48   O17   A    
C1    C10   S    
C72   H51   S    
N1    H46   S    
C1    O12   A    
C42   C59   S    
C46   O11   A    
C44   O10   A    
Cu5   O9    S    
Cu4   O6    S    
Cu1   O1    S    
C70   C71   S    
C5    H44   S    
C18   H18   S    
C32   C33   A    
C41   O4    A    
C2    C3    S    
C25   C26   S    
Cu3   Cu4   S    
Cu4   O4    S    
C2    H3    S    
C24   H19   S    
C23   C32   S    
C11   C13   A    
C39   H26   S    
C40   C50   S    
C20   H14   S    
C64   C65   S    
Cu2   O12   S    
C33   C35   A    
C31   C39   S    
C27   H15   S    
C73   H62   S    
C9    C15   A    
Cu1   Cu2   S    
C73   C74   S    
C56   H31   S    
C18   C73   S    
C10   C11   A    
C63   C64   S    
C45   H10   S    
C4    C5    S    
C57   H34   S    
C72   H50   S    
C49   C50   A    
Cu6   O10   S    
C12   O18   A    
C16   H6    S    
C35   H23   S    
C2    H1    S    
C49   C54   A    
C17   C70   S    
