data_mof_unit_38193.cif
_audit_creation_date              2012-10-26T21:10:26-0400
_audit_creation_method            fapswitch 2.2
_symmetry_space_group_name_H-M    P1
_symmetry_Int_Tables_number       1
_space_group_crystal_system       triclinic
_cell_length_a                    10.848316
_cell_length_b                    10.925244
_cell_length_c                    9.676517
_cell_angle_alpha                 89.958759
_cell_angle_beta                  90.242203
_cell_angle_gamma                 90.234239
_cell_volume                      1146.84551214

loop_
_atom_site_label
_atom_site_type_symbol
_atom_type_description
_atom_site_fract_x
_atom_site_fract_y
_atom_site_fract_z
_atom_type_partial_charge
C1    C     C_R   0.502431 0.265292 0.500149 0.549579
C2    C     C_R   0.806742 0.428835 0.979834 -0.124075
C3    C     C_R   0.759761 0.309633 0.976551 -0.128756
C4    C     C_R   0.262266 0.502851 0.499403 0.549449
C5    C     C_R   0.772351 0.238378 0.857763 -0.116212
C6    C     C_R   0.832331 0.285914 0.741954 -0.123876
C7    C     C_R   0.880001 0.405552 0.744078 0.089804
C8    C     C_2   0.512881 0.933061 0.387569 -0.125396
C9    C     C_2   0.492687 0.866749 0.501797 -0.103010
C10   C     C_2   0.505899 0.066919 0.386561 -0.144611
C11   C     C_2   0.510827 0.133365 0.502736 -0.123707
C12   C     C_R   0.230196 0.692078 0.016209 0.269975
C13   C     C_2   0.433726 0.424696 0.921805 -0.005572
C14   C     C_2   0.436852 0.422069 0.077628 -0.021712
C15   C     C_R   0.498850 0.734732 0.500029 0.562789
C16   C     C_R   0.737717 0.497629 0.500614 0.547865
C17   C     C_R   0.238651 0.757486 0.143169 0.254399
C18   C     C_R   0.180650 0.710103 0.260912 -0.032255
C19   C     C_R   0.119001 0.597103 0.256224 -0.012993
C20   C     C_R   0.114218 0.531602 0.132058 -0.168403
C21   C     C_R   0.170010 0.578594 0.013650 -0.058888
C22   C     C_R   0.932989 0.539984 0.384928 -0.148205
C23   C     C_R   0.871633 0.496394 0.502020 0.002115
C24   C     C_R   0.939178 0.456117 0.618580 0.018260
C25   C     C_R   0.066838 0.460890 0.615036 -0.110372
C26   C     C_R   0.128294 0.505078 0.498176 0.003485
C27   C     C_R   0.060652 0.545970 0.381798 -0.023287
C28   C     C_R   0.866980 0.478169 0.863443 0.269051
Cu1   Cu    Cu3+1 0.500020 0.500020 0.638630 0.991802
Cu2   Cu    Cu3+1 0.499980 0.499980 0.361370 0.933994
H1    H     H_    0.735184 0.146314 0.855219 0.116364
H2    H     H_    0.186203 0.760187 0.357390 0.139869
H3    H     H_    0.067546 0.443864 0.127092 0.123116
H4    H     H_    0.164677 0.527284 0.918294 0.157102
H5    H     H_    0.881299 0.572920 0.296312 0.127347
H6    H     H_    0.118385 0.426718 0.703059 0.119630
H7    H     H_    0.795021 0.482995 0.072438 0.095393
H8    H     H_    0.280406 0.826216 0.897166 0.322686
H9    H     H_    0.712844 0.272748 0.065989 0.126840
H10   H     H_    0.559187 0.557704 0.894198 0.214171
H11   H     H_    0.369551 0.868115 0.087309 0.315180
H12   H     H_    0.840708 0.230054 0.650053 0.103163
H13   H     H_    0.892996 0.635321 0.953084 0.314771
H14   H     H_    0.532853 0.888288 0.290062 0.161773
H15   H     H_    0.468671 0.907990 0.599662 0.105217
H16   H     H_    0.498464 0.111393 0.286430 0.152119
H17   H     H_    0.524593 0.092223 0.603388 0.096957
H18   H     H_    0.373293 0.359843 0.870075 0.125571
H19   H     H_    0.382300 0.352256 0.128896 0.139814
H20   H     H_    0.547231 0.567674 0.106125 0.204924
N1    N     N_2   0.498640 0.498660 0.846910 -0.319263
N2    N     N_2   0.498610 0.498630 0.153040 -0.351129
O1    O     O_R   0.500020 0.321960 0.617040 -0.504018
O2    O     O_3   0.303466 0.865579 0.157449 -0.726203
O3    O     O_3   0.910539 0.597081 0.862380 -0.699712
O4    O     O_R   0.499980 0.321920 0.382900 -0.501137
O5    O     O_R   0.319660 0.500030 0.617070 -0.486065
O6    O     O_R   0.319620 0.499990 0.382930 -0.490167
O7    O     O_R   0.500020 0.678080 0.617100 -0.472152
O8    O     O_R   0.499980 0.678040 0.382960 -0.495094
O9    O     O_R   0.680380 0.500010 0.617070 -0.479433
O10   O     O_R   0.680340 0.499970 0.382930 -0.517162
O11   O     O_3   0.276759 0.735785 0.893168 -0.691711

loop_
_geom_bond_atom_site_label_1
_geom_bond_atom_site_label_2
_ccdc_geom_bond_type
C4    O5    A    
C12   C17   A    
C13   H18   S    
C4    C26   S    
C23   C24   A    
C10   H16   S    
C6    C7    A    
H10   N1    S    
C19   C27   S    
C15   O8    A    
Cu1   O7    S    
C11   H17   S    
C19   C20   A    
C1    C11   S    
C16   O10   A    
C17   C18   A    
C9    C15   S    
C3    H9    S    
C13   C14   S    
C24   C25   A    
C2    C28   A    
C9    H15   S    
C22   H5    S    
C17   O2    S    
C2    H7    S    
C26   C27   A    
Cu1   Cu2   S    
Cu1   O1    S    
C20   H3    S    
C16   O9    A    
H13   O3    S    
C1    O4    A    
Cu1   O5    S    
C2    C3    A    
C16   C23   S    
C22   C27   A    
Cu2   O10   S    
Cu1   N1    S    
C5    C6    A    
Cu1   O9    S    
H11   O2    S    
C14   H19   S    
C18   H2    S    
C10   C11   D    
C25   H6    S    
C7    C24   S    
Cu2   O6    S    
C20   C21   A    
C8    C10   S    
H8    O11   S    
C6    H12   S    
C4    O6    A    
H20   N2    S    
C12   O11   S    
Cu2   N2    S    
C22   C23   A    
C18   C19   A    
C1    O1    A    
C21   H4    S    
C3    C5    A    
C25   C26   A    
C13   N1    D    
Cu2   O4    S    
C12   C21   A    
C28   O3    S    
C14   N2    D    
C7    C28   A    
C8    H14   S    
C8    C9    D    
C5    H1    S    
C15   O7    A    
Cu2   O8    S    
