data_mof_unit_12462.cif
_audit_creation_date              2012-12-11T15:15:35-0500
_audit_creation_method            fapswitch 2.2
_symmetry_space_group_name_H-M    P1
_symmetry_Int_Tables_number       1
_space_group_crystal_system       triclinic
_cell_length_a                    14.106593
_cell_length_b                    14.133095
_cell_length_c                    28.103427
_cell_angle_alpha                 89.526776
_cell_angle_beta                  89.804252
_cell_angle_gamma                 119.783387
_cell_volume                      4862.52709049

loop_
_atom_site_label
_atom_site_type_symbol
_atom_type_description
_atom_site_fract_x
_atom_site_fract_y
_atom_site_fract_z
_atom_type_partial_charge
C1    C     C_R   0.566513 0.452681 0.566787 0.555374
C2    C     C_3   0.483707 0.011206 0.199631 -0.031322
C3    C     C_3   0.840509 0.574749 0.172661 0.002379
C4    C     C_3   0.838599 0.659511 0.139093 -0.245412
C5    C     C_3   0.744103 0.608060 0.104184 -0.477465
C6    C     C_3   0.794201 0.315332 0.834220 0.034235
C7    C     C_3   0.813524 0.277008 0.882542 -0.216065
C8    C     C_3   0.723512 0.256017 0.918350 -0.468764
C9    C     C_3   0.571712 0.409305 0.837555 0.006683
C10   C     C_3   0.623644 0.469417 0.883780 -0.228921
C11   C     C_3   0.556596 0.408683 0.927775 -0.487080
C12   C     C_3   0.399690 0.076965 0.821322 0.008051
C13   C     C_3   0.483187 0.537142 0.208298 -0.044911
C14   C     C_3   0.314918 0.046296 0.861125 -0.210738
C15   C     C_3   0.361174 0.121925 0.903445 -0.467034
C16   C     C_3   0.304406 0.052382 0.312042 0.079021
C17   C     C_3   0.278033 0.042678 0.365553 -0.228951
C18   C     C_3   0.157004 0.969614 0.376528 -0.386004
C19   C     C_3   0.712571 0.722767 0.313837 0.066462
C20   C     C_3   0.748428 0.781354 0.361425 -0.234010
C21   C     C_3   0.863912 0.807410 0.373819 -0.474231
C22   C     C_3   0.957040 0.266706 0.311044 0.078711
C23   C     C_3   0.977142 0.228366 0.359442 -0.201860
C24   C     C_3   0.006820 0.496513 0.203148 -0.040212
C25   C     C_3   0.003982 0.136568 0.354778 -0.395420
C26   C     C_3   0.925384 0.415533 0.775964 0.280013
C27   C     C_3   0.543736 0.495428 0.772014 0.252673
C28   C     C_3   0.414962 0.969195 0.762728 0.252107
C29   C     C_3   0.415387 0.004328 0.268879 0.286133
C30   C     C_3   0.550752 0.604001 0.276202 0.267931
C31   C     C_3   0.016496 0.432042 0.271253 0.262456
C32   C     C_3   0.876052 0.474669 0.747835 -0.173624
C33   C     C_R   0.546742 0.113377 0.566895 0.559813
C34   C     C_3   0.455221 0.408349 0.740120 -0.135439
C35   C     C_3   0.530293 0.037703 0.741382 -0.146036
C36   C     C_3   0.451148 0.931898 0.242471 -0.092117
C37   C     C_3   0.437995 0.563542 0.253260 -0.105973
C38   C     C_3   0.094659 0.535285 0.242285 -0.108613
C39   C     C_1   0.039821 0.530080 0.848037 0.043513
C40   C     C_1   0.450177 0.552199 0.839988 0.014368
C41   C     C_1   0.425159 0.859163 0.836017 0.020200
C42   C     C_1   0.542070 0.086316 0.340717 0.017030
C43   C     C_1   0.526905 0.474389 0.345807 0.018806
C44   C     C_R   0.884167 0.431780 0.567483 0.551414
C45   C     C_1   0.948765 0.483077 0.346260 0.014785
C46   C     C_1   0.940181 0.475129 0.656582 -0.044420
C47   C     C_1   0.509018 0.482732 0.651281 -0.033296
C48   C     C_1   0.508619 0.009387 0.648611 -0.031964
C49   C     C_1   0.469146 0.971264 0.151305 -0.033592
C50   C     C_1   0.460622 0.558269 0.160511 -0.058993
C51   C     C_1   0.033573 0.509210 0.152856 -0.051343
C52   C     C_R   0.568299 0.452885 0.433923 0.550494
C53   C     C_R   0.549569 0.119366 0.432529 0.549779
C54   C     C_R   0.886541 0.433541 0.434376 0.548282
C55   C     C_R   0.429320 0.598229 0.073118 0.557126
C56   C     C_R   0.430430 0.597969 0.928003 0.529523
C57   C     C_R   0.114764 0.547834 0.934134 0.532975
C58   C     C_R   0.399014 0.826475 0.928743 0.542782
C59   C     C_3   0.043519 0.602281 0.729345 0.275451
C60   C     C_3   0.406177 0.528308 0.719378 0.274032
C61   C     C_3   0.522000 0.884947 0.718575 0.271462
C62   C     C_3   0.598500 0.082458 0.219281 0.301328
C63   C     C_3   0.448908 0.422768 0.227493 0.289959
C64   C     C_3   0.953173 0.555158 0.227006 0.296180
C65   C     C_3   0.963380 0.583849 0.770744 0.174079
C66   C     C_R   0.113021 0.545975 0.066621 0.543073
C67   C     C_3   0.372244 0.441551 0.759595 0.220764
C68   C     C_3   0.561351 0.955591 0.763786 0.223118
C69   C     C_3   0.567138 0.003124 0.261743 0.261389
C70   C     C_3   0.403451 0.448021 0.272164 0.262780
C71   C     C_3   0.039882 0.594107 0.265950 0.261892
C72   C     C_1   0.068861 0.535871 0.888330 0.024947
C73   C     C_1   0.441164 0.573310 0.880233 0.020083
C74   C     C_1   0.413366 0.843368 0.878327 0.011342
C75   C     C_1   0.545346 0.095800 0.383163 0.017440
C76   C     C_1   0.541589 0.465762 0.386941 0.023824
C77   C     C_R   0.431631 0.885303 0.066904 0.551728
C78   C     C_1   0.928028 0.464909 0.387632 0.011433
C79   C     C_1   0.921044 0.457842 0.615073 -0.019046
C80   C     C_1   0.531345 0.470187 0.611583 -0.011312
C81   C     C_1   0.525010 0.052894 0.610266 -0.011441
C82   C     C_1   0.458318 0.935606 0.112005 -0.013679
C83   C     C_1   0.443305 0.574704 0.120665 -0.016778
C84   C     C_1   0.063700 0.525440 0.112311 -0.012608
C85   C     C_3   0.091719 0.541460 0.757415 -0.116841
C86   C     C_3   0.495939 0.614582 0.751424 -0.103543
C87   C     C_3   0.405689 0.817100 0.740705 -0.121483
C88   C     C_3   0.959460 0.493623 0.707321 -0.029888
C89   C     C_3   0.561477 0.153470 0.246854 -0.206277
C90   C     C_3   0.561011 0.463859 0.251240 -0.193313
C91   C     C_3   0.876252 0.452001 0.256500 -0.197525
C92   C     C_3   0.010436 0.521950 0.798248 0.022502
C93   C     C_3   0.462356 0.527793 0.791128 -0.011623
C94   C     C_3   0.445237 0.889138 0.785459 -0.013661
C95   C     C_3   0.529856 0.071835 0.289340 -0.012542
C96   C     C_3   0.513914 0.489832 0.295906 0.003595
C97   C     C_3   0.965151 0.492458 0.295273 0.008412
C98   C     C_3   0.005619 0.432076 0.735384 -0.090352
C99   C     C_3   0.488871 0.497006 0.700654 -0.017640
C100  C     C_3   0.579001 0.582498 0.732272 -0.085639
C101  C     C_3   0.374175 0.898105 0.718131 -0.065614
C102  C     C_3   0.444445 0.082164 0.225595 -0.167074
C103  C     C_3   0.597228 0.580610 0.230888 -0.174276
C104  C     C_3   0.930300 0.391436 0.231728 -0.188497
C105  C     C_3   0.066963 0.763486 0.692163 0.031818
C106  C     C_3   0.965305 0.713270 0.660470 -0.263630
C107  C     C_3   0.928183 0.795599 0.649033 -0.479611
C108  C     C_3   0.244433 0.479197 0.677833 0.015136
C109  C     C_3   0.244862 0.400980 0.640517 -0.252675
C110  C     C_3   0.489431 0.964509 0.696780 -0.018166
C111  C     C_3   0.129032 0.321161 0.624411 -0.466063
C112  C     C_3   0.678690 0.884370 0.688944 0.025674
C113  C     C_3   0.730908 0.991664 0.660314 -0.253644
C114  C     C_3   0.853703 0.038000 0.654182 -0.461682
C115  C     C_3   0.724644 0.213970 0.165601 0.010943
C116  C     C_3   0.658217 0.199251 0.120538 -0.274145
C117  C     C_3   0.705967 0.304637 0.091260 -0.496551
C118  C     C_3   0.448848 0.322379 0.162199 0.003536
C119  C     C_3   0.370187 0.273888 0.120552 -0.239949
C120  C     C_3   0.428741 0.272008 0.075122 -0.476215
Cr1   Cr    Cr6+3 0.504830 0.254570 0.500510 1.033522
Cr2   Cr    Cr6+3 0.745430 0.250260 0.500510 1.028685
Cr3   Cr    Cr6+3 0.749740 0.495170 0.500510 1.025360
Cr4   Cr    Cr6+3 0.254570 0.504830 0.000510 1.034898
Cr5   Cr    Cr6+3 0.250260 0.745430 0.000510 1.026963
Cr6   Cr    Cr6+3 0.495170 0.749740 0.000510 1.049115
H1    H     H_    0.787825 0.446381 0.743334 0.134314
H2    H     H_    0.388405 0.108659 0.210947 0.155811
H3    H     H_    0.889016 0.852956 0.407709 0.138255
H4    H     H_    0.921401 0.858632 0.345220 0.184306
H5    H     H_    0.941716 0.205784 0.283013 0.206573
H6    H     H_    0.880845 0.271652 0.314862 0.116136
H7    H     H_    0.044359 0.297874 0.378422 0.223011
H8    H     H_    0.902623 0.197820 0.382108 0.145120
H9    H     H_    0.932260 0.061642 0.341395 0.175377
H10   H     H_    0.025975 0.117884 0.390142 0.126574
H11   H     H_    0.073335 0.160273 0.329910 0.253581
H12   H     H_    0.676281 0.639085 0.214006 0.132806
H13   H     H_    0.894321 0.305778 0.220888 0.143662
H14   H     H_    0.179890 0.570272 0.762172 0.149266
H15   H     H_    0.513513 0.698459 0.758725 0.175204
H16   H     H_    0.354219 0.727098 0.740770 0.163556
H17   H     H_    0.605282 0.243355 0.250424 0.095995
H18   H     H_    0.609202 0.421356 0.250915 0.093561
H19   H     H_    0.787671 0.419945 0.262510 0.096612
H20   H     H_    0.810055 0.649317 0.753234 0.334682
H21   H     H_    0.439497 0.323935 0.735064 0.141211
H22   H     H_    0.093168 0.211833 0.755417 0.373130
H23   H     H_    0.852146 0.100262 0.793740 0.388887
H24   H     H_    0.603791 0.833368 0.228923 0.338236
H25   H     H_    0.195377 0.360827 0.234526 0.345955
H26   H     H_    0.205925 0.780613 0.221434 0.319302
H27   H     H_    0.130293 0.836907 0.673021 0.143643
H28   H     H_    0.052768 0.794623 0.725683 0.228859
H29   H     H_    0.984591 0.686297 0.626585 0.181485
H30   H     H_    0.896686 0.642134 0.678569 0.160142
H31   H     H_    0.993142 0.866608 0.629118 0.149347
H32   H     H_    0.580939 0.127983 0.741541 0.126523
H33   H     H_    0.853773 0.756458 0.626748 0.152842
H34   H     H_    0.908481 0.824508 0.682260 0.186185
H35   H     H_    0.199246 0.518467 0.663127 0.169899
H36   H     H_    0.199371 0.434904 0.710067 0.189435
H37   H     H_    0.294529 0.448346 0.609174 0.180270
H38   H     H_    0.281071 0.353536 0.655805 0.195029
H39   H     H_    0.078103 0.272717 0.655244 0.171654
H40   H     H_    0.131378 0.264483 0.597929 0.154399
H41   H     H_    0.091193 0.365755 0.607680 0.155675
H42   H     H_    0.701035 0.828089 0.671225 0.146315
H43   H     H_    0.405396 0.841464 0.241105 0.125238
H44   H     H_    0.712928 0.895458 0.724995 0.213984
H45   H     H_    0.692958 0.977049 0.624587 0.176588
H46   H     H_    0.717469 0.053057 0.678881 0.197563
H47   H     H_    0.893950 0.054098 0.689421 0.190730
H48   H     H_    0.888850 0.115820 0.633705 0.152364
H49   H     H_    0.870404 0.980108 0.634361 0.141201
H50   H     H_    0.810147 0.245388 0.153443 0.163074
H51   H     H_    0.724330 0.277554 0.188432 0.107786
H52   H     H_    0.657868 0.134347 0.098388 0.187054
H53   H     H_    0.573612 0.176983 0.130420 0.151949
H54   H     H_    0.388991 0.605306 0.254341 0.131632
H55   H     H_    0.697044 0.367104 0.111291 0.130640
H56   H     H_    0.661050 0.289529 0.057269 0.150668
H57   H     H_    0.793613 0.335527 0.082924 0.156439
H58   H     H_    0.485949 0.271101 0.170387 0.126051
H59   H     H_    0.517029 0.403622 0.151077 0.119558
H60   H     H_    0.305743 0.189381 0.129852 0.184957
H61   H     H_    0.330178 0.323457 0.113905 0.193260
H62   H     H_    0.496716 0.354993 0.066141 0.156874
H63   H     H_    0.370199 0.243085 0.045165 0.161659
H64   H     H_    0.461172 0.215334 0.079517 0.146570
H65   H     H_    0.183602 0.567666 0.237017 0.112397
H66   H     H_    0.762371 0.531542 0.192884 0.119429
H67   H     H_    0.849289 0.514417 0.150744 0.124804
H68   H     H_    0.831467 0.721850 0.160210 0.191068
H69   H     H_    0.916727 0.701324 0.118679 0.188234
H70   H     H_    0.752111 0.548877 0.081198 0.144832
H71   H     H_    0.744841 0.672590 0.081123 0.184648
H72   H     H_    0.665144 0.566264 0.123695 0.147235
H73   H     H_    0.710165 0.257469 0.822074 0.165272
H74   H     H_    0.799626 0.396190 0.838856 0.134673
H75   H     H_    0.818770 0.201850 0.878298 0.247182
H76   H     H_    0.016929 0.365363 0.721144 0.139923
H77   H     H_    0.892637 0.339356 0.897165 0.156659
H78   H     H_    0.725873 0.333679 0.926725 0.134952
H79   H     H_    0.736564 0.221815 0.951792 0.164962
H80   H     H_    0.642082 0.197032 0.904038 0.165920
H81   H     H_    0.587874 0.340410 0.834045 0.106042
H82   H     H_    0.481212 0.372132 0.839518 0.158051
H83   H     H_    0.706266 0.479188 0.887176 0.195448
H84   H     H_    0.632704 0.552070 0.882673 0.227398
H85   H     H_    0.472892 0.397009 0.925578 0.183774
H86   H     H_    0.596299 0.456732 0.960045 0.170505
H87   H     H_    0.662344 0.641612 0.719452 0.124641
H88   H     H_    0.551745 0.328225 0.931330 0.129772
H89   H     H_    0.428076 0.162031 0.809287 0.143342
H90   H     H_    0.471676 0.073549 0.835565 0.136853
H91   H     H_    0.243275 0.050449 0.847324 0.232820
H92   H     H_    0.286439 0.961173 0.873092 0.202964
H93   H     H_    0.434966 0.121967 0.917123 0.148392
H94   H     H_    0.298998 0.093868 0.932392 0.173554
H95   H     H_    0.381944 0.205665 0.892607 0.161393
H96   H     H_    0.236923 0.050587 0.291045 0.205713
H97   H     H_    0.377054 0.134806 0.305974 0.122674
H98   H     H_    0.298837 0.877602 0.698563 0.168146
H99   H     H_    0.324257 0.009837 0.384700 0.193623
H100  H     H_    0.303870 0.124988 0.379846 0.170547
H101  H     H_    0.107530 0.994952 0.354964 0.150767
H102  H     H_    0.141204 0.976090 0.414763 0.120752
H103  H     H_    0.132451 0.883644 0.369406 0.250290
H104  H     H_    0.767023 0.777140 0.285012 0.197488
H105  H     H_    0.722507 0.649295 0.315794 0.116701
H106  H     H_    0.746332 0.858754 0.359684 0.237948
H107  H     H_    0.691346 0.728956 0.390014 0.184992
H108  H     H_    0.867571 0.731067 0.378085 0.190994
O1    O     O_R   0.479630 0.139450 0.552170 -0.504327
O2    O     O_R   0.360080 0.516200 0.048600 -0.492431
O3    O     O_R   0.156120 0.639920 0.048600 -0.494259
O4    O     O_R   0.483800 0.843880 0.048600 -0.505185
O5    O     O_R   0.478560 0.139320 0.448720 -0.531038
O6    O     O_R   0.860680 0.339240 0.448720 -0.523676
O7    O     O_R   0.660760 0.521440 0.448720 -0.522933
O8    O     O_R   0.139320 0.478560 0.948720 -0.499740
O9    O     O_R   0.339240 0.860680 0.948720 -0.511610
O10   O     O_R   0.521440 0.660760 0.948720 -0.490968
O11   O     O_R   0.515210 0.359960 0.452710 -0.495272
O12   O     O_R   0.860550 0.340180 0.552170 -0.513740
O13   O     O_R   0.640040 0.155250 0.452710 -0.491878
O14   O     O_R   0.844750 0.484790 0.452710 -0.497412
O15   O     O_R   0.359960 0.515210 0.952710 -0.481529
O16   O     O_R   0.155250 0.640040 0.952710 -0.509445
O17   O     O_R   0.484790 0.844750 0.952710 -0.475527
O18   O     O_3   0.666667 0.333333 0.499990 -0.258984
O19   O     O_3   0.333333 0.666667 0.999990 -0.332031
O20   O     O_2   0.875172 0.625437 0.847338 -0.282251
O21   O     O_2   0.044075 0.776450 0.815048 -0.248228
O22   O     O_3   0.863949 0.717008 0.768999 -0.504550
O23   O     O_R   0.659820 0.520370 0.552170 -0.510928
O24   O     O_2   0.262394 0.281942 0.824187 -0.287599
O25   O     O_2   0.183618 0.396679 0.803071 -0.317191
O26   O     O_3   0.168365 0.251374 0.742160 -0.558044
O27   O     O_2   0.662960 0.040647 0.845344 -0.319995
O28   O     O_2   0.686117 0.893824 0.812430 -0.279764
O29   O     O_3   0.791788 0.086057 0.771807 -0.533424
O30   O     O_2   0.749713 0.039767 0.305517 -0.326671
O31   O     O_2   0.581149 0.870949 0.325370 -0.249732
O32   O     O_3   0.675193 0.885024 0.243020 -0.478645
O33   O     O_2   0.287137 0.267620 0.324205 -0.332532
O34   O     O_R   0.139450 0.479630 0.052170 -0.514026
O35   O     O_2   0.245935 0.415456 0.334140 -0.242342
O36   O     O_3   0.181386 0.299704 0.256326 -0.467658
O37   O     O_2   0.022287 0.754252 0.305803 -0.298123
O38   O     O_2   0.188815 0.745582 0.322808 -0.250943
O39   O     O_3   0.168031 0.813491 0.238512 -0.445273
O40   O     O_3   0.111276 0.694159 0.700270 -0.579831
O41   O     O_3   0.350395 0.563334 0.688462 -0.552039
O42   O     O_3   0.563500 0.831769 0.689690 -0.551887
O43   O     O_3   0.693104 0.114991 0.190781 -0.525855
O44   O     O_3   0.389337 0.324395 0.202478 -0.533772
O45   O     O_R   0.340180 0.860550 0.052170 -0.503209
O46   O     O_3   0.927811 0.629383 0.204497 -0.511235
O47   O     O_3   0.868370 0.314675 0.800391 -0.518288
O48   O     O_3   0.621239 0.481397 0.798366 -0.550495
O49   O     O_3   0.348285 0.006960 0.782761 -0.537145
O50   O     O_3   0.320244 0.965247 0.297449 -0.464019
O51   O     O_3   0.603897 0.697589 0.304642 -0.487550
O52   O     O_3   0.049124 0.367370 0.297341 -0.493931
O53   O     O_R   0.520370 0.659820 0.052170 -0.502796
O54   O     O_R   0.516200 0.360080 0.548600 -0.498492
O55   O     O_R   0.639920 0.156120 0.548600 -0.500263
O56   O     O_R   0.843880 0.483800 0.548600 -0.499758
S1    S     S_3+6 0.937289 0.678186 0.802352 0.014053
S2    S     S_3+6 0.243287 0.341454 0.784152 -0.031319
S3    S     S_3+6 0.677821 0.993226 0.800269 -0.028748
S4    S     S_3+6 0.645889 0.949017 0.285877 0.023282
S5    S     S_3+6 0.276496 0.355678 0.298868 0.024556
S6    S     S_3+6 0.106593 0.730374 0.285466 0.049420

loop_
_geom_bond_atom_site_label_1
_geom_bond_atom_site_label_2
_ccdc_geom_bond_type
C60   O41   S    
C116  H52   S    
C16   H96   S    
C19   C20   S    
C40   C93   S    
C66   O34   A    
C4    H68   S    
C42   C75   T    
C105  O40   S    
C32   H1    S    
C46   C79   T    
C106  C107  S    
C26   C92   S    
C19   O51   S    
C87   C94   S    
C108  C109  S    
C28   C94   S    
C26   O47   S    
C30   C96   S    
C22   O52   S    
C41   C74   T    
C45   C78   T    
C13   C103  S    
Cr2   O12   S    
C24   C51   S    
C53   C75   S    
H22   O26   S    
C120  H62   S    
C107  H31   S    
C50   C83   T    
C42   C95   S    
C8    H78   S    
C9    H81   S    
C118  O44   S    
C60   C86   S    
Cr4   O19   S    
C101  C110  S    
C89   H17   S    
C109  H38   S    
Cr6   O17   S    
O39   S6    S    
C49   C82   T    
C16   O50   S    
C53   O13   A    
C57   O8    A    
C21   H108  S    
C13   C63   S    
C56   O15   A    
C43   C96   S    
O28   S3    D    
C115  H51   S    
Cr6   O10   S    
C77   O4    A    
C27   C93   S    
C31   O52   S    
C111  H41   S    
C12   H90   S    
C55   C83   S    
Cr6   O4    S    
C37   H54   S    
C56   C73   S    
C44   C79   S    
C4    C5    S    
C69   C95   S    
C31   C38   S    
C63   O44   S    
C6    C7    S    
C119  H60   S    
C7    H75   S    
C52   O7    A    
C77   C82   S    
C29   C102  S    
C8    H79   S    
C25   H9    S    
O35   S5    D    
C18   H101  S    
C11   H88   S    
Cr2   O18   S    
Cr4   O2    S    
C114  H48   S    
C20   C21   S    
C69   S4    S    
C14   H92   S    
C64   C91   S    
C120  H63   S    
H23   O29   S    
C1    O54   A    
C86   H15   S    
C32   C65   S    
C48   C110  S    
O26   S2    S    
C26   C32   S    
O27   S3    D    
C25   H11   S    
C55   O2    A    
C108  O41   S    
C7    C8    S    
Cr3   O23   S    
C71   C97   S    
C3    H67   S    
C102  H2    S    
C109  C111  S    
C6    H73   S    
C2    C102  S    
C115  C116  S    
C32   C88   S    
C47   C99   S    
C48   C81   T    
Cr3   O56   S    
O21   S1    D    
C61   C87   S    
C87   C101  S    
C17   H99   S    
C10   H84   S    
Cr2   O6    S    
C60   C67   S    
C30   O51   S    
C7    H77   S    
C111  H39   S    
C9    C10   S    
C56   O10   A    
C57   C72   S    
C58   O17   A    
C47   C80   T    
C9    H82   S    
C61   C110  S    
C85   C92   S    
C113  H46   S    
C117  H56   S    
C5    H71   S    
Cr4   O15   S    
C68   C94   S    
Cr1   O54   S    
C70   C96   S    
C59   C85   S    
C86   C93   S    
C11   H86   S    
C68   S3    S    
C55   O53   A    
C17   C18   S    
C70   S5    S    
O33   S5    D    
C85   H14   S    
C21   H3    S    
C5    H70   S    
C101  H98   S    
C106  H30   S    
C15   H93   S    
C3    C4    S    
Cr3   O7    S    
C58   C74   S    
O24   S2    D    
C23   H8    S    
C22   C23   S    
C52   C76   S    
C90   C96   S    
C108  H35   S    
C31   C104  S    
Cr3   O18   S    
C3    H66   S    
C59   C65   S    
O25   S2    D    
C64   O46   S    
C29   O50   S    
C62   C89   S    
C61   O42   S    
C9    O48   S    
C119  H61   S    
C10   C11   S    
C13   C50   S    
C38   H65   S    
C67   C93   S    
C14   C15   S    
O22   S1    S    
C90   H18   S    
Cr2   O13   S    
C22   H5    S    
C65   C92   S    
C105  H27   S    
C91   H19   S    
C52   O11   A    
C53   O5    A    
C27   O48   S    
C107  H34   S    
H26   O39   S    
Cr3   O14   S    
C59   O40   S    
C40   C73   T    
C64   C71   S    
C28   C101  S    
C112  H44   S    
C16   C17   S    
C30   C103  S    
C62   O43   S    
C54   O14   A    
C86   C100  S    
H24   O32   S    
C33   O1    A    
C44   O12   A    
H20   O22   S    
Cr1   O11   S    
C24   C64   S    
C37   C70   S    
O30   S4    D    
C118  H59   S    
C1    O23   A    
C27   C100  S    
C100  H87   S    
C103  H12   S    
Cr1   O18   S    
C67   S2    S    
C30   C37   S    
C89   C95   S    
C120  H64   S    
C34   H21   S    
O29   S3    S    
C91   C97   S    
C8    H80   S    
C35   C110  S    
C18   H102  S    
O38   S6    D    
C114  H49   S    
C109  H37   S    
C6    O47   S    
O20   S1    D    
C39   C92   S    
Cr5   O3    S    
C113  C114  S    
C43   C76   T    
C112  O42   S    
C18   H103  S    
C34   C67   S    
C33   O55   A    
C119  C120  S    
H25   O36   S    
C105  C106  S    
C104  H13   S    
O32   S4    S    
C35   H32   S    
Cr1   O5    S    
C6    H74   S    
C3    O46   S    
Cr4   O34   S    
C71   S6    S    
C31   C97   S    
C87   H16   S    
C58   O9    A    
C19   H104  S    
C90   C103  S    
C12   O49   S    
C62   C69   S    
C116  H53   S    
C1    C80   S    
C16   H97   S    
C12   H89   S    
C57   O16   A    
C51   C84   T    
C54   C78   S    
C28   O49   S    
C20   H106  S    
C89   C102  S    
C91   C104  S    
C60   C99   S    
C113  H45   S    
C29   C36   S    
C36   H43   S    
C44   O56   A    
Cr5   O16   S    
C117  H55   S    
C112  H42   S    
C116  C117  S    
C25   H10   S    
C118  C119  S    
C85   C98   S    
C11   H85   S    
O36   S5    S    
C59   C88   S    
C114  H47   S    
C41   C94   S    
Cr1   O1    S    
C24   C38   S    
C39   C72   T    
C14   H91   S    
C13   C37   S    
C65   S1    S    
C105  H28   S    
Cr6   O53   S    
Cr2   O55   S    
C112  C113  S    
C34   C99   S    
C46   C88   S    
C27   C34   S    
C21   H4    S    
C23   H7    S    
C28   C35   S    
C29   C95   S    
Cr5   O45   S    
C4    H69   S    
C108  H36   S    
C24   C104  S    
C15   H95   S    
C115  H50   S    
C2    C49   S    
C17   H100  S    
C10   H83   S    
C99   C100  S    
C63   C70   S    
C111  H40   S    
Cr5   O19   S    
C26   C98   S    
C12   C14   S    
C20   H107  S    
C66   O3    A    
Cr4   O8    S    
C36   C69   S    
C2    C36   S    
C38   C71   S    
C22   H6    S    
C98   H76   S    
C107  H33   S    
C117  H57   S    
C5    H72   S    
C118  H58   S    
C77   O45   A    
C54   O6    A    
C45   C97   S    
C61   C68   S    
C115  O43   S    
C19   H105  S    
C35   C68   S    
C63   C90   S    
O31   S4    D    
Cr5   O9    S    
Cr6   O19   S    
C23   C25   S    
C88   C98   S    
O37   S6    D    
C66   C84   S    
C106  H29   S    
C15   H94   S    
C33   C81   S    
C2    C62   S    
