data_mof_unit_56025.cif
_audit_creation_date              2012-12-10T17:56:21-0500
_audit_creation_method            fapswitch 2.2
_symmetry_space_group_name_H-M    P1
_symmetry_Int_Tables_number       1
_space_group_crystal_system       triclinic
_cell_length_a                    13.06124
_cell_length_b                    10.794857
_cell_length_c                    9.589192
_cell_angle_alpha                 89.38131
_cell_angle_beta                  95.997533
_cell_angle_gamma                 90.57292
_cell_volume                      1344.48831537

loop_
_atom_site_label
_atom_site_type_symbol
_atom_type_description
_atom_site_fract_x
_atom_site_fract_y
_atom_site_fract_z
_atom_type_partial_charge
C1    C     C_R   0.499478 0.262447 0.499985 0.851130
C2    C     C_R   0.499833 0.737467 0.499728 0.851299
C3    C     C_R   0.498191 0.871294 0.499428 -0.006317
C4    C     C_R   0.501005 0.128451 0.499342 -0.007907
C5    C     C_R   0.440538 0.417911 0.068670 0.296767
C6    C     C_R   0.559521 0.583052 0.932349 0.238703
C7    C     C_R   0.444267 0.413512 0.921639 0.180168
C8    C     C_R   0.560442 0.582004 0.082144 0.200103
C9    C     C_R   0.300795 0.506271 0.473203 0.913458
C10   C     C_R   0.698833 0.493999 0.526906 0.865914
C11   C     C_R   0.811478 0.486704 0.544969 -0.255910
C12   C     C_R   0.187505 0.516493 0.456850 -0.203412
C13   C     C_R   0.026645 0.606757 0.353717 0.077276
C14   C     C_R   0.970933 0.394822 0.649883 0.067294
C15   C     C_R   0.134993 0.600732 0.360353 0.321085
C16   C     C_R   0.862619 0.399200 0.638668 0.350783
C17   C     C_R   0.132372 0.439657 0.542019 0.103470
C18   C     C_R   0.868351 0.568608 0.466742 0.129012
C19   C     C_R   0.026052 0.459130 0.550666 -0.013361
C20   C     C_R   0.973481 0.544933 0.456220 0.002508
C21   C     C_R   0.558728 0.064769 0.406889 0.189397
C22   C     C_R   0.440210 0.935047 0.590761 0.182833
C23   C     C_R   0.556271 0.935798 0.407677 -0.269201
C24   C     C_R   0.442010 0.063670 0.589765 -0.286770
Cu1   Cu    Cu3+1 0.500000 0.500020 0.640660 1.033469
Cu2   Cu    Cu3+1 0.500000 0.499980 0.359340 1.058558
H1    H     H_    0.601739 0.885546 0.339312 0.148149
H2    H     H_    0.394948 0.112714 0.657003 0.148480
N1    N     N_R   0.500030 0.500030 0.852080 -0.172382
N2    N     N_R   0.499970 0.499970 0.147920 -0.167223
O1    O     O_R   0.499990 0.319660 0.618740 -0.579955
O2    O     O_R   0.500010 0.680340 0.381260 -0.539330
O3    O     O_R   0.499990 0.319630 0.381170 -0.557826
O4    O     O_R   0.500010 0.680370 0.618830 -0.555401
O5    O     O_R   0.349000 0.499990 0.599490 -0.597380
O6    O     O_R   0.651000 0.500010 0.400510 -0.564252
O7    O     O_R   0.348990 0.499960 0.361920 -0.511232
O8    O     O_R   0.651010 0.500040 0.638080 -0.505548
N3    N     N_3   0.822632 0.681271 0.406739 -0.542802
H3    H     H_    0.750542 0.698261 0.439776 0.206014
H4    H     H_    0.867888 0.755198 0.448418 0.219403
N4    N     N_3   0.185514 0.335792 0.609133 -0.607398
H5    H     H_    0.195960 0.349809 0.717050 0.267963
H6    H     H_    0.144159 0.254202 0.584206 0.237853
S1    S     S_3+6 0.791850 0.298146 0.744434 -0.020712
O9    O     O_2   0.750972 0.372878 0.857506 -0.287771
O10   O     O_2   0.703534 0.241927 0.653675 -0.336630
O11   O     O_3   0.860783 0.180615 0.821150 -0.561150
H7    H     H_    0.812633 0.135184 0.877002 0.378566
S2    S     S_3+6 0.204330 0.697196 0.248610 -0.015823
O12   O     O_2   0.293828 0.755927 0.335015 -0.313157
O13   O     O_2   0.243578 0.618032 0.138016 -0.291327
O14   O     O_3   0.134279 0.812112 0.168173 -0.562559
H8    H     H_    0.181421 0.855186 0.108809 0.380318
N5    N     N_3   0.968342 0.667157 0.237619 -0.529416
H9    H     H_    0.993861 0.638697 0.143375 0.271051
H10   H     H_    0.975422 0.762981 0.248979 0.281142
N6    N     N_3   0.025689 0.332695 0.767234 -0.583017
H11   H     H_    0.020785 0.237113 0.752549 0.279461
H12   H     H_    0.996885 0.358385 0.860352 0.281343
N7    N     N_3   0.620786 0.131051 0.314944 -0.556830
H13   H     H_    0.682190 0.171982 0.377121 0.245115
H14   H     H_    0.652990 0.070057 0.248002 0.212919
N8    N     N_3   0.377055 0.869575 0.681125 -0.550528
H15   H     H_    0.300982 0.898167 0.656660 0.233574
H16   H     H_    0.400538 0.895299 0.784444 0.219344
N9    N     N_3   0.376093 0.333082 0.136013 -0.502697
H17   H     H_    0.399169 0.242765 0.117584 0.222483
H18   H     H_    0.300329 0.343844 0.090633 0.232449
N10   N     N_3   0.623466 0.668223 0.864736 -0.518702
H19   H     H_    0.603503 0.758479 0.888617 0.192984
H20   H     H_    0.700232 0.653369 0.903229 0.216928
N11   N     N_3   0.397547 0.307808 0.852536 -0.632125
H21   H     H_    0.362233 0.332661 0.755157 0.278076
H22   H     H_    0.455545 0.243662 0.842400 0.245505
N12   N     N_3   0.625162 0.666459 0.165531 -0.526735
H23   H     H_    0.605774 0.756729 0.133311 0.187430
H24   H     H_    0.701545 0.650865 0.147865 0.233007

loop_
_geom_bond_atom_site_label_1
_geom_bond_atom_site_label_2
_ccdc_geom_bond_type
Cu1   O1    S    
N5    H9    S    
C11   C18   A    
Cu2   O2    S    
C7    N1    A    
N11   H21   S    
C3    C23   A    
C19   C20   A    
C1    O1    A    
C5    N9    S    
C1    O3    A    
N3    H4    S    
O14   H8    S    
N12   H24   S    
C4    C24   A    
N6    H12   S    
C8    N12   S    
C2    O2    A    
C15   S2    S    
N7    H14   S    
C17   N4    S    
C12   C17   A    
S2    O13   D    
N10   H19   S    
C14   C16   A    
C23   H1    S    
C21   N7    S    
Cu1   O4    S    
C2    O4    A    
N11   H22   S    
N4    H6    S    
S1    O10   D    
Cu1   N1    S    
C14   N6    S    
S2    O14   S    
N9    H17   S    
N12   H23   S    
C7    N11   S    
N3    H3    S    
C5    C7    A    
C6    C8    A    
N6    H11   S    
S1    O9    D    
N9    H18   S    
N8    H16   S    
C18   N3    S    
Cu1   O8    S    
C11   C16   A    
Cu2   O3    S    
C12   C15   A    
C9    O7    A    
S2    O12   D    
Cu1   O5    S    
Cu2   O6    S    
O11   H7    S    
Cu2   N2    S    
C21   C23   A    
C13   C15   A    
C22   C24   A    
N4    H5    S    
C5    N2    A    
S1    O11   S    
C6    N10   S    
C13   C20   A    
C14   C19   A    
C24   H2    S    
C16   S1    S    
C10   O6    A    
Cu2   O7    S    
C10   O8    A    
C1    C4    S    
C8    N2    A    
N8    H15   S    
N5    H10   S    
C2    C3    S    
Cu1   Cu2   S    
C4    C21   A    
C17   C19   A    
C18   C20   A    
N7    H13   S    
C9    C12   S    
C10   C11   S    
C22   N8    S    
C6    N1    A    
C9    O5    A    
C3    C22   A    
N10   H20   S    
C13   N5    S    
