data_mof_unit_49094.cif
_audit_creation_date              2012-12-10T19:05:18-0500
_audit_creation_method            fapswitch 2.2
_symmetry_space_group_name_H-M    P1
_symmetry_Int_Tables_number       1
_space_group_crystal_system       triclinic
_cell_length_a                    9.537986
_cell_length_b                    10.829795
_cell_length_c                    17.374688
_cell_angle_alpha                 90.096738
_cell_angle_beta                  86.134041
_cell_angle_gamma                 89.859287
_cell_volume                      1790.61621876

loop_
_atom_site_label
_atom_site_type_symbol
_atom_type_description
_atom_site_fract_x
_atom_site_fract_y
_atom_site_fract_z
_atom_type_partial_charge
C1    C     C_R   0.499956 0.737699 0.499654 0.799196
C2    C     C_R   0.342673 0.511267 0.776184 -0.200445
C3    C     C_R   0.411021 0.490847 0.146429 -0.145926
C4    C     C_R   0.404007 0.493283 0.226320 -0.203465
C5    C     C_R   0.658410 0.500370 0.223817 -0.194198
C6    C     C_R   0.665426 0.498524 0.143544 -0.169974
C7    C     C_R   0.541825 0.495654 0.104465 0.192250
C8    C     C_2   0.450936 0.542048 0.978691 -0.230163
C9    C     C_2   0.552353 0.495245 0.019950 -0.228522
C10   C     C_R   0.527385 0.498165 0.265728 -0.029429
C11   C     C_R   0.374527 0.937193 0.498547 0.119169
C12   C     C_R   0.481907 0.502690 0.649804 0.790898
C13   C     C_R   0.500599 0.870924 0.494230 -0.069269
C14   C     C_R   0.627552 0.935199 0.479580 -0.216968
C15   C     C_R   0.627773 0.063946 0.478762 -0.213922
C16   C     C_R   0.500905 0.129344 0.491855 -0.078422
C17   C     C_R   0.374618 0.064199 0.496060 0.067034
C18   C     C_3   0.250165 0.075078 0.552629 -0.437972
C19   C     C_3   0.250697 0.934671 0.556579 -0.067599
C20   C     C_R   0.929901 0.399809 0.473370 0.260119
C21   C     C_R   0.921088 0.592432 0.534276 -0.087357
C22   C     C_R   0.069958 0.592311 0.534366 -0.087577
C23   C     C_R   0.500296 0.262385 0.498642 0.805067
C24   C     C_R   0.077224 0.399780 0.473451 0.259900
C25   C     C_3   0.093145 0.345270 0.394559 -0.505820
C26   C     C_3   0.933975 0.345610 0.394341 -0.508525
C27   C     C_R   0.518170 0.499686 0.350103 0.791294
C28   C     C_R   0.473237 0.513238 0.733833 -0.026967
C29   C     C_R   0.596616 0.530074 0.772158 -0.200311
C30   C     C_R   0.590059 0.542394 0.851710 -0.149567
C31   C     C_R   0.460018 0.536344 0.894312 0.194275
C32   C     C_R   0.336250 0.523258 0.856125 -0.168504
Cu1   Cu    Cu3+1 0.359330 0.500020 0.500000 0.937715
Cu2   Cu    Cu3+1 0.640670 0.499980 0.500000 0.941864
H1    H     H_    0.698491 0.534719 0.740746 0.152612
H2    H     H_    0.767232 0.500968 0.111891 0.121006
H3    H     H_    0.726975 0.886689 0.471907 0.158758
H4    H     H_    0.727340 0.111631 0.471244 0.153628
H5    H     H_    0.275535 0.122115 0.606950 0.209718
H6    H     H_    0.156882 0.112804 0.525518 0.161879
H7    H     H_    0.155657 0.890544 0.534998 0.130919
H8    H     H_    0.862020 0.668353 0.560926 0.138859
H9    H     H_    0.121994 0.667756 0.561306 0.129859
H10   H     H_    0.143821 0.409363 0.351535 0.210720
H11   H     H_    0.301630 0.490978 0.256978 0.143720
H12   H     H_    0.139203 0.250888 0.394695 0.193275
H13   H     H_    0.893899 0.409979 0.351207 0.212283
H14   H     H_    0.888349 0.251359 0.394073 0.187468
H15   H     H_    0.755206 0.504126 0.252823 0.143132
H16   H     H_    0.646870 0.455870 0.991316 0.144618
H17   H     H_    0.235023 0.519807 0.888331 0.120832
H18   H     H_    0.313860 0.483383 0.118064 0.121389
H19   H     H_    0.245910 0.499958 0.747730 0.150074
H20   H     H_    0.356135 0.581304 0.007003 0.143713
H21   H     H_    0.686759 0.557636 0.879477 0.122166
N1    N     N_R   0.852130 0.499070 0.499500 -0.184760
N2    N     N_R   0.148040 0.499110 0.499500 -0.183811
O1    O     O_R   0.381190 0.680360 0.500000 -0.592805
O2    O     O_R   0.618770 0.680320 0.499990 -0.590605
O3    O     O_R   0.367430 0.500040 0.613600 -0.591368
O4    O     O_R   0.605020 0.500000 0.613590 -0.584049
O5    O     O_R   0.381230 0.319680 0.500010 -0.580033
O6    O     O_R   0.618810 0.319640 0.500000 -0.584617
O7    O     O_R   0.394980 0.500000 0.386410 -0.585965
O8    O     O_R   0.632570 0.499960 0.386400 -0.586633
N3    N     N_3   0.287365 0.890110 0.632049 -0.566192
H22   H     H_    0.202496 0.909584 0.671486 0.220061
H23   H     H_    0.295199 0.793948 0.629425 0.222273

loop_
_geom_bond_atom_site_label_1
_geom_bond_atom_site_label_2
_ccdc_geom_bond_type
C10   C27   S    
C21   N1    A    
N3    H23   S    
C18   H5    S    
C32   H17   S    
Cu2   N1    S    
Cu1   O1    S    
C27   O8    A    
C22   H9    S    
C16   C23   S    
C29   C30   A    
C2    C28   A    
C30   H21   S    
C29   H1    S    
C31   C32   A    
C26   H14   S    
C30   C31   A    
C20   N1    A    
C11   C19   S    
C22   N2    A    
C23   O6    A    
Cu1   Cu2   S    
C19   H7    S    
C5    C10   A    
C15   H4    S    
C21   C22   A    
C14   H3    S    
C12   O4    A    
C11   C13   A    
C5    H15   S    
C6    C7    A    
C20   C26   S    
C26   H13   S    
C12   C28   S    
Cu1   O7    S    
Cu2   O8    S    
C28   C29   A    
C8    C31   S    
C6    H2    S    
C17   C18   S    
Cu1   O3    S    
C3    C7    A    
C4    H11   S    
C1    O2    A    
C5    C6    A    
C3    H18   S    
C1    C13   S    
C27   O7    A    
C4    C10   A    
C3    C4    A    
C12   O3    A    
C20   C24   A    
N3    H22   S    
C24   C25   S    
C25   H10   S    
C19   N3    S    
C2    C32   A    
C18   C19   S    
C24   N2    A    
C8    H20   S    
C7    C9    S    
C18   H6    S    
C14   C15   A    
Cu2   O6    S    
Cu1   N2    S    
C21   H8    S    
C13   C14   A    
C25   C26   S    
C1    O1    A    
Cu2   O2    S    
Cu1   O5    S    
C25   H12   S    
C2    H19   S    
C23   O5    A    
C11   C17   A    
C9    H16   S    
C15   C16   A    
C16   C17   A    
C8    C9    D    
Cu2   O4    S    
