data_mof_unit_62708.cif
_audit_creation_date              2012-12-11T15:00:39-0500
_audit_creation_method            fapswitch 2.2
_symmetry_space_group_name_H-M    P1
_symmetry_Int_Tables_number       1
_space_group_crystal_system       triclinic
_cell_length_a                    13.275828
_cell_length_b                    13.280984
_cell_length_c                    26.814158
_cell_angle_alpha                 96.811325
_cell_angle_beta                  97.030456
_cell_angle_gamma                 61.219361
_cell_volume                      4102.89960854

loop_
_atom_site_label
_atom_site_type_symbol
_atom_type_description
_atom_site_fract_x
_atom_site_fract_y
_atom_site_fract_z
_atom_type_partial_charge
C1    C     C_R   0.379091 0.722876 0.435161 0.546495
C2    C     C_1   0.330775 0.339698 0.268108 -0.000158
C3    C     C_1   0.344350 0.347299 0.320981 -0.022515
C4    C     C_1   0.362578 0.356288 0.365844 0.016423
C5    C     C_3   0.728249 0.306510 0.262623 -0.210973
C6    C     C_3   0.941286 0.233159 0.283332 -0.217290
C7    C     C_3   0.958251 0.222211 0.226410 -0.216367
C8    C     C_1   0.894110 0.293133 0.102556 -0.016228
C9    C     C_3   0.820221 0.332389 0.294365 0.063859
C10   C     C_3   0.745335 0.294917 0.205664 -0.214395
C11   C     C_3   0.848683 0.313415 0.197963 0.066965
C12   C     C_R   0.394658 0.373164 0.417658 0.550463
C13   C     C_3   0.824813 0.434750 0.221028 -0.213502
C14   C     C_3   0.808657 0.445718 0.277910 -0.212802
C15   C     C_1   0.867535 0.302994 0.144667 -0.073347
C16   C     C_1   0.801131 0.345845 0.347763 -0.068912
C17   C     C_1   0.773789 0.365419 0.390202 -0.010206
C18   C     C_3   0.466529 0.744020 0.272013 -0.206956
C19   C     C_3   0.301723 0.947247 0.284930 -0.009312
C20   C     C_3   0.297322 0.961651 0.227958 -0.189185
C21   C     C_1   0.305574 0.888464 0.100757 -0.014436
C22   C     C_3   0.346497 0.818348 0.293444 0.075098
C23   C     C_R   0.724419 0.399345 0.437381 0.544518
C24   C     C_3   0.459262 0.759888 0.215102 -0.219445
C25   C     C_3   0.334141 0.844419 0.196927 0.049644
C26   C     C_3   0.253756 0.795965 0.206871 -0.223231
C27   C     C_3   0.261737 0.779651 0.263635 -0.240446
C28   C     C_1   0.323997 0.862020 0.143412 -0.072481
C29   C     C_1   0.353332 0.799252 0.346608 -0.034067
C30   C     C_1   0.362216 0.772024 0.388603 0.006700
C31   C     C_3   0.433281 0.351527 0.730561 -0.211737
C32   C     C_3   0.333229 0.231190 0.705616 -0.214826
C33   C     C_3   0.323154 0.225014 0.761944 -0.211480
C34   C     C_R   0.381513 0.724523 0.575496 0.544348
C35   C     C_1   0.295977 0.308342 0.887498 -0.012991
C36   C     C_3   0.331459 0.345381 0.697560 0.061319
C37   C     C_3   0.423123 0.345432 0.786891 -0.215251
C38   C     C_3   0.314323 0.334992 0.793072 0.061887
C39   C     C_3   0.207038 0.441084 0.771677 -0.214066
C40   C     C_3   0.217156 0.447210 0.715197 -0.213945
C41   C     C_1   0.304988 0.325950 0.845889 -0.070723
C42   C     C_1   0.343846 0.351469 0.644784 -0.069630
C43   C     C_1   0.362544 0.359675 0.603266 -0.009781
C44   C     C_1   0.888813 0.294293 0.864483 -0.009751
C45   C     C_R   0.395622 0.375929 0.557690 0.548624
C46   C     C_1   0.861095 0.306086 0.820194 -0.046913
C47   C     C_1   0.838103 0.320064 0.767960 -0.009964
C48   C     C_1   0.821053 0.333543 0.723464 -0.010051
C49   C     C_1   0.798491 0.352593 0.671657 -0.046718
C50   C     C_1   0.771387 0.373067 0.627997 -0.008976
C51   C     C_1   0.293299 0.893969 0.862805 -0.010190
C52   C     C_1   0.312989 0.866557 0.819184 -0.047528
C53   C     C_1   0.330581 0.843242 0.767346 -0.010155
C54   C     C_1   0.342674 0.825379 0.722808 -0.009741
C55   C     C_1   0.355189 0.801411 0.670587 -0.046318
C56   C     C_R   0.724085 0.403754 0.577723 0.542161
C57   C     C_1   0.366228 0.773012 0.626397 -0.008288
C58   C     C_R   0.942067 0.277910 0.055978 0.545268
C59   C     C_R   0.288021 0.271251 0.073225 0.541802
C60   C     C_R   0.270736 0.937274 0.053271 0.544356
C61   C     C_R   0.936876 0.279100 0.915595 0.542203
C62   C     C_R   0.281565 0.273976 0.933160 0.544651
C63   C     C_R   0.262663 0.941034 0.912935 0.542701
C64   C     C_1   0.305081 0.302591 0.125096 -0.012443
C65   C     C_1   0.314499 0.319959 0.169984 -0.053741
C66   C     C_1   0.322798 0.332491 0.222867 -0.012480
Cr1   Cr    Cr6+3 0.585490 0.589720 0.509170 1.041144
Cr2   Cr    Cr6+3 0.329280 0.580760 0.494920 1.034045
Cr3   Cr    Cr6+3 0.585250 0.329540 0.495950 1.045695
Cr4   Cr    Cr6+3 0.077160 0.074530 0.981700 1.031117
Cr5   Cr    Cr6+3 0.079310 0.333830 0.996170 1.030951
Cr6   Cr    Cr6+3 0.334250 0.081620 0.994710 1.031856
H1    H     H_    0.760719 0.207999 0.189464 0.122010
H2    H     H_    0.640181 0.376916 0.269966 0.115632
H3    H     H_    0.665569 0.359509 0.185708 0.115330
H4    H     H_    0.897802 0.450452 0.215618 0.124131
H5    H     H_    0.518498 0.793426 0.208476 0.129920
H6    H     H_    0.530934 0.767578 0.292650 0.157687
H7    H     H_    0.212910 0.998348 0.297639 0.122776
H8    H     H_    0.354657 0.997385 0.221348 0.158853
H9    H     H_    0.208218 0.024785 0.214885 0.096294
H10   H     H_    0.291081 0.687428 0.268932 0.123753
H11   H     H_    0.734517 0.225412 0.273712 0.127266
H12   H     H_    0.174562 0.830477 0.278048 0.113351
H13   H     H_    0.278226 0.711922 0.184934 0.124812
H14   H     H_    0.497938 0.651454 0.277403 0.101402
H15   H     H_    0.488017 0.675024 0.193401 0.111238
H16   H     H_    0.163041 0.855939 0.194248 0.118742
H17   H     H_    0.501433 0.270022 0.802033 0.122530
H18   H     H_    0.516724 0.279180 0.718738 0.124828
H19   H     H_    0.260560 0.224997 0.682524 0.122682
H20   H     H_    0.414692 0.156676 0.693201 0.123872
H21   H     H_    0.399692 0.147230 0.776493 0.124712
H22   H     H_    0.008891 0.249753 0.305614 0.130990
H23   H     H_    0.245726 0.215412 0.765869 0.124297
H24   H     H_    0.213895 0.530476 0.709592 0.124822
H25   H     H_    0.142539 0.444595 0.692295 0.123106
H26   H     H_    0.198918 0.521337 0.793173 0.122369
H27   H     H_    0.434013 0.433090 0.725321 0.123828
H28   H     H_    0.418573 0.424089 0.808664 0.121300
H29   H     H_    0.127522 0.435488 0.775873 0.124827
H30   H     H_    0.951418 0.150636 0.294674 0.115622
H31   H     H_    0.977520 0.134003 0.210499 0.111263
H32   H     H_    0.033960 0.233878 0.221438 0.122232
H33   H     H_    0.722326 0.518702 0.285842 0.112505
H34   H     H_    0.874298 0.465955 0.299810 0.125497
H35   H     H_    0.745937 0.501881 0.201621 0.112418
O1    O     O_R   0.700490 0.499650 0.456540 -0.504735
O2    O     O_R   0.339040 0.474950 0.540330 -0.494900
O3    O     O_R   0.494500 0.302900 0.543920 -0.502539
O4    O     O_R   0.682200 0.343540 0.552130 -0.494102
O5    O     O_3   0.500010 0.500010 0.500010 -0.258428
O6    O     O_R   0.170650 0.959160 0.034150 -0.507617
O7    O     O_R   0.983870 0.178140 0.033160 -0.494781
O8    O     O_R   0.966160 0.354510 0.046020 -0.507084
O9    O     O_R   0.187830 0.326650 0.051390 -0.495105
O10   O     O_R   0.362200 0.173970 0.055450 -0.505894
O11   O     O_R   0.326660 0.983110 0.039170 -0.493985
O12   O     O_R   0.479270 0.682700 0.457880 -0.489147
O13   O     O_R   0.165170 0.960730 0.925500 -0.505350
O14   O     O_R   0.978790 0.179600 0.932440 -0.493855
O15   O     O_R   0.960680 0.356080 0.937360 -0.505280
O16   O     O_R   0.182750 0.328100 0.950670 -0.494717
O17   O     O_R   0.356720 0.175530 0.946790 -0.506938
O18   O     O_R   0.321590 0.984560 0.938450 -0.494020
O19   O     O_3   0.163570 0.163330 0.990860 -0.252240
O20   O     O_R   0.304400 0.696100 0.445190 -0.509946
O21   O     O_R   0.337880 0.472540 0.439600 -0.501120
O22   O     O_R   0.493250 0.300300 0.435260 -0.490814
O23   O     O_R   0.681040 0.341130 0.451400 -0.494695
O24   O     O_R   0.701750 0.502250 0.565200 -0.504780
O25   O     O_R   0.480430 0.685110 0.558610 -0.492762
O26   O     O_R   0.305650 0.698700 0.553850 -0.504157
I1    I     I_    0.400836 0.020999 0.328835 -0.458251

loop_
_geom_bond_atom_site_label_1
_geom_bond_atom_site_label_2
_ccdc_geom_bond_type
C22   C29   S    
Cr3   O4    S    
Cr5   O15   S    
C36   C42   S    
C19   C20   S    
C13   H35   S    
C6    C9    S    
C62   O17   A    
C53   C54   T    
Cr4   O7    S    
C25   C28   S    
C7    C11   S    
C59   C64   S    
C29   C30   T    
C18   C24   S    
C32   C36   S    
Cr5   O16   S    
Cr2   O26   S    
C9    C16   S    
Cr3   O23   S    
C1    O12   A    
C38   C39   S    
C5    H11   S    
C10   H1    S    
C45   O2    A    
Cr1   O1    S    
C32   H19   S    
C20   C25   S    
C61   O14   A    
Cr2   O5    S    
C5    H2    S    
C8    C58   S    
C54   C55   S    
C11   C15   S    
C14   H33   S    
Cr1   O25   S    
Cr4   O13   S    
C59   O9    A    
C6    H22   S    
Cr6   O10   S    
C34   C57   S    
Cr5   O19   S    
C60   O11   A    
C31   H27   S    
C4    C12   S    
Cr2   O21   S    
C56   O4    A    
Cr4   O19   S    
C34   O25   A    
C59   O10   A    
C7    H31   S    
C13   C14   S    
Cr6   O17   S    
C60   O6    A    
C40   H24   S    
C33   H23   S    
C62   O16   A    
C44   C46   T    
C39   H29   S    
Cr4   O6    S    
C12   O22   A    
C20   H8    S    
C51   C52   T    
C36   C40   S    
C19   C22   S    
C51   C63   S    
C24   C25   S    
C38   C41   S    
C39   C40   S    
C18   H14   S    
C45   O3    A    
C16   C17   T    
C39   H26   S    
C34   O26   A    
C25   C26   S    
C50   C56   S    
C31   C37   S    
C23   O23   A    
Cr6   O19   S    
C61   O15   A    
C19   I1    S    
C9    C14   S    
C5    C9    S    
C37   C38   S    
Cr3   O3    S    
Cr1   O5    S    
C47   C48   T    
C13   H4    S    
C18   H6    S    
C31   H18   S    
C26   C27   S    
Cr5   O8    S    
C17   C23   S    
C19   H7    S    
C43   C45   S    
Cr2   O20   S    
C63   O18   A    
C21   C60   S    
C26   H16   S    
C48   C49   S    
C21   C28   T    
C49   C50   T    
C8    C15   T    
C22   C27   S    
C55   C57   T    
C58   O8    A    
C42   C43   T    
C3    C4    T    
C40   H25   S    
C52   C53   S    
C46   C47   S    
C27   H12   S    
C18   C22   S    
C27   H10   S    
Cr1   O24   S    
C1    O20   A    
C2    C66   T    
C33   H21   S    
C6    C7    S    
C12   O21   A    
C44   C61   S    
C33   C38   S    
C37   H17   S    
Cr6   O18   S    
C7    H32   S    
C64   C65   T    
C2    C3    S    
C5    C10   S    
C32   C33   S    
C63   O13   A    
C11   C13   S    
Cr4   O14   S    
C32   H20   S    
C26   H13   S    
C23   O1    A    
C1    C30   S    
Cr3   O5    S    
Cr5   O9    S    
C35   C62   S    
Cr2   O2    S    
C6    H30   S    
C35   C41   T    
C24   H15   S    
C56   O24   A    
C10   C11   S    
C24   H5    S    
C14   H34   S    
Cr3   O22   S    
C65   C66   S    
Cr6   O11   S    
C58   O7    A    
C31   C36   S    
C20   H9    S    
Cr1   O12   S    
C37   H28   S    
C10   H3    S    
