data_mof_unit_42387.cif
_audit_creation_date              2012-12-10T17:50:49-0500
_audit_creation_method            fapswitch 2.2
_symmetry_space_group_name_H-M    P1
_symmetry_Int_Tables_number       1
_space_group_crystal_system       triclinic
_cell_length_a                    14.704635
_cell_length_b                    14.673987
_cell_length_c                    15.849705
_cell_angle_alpha                 77.008021
_cell_angle_beta                  102.693054
_cell_angle_gamma                 114.819575
_cell_volume                      2994.09154044

loop_
_atom_site_label
_atom_site_type_symbol
_atom_type_description
_atom_site_fract_x
_atom_site_fract_y
_atom_site_fract_z
_atom_type_partial_charge
C1    C     C_R   0.880281 0.312102 0.514764 0.812214
C2    C     C_R   0.359606 0.922195 0.503336 0.050968
C3    C     C_R   0.678649 0.999792 0.552383 0.092761
C4    C     C_R   0.320374 0.998687 0.489978 0.087460
C5    C     C_R   0.533159 0.051511 0.516205 0.090187
C6    C     C_R   0.466090 0.947807 0.522334 0.090041
C7    C     C_R   0.507434 0.872830 0.550082 -0.245120
C8    C     C_R   0.491607 0.125914 0.501739 -0.244229
C9    C     C_R   0.611089 0.898418 0.565352 -0.230522
C10   C     C_R   0.387969 0.099825 0.490317 -0.205471
C11   C     C_R   0.717216 0.670260 0.356688 -0.304889
C12   C     C_R   0.119655 0.687870 0.486042 0.811557
C13   C     C_R   0.284777 0.333649 0.647728 -0.317561
C14   C     C_R   0.797522 0.639036 0.378391 0.055984
C15   C     C_R   0.202613 0.361970 0.622570 0.074629
C16   C     C_R   0.999566 0.500018 0.660047 0.828965
C17   C     C_R   0.000394 0.499930 0.339951 0.827989
C18   C     C_R   0.715313 0.510244 0.488700 0.026503
C19   C     C_R   0.285764 0.490502 0.512748 0.029853
C20   C     C_R   0.630567 0.538403 0.470301 -0.055684
C21   C     C_R   0.373193 0.466444 0.535728 -0.041147
C22   C     C_R   0.633419 0.621153 0.402639 0.128242
C23   C     C_R   0.784592 0.025017 0.565989 0.262432
C24   C     C_R   0.371546 0.385886 0.605502 0.087572
C25   C     C_R   0.544143 0.487773 0.516228 0.018004
C26   C     C_R   0.460763 0.518870 0.491755 0.035583
C27   C     C_R   0.468079 0.602437 0.424905 -0.288868
C28   C     C_R   0.539481 0.408258 0.586677 -0.258638
C29   C     C_R   0.552764 0.653646 0.381552 0.257526
C30   C     C_R   0.455430 0.357787 0.631846 0.260961
C31   C     C_3   0.988500 0.407235 0.044731 -0.157003
C32   C     C_3   0.010955 0.592337 0.955218 -0.156690
C33   C     C_3   0.911276 0.430486 0.968649 -0.159408
C34   C     C_R   0.214313 0.972963 0.475209 0.263603
C35   C     C_3   0.088177 0.569086 0.031293 -0.158806
C36   C     C_1   0.998758 0.500122 0.749670 -0.180966
C37   C     C_1   0.001048 0.499664 0.250322 -0.180973
C38   C     C_3   0.076266 0.476683 0.991697 -0.155186
C39   C     C_3   0.923189 0.522891 0.008255 -0.155339
C40   C     C_3   0.999049 0.499934 0.917159 0.190231
C41   C     C_3   0.000413 0.499642 0.082794 0.190046
C42   C     C_1   0.998621 0.500080 0.825288 -0.075407
C43   C     C_1   0.001001 0.499582 0.174687 -0.074961
C44   C     C_R   0.812577 0.204085 0.526602 -0.107346
C45   C     C_R   0.850579 0.127816 0.553615 -0.229157
C46   C     C_R   0.186950 0.795742 0.483156 -0.106956
C47   C     C_3   0.923733 0.967278 0.637117 -0.705817
C48   C     C_3   0.074816 0.034471 0.420341 -0.707000
C49   C     C_3   0.603367 0.835024 0.347724 -0.709354
C50   C     C_3   0.523603 0.229718 0.719649 -0.699767
C51   C     C_R   0.148632 0.870676 0.473139 -0.227022
C52   C     C_R   0.708321 0.178211 0.511729 -0.263794
C53   C     C_R   0.291196 0.822363 0.495455 -0.257063
C54   C     C_R   0.639637 0.077235 0.526985 0.050922
Cu1   Cu    Cu3+1 0.081740 0.475690 0.522610 0.936010
Cu2   Cu    Cu3+1 0.918260 0.524310 0.477390 0.935916
H1    H     H_    0.838648 0.373643 0.941543 0.130145
H2    H     H_    0.602438 0.386154 0.609822 0.144512
H3    H     H_    0.979326 0.331273 0.082844 0.131721
H4    H     H_    0.020125 0.668297 0.917100 0.131633
H5    H     H_    0.860359 0.541853 0.016425 0.132903
H6    H     H_    0.139095 0.457720 0.983524 0.132413
H7    H     H_    0.637657 0.837285 0.587217 0.171665
H8    H     H_    0.361449 0.160570 0.480257 0.170956
H9    H     H_    0.317477 0.763630 0.496975 0.155626
H10   H     H_    0.682357 0.238768 0.486223 0.162602
H11   H     H_    0.067598 0.848594 0.465176 0.166477
H12   H     H_    0.160805 0.625941 0.058378 0.130297
H13   H     H_    0.931567 0.148929 0.563351 0.165137
H14   H     H_    0.461600 0.792997 0.563940 0.151460
H15   H     H_    0.537012 0.205591 0.502169 0.141475
H16   H     H_    0.801729 0.898964 0.543489 0.242703
H17   H     H_    0.933410 0.894627 0.663500 0.233462
H18   H     H_    0.935680 0.007191 0.692926 0.237228
H19   H     H_    0.981156 0.013724 0.592859 0.219723
H20   H     H_    0.196184 0.086836 0.519653 0.249485
H21   H     H_    0.064657 0.107494 0.406329 0.234608
H22   H     H_    0.017178 0.978790 0.461438 0.218682
H23   H     H_    0.279214 0.548755 0.459869 0.121372
H24   H     H_    0.063644 0.007728 0.357146 0.238303
H25   H     H_    0.486780 0.729653 0.277744 0.251566
H26   H     H_    0.610445 0.897423 0.291719 0.231976
H27   H     H_    0.680358 0.845838 0.383437 0.231050
H28   H     H_    0.556567 0.839141 0.391897 0.239125
H29   H     H_    0.443579 0.295311 0.762862 0.246824
H30   H     H_    0.499735 0.161901 0.770440 0.231982
H31   H     H_    0.601805 0.280901 0.742726 0.217763
H32   H     H_    0.521539 0.203696 0.658514 0.243661
H33   H     H_    0.720419 0.448875 0.538650 0.121677
H34   H     H_    0.136439 0.321701 0.655507 0.125032
H35   H     H_    0.862494 0.678059 0.343838 0.128687
H36   H     H_    0.721483 0.732983 0.304261 0.177323
H37   H     H_    0.279092 0.270407 0.699815 0.152701
H38   H     H_    0.409950 0.632372 0.405554 0.131592
N1    N     N_R   0.795440 0.560790 0.443380 -0.175345
N2    N     N_R   0.204560 0.439210 0.556620 -0.177705
N3    N     N_2   0.822640 0.946170 0.589803 -0.439713
N4    N     N_2   0.175779 0.050077 0.465945 -0.438288
N5    N     N_2   0.555795 0.738415 0.315662 -0.442091
N6    N     N_2   0.454992 0.280891 0.706110 -0.436038
O1    O     O_R   0.977900 0.338120 0.529810 -0.591637
O2    O     O_R   0.022100 0.661880 0.470190 -0.591293
O3    O     O_R   0.839850 0.379180 0.491620 -0.590282
O4    O     O_R   0.160150 0.620820 0.508380 -0.588969
O5    O     O_R   0.069010 0.479460 0.640020 -0.577035
O6    O     O_R   0.930990 0.520540 0.359980 -0.576149
O7    O     O_R   0.930960 0.520530 0.601820 -0.578520
O8    O     O_R   0.069040 0.479470 0.398180 -0.578503

loop_
_geom_bond_atom_site_label_1
_geom_bond_atom_site_label_2
_ccdc_geom_bond_type
C48   H21   S    
Cu2   N1    S    
Cu1   Cu2   S    
C23   C45   A    
C22   C29   A    
C27   C29   A    
C36   C42   T    
C21   C26   A    
C7    H14   S    
C39   C41   S    
C25   C28   A    
C26   C27   A    
C33   C39   S    
Cu1   O5    S    
C49   H28   S    
C19   C21   A    
C12   O4    A    
C5    C6    A    
C11   C14   A    
C20   C25   A    
H20   N4    S    
C30   N6    S    
C32   C39   S    
C48   H22   S    
C16   O7    A    
C34   N4    S    
C3    C23   A    
C11   H36   S    
C31   C33   S    
C53   H9    S    
C1    O3    A    
C18   C20   A    
C50   H32   S    
C44   C52   A    
C40   C42   S    
C18   N1    A    
C41   C43   S    
C2    C6    A    
C52   C54   A    
H16   N3    S    
C39   H5    S    
C4    C34   A    
C33   C40   S    
C29   N5    S    
C45   H13   S    
C32   C35   S    
C5    C54   A    
C35   C38   S    
C47   H17   S    
C12   C46   S    
C17   O8    A    
C15   N2    A    
C17   C37   S    
H25   N5    S    
C25   C26   A    
C46   C51   A    
C13   C24   A    
C13   H37   S    
C49   H26   S    
C37   C43   T    
C2    C4    A    
Cu2   O7    S    
C12   O2    A    
C3    C9    A    
C49   N5    S    
C1    C44   S    
C34   C51   A    
C51   H11   S    
C19   H23   S    
Cu2   O6    S    
C16   O5    A    
C50   H31   S    
C23   N3    S    
C20   C22   A    
C13   C15   A    
C32   H4    S    
C4    C10   A    
C1    O1    A    
C14   N1    A    
C52   H10   S    
C44   C45   A    
C31   H3    S    
C7    C9    A    
C8    H15   S    
C33   H1    S    
C31   C41   S    
C9    H7    S    
C18   H33   S    
C10   H8    S    
C47   H18   S    
Cu1   N2    S    
C2    C53   A    
C5    C8    A    
C6    C7    A    
C28   H2    S    
C48   N4    S    
Cu1   O1    S    
C11   C22   A    
C50   N6    S    
C47   N3    S    
C31   C38   S    
Cu1   O8    S    
C49   H27   S    
C28   C30   A    
Cu2   O2    S    
H29   N6    S    
C17   O6    A    
C16   C36   S    
C15   H34   S    
C38   C40   S    
C48   H24   S    
C35   H12   S    
Cu1   O4    S    
C46   C53   A    
C3    C54   A    
Cu2   O3    S    
C32   C40   S    
C35   C41   S    
C24   C30   A    
C14   H35   S    
C50   H30   S    
C47   H19   S    
C8    C10   A    
C21   C24   A    
C27   H38   S    
C19   N2    A    
C38   H6    S    
