data_mof_unit_13990.cif
_audit_creation_date              2012-12-10T19:42:03-0500
_audit_creation_method            fapswitch 2.2
_symmetry_space_group_name_H-M    P1
_symmetry_Int_Tables_number       1
_space_group_crystal_system       triclinic
_cell_length_a                    18.587748
_cell_length_b                    18.29998
_cell_length_c                    18.500176
_cell_angle_alpha                 120.077633
_cell_angle_beta                  89.679061
_cell_angle_gamma                 119.559896
_cell_volume                      4486.05743305

loop_
_atom_site_label
_atom_site_type_symbol
_atom_type_description
_atom_site_fract_x
_atom_site_fract_y
_atom_site_fract_z
_atom_type_partial_charge
C1    C     C_R   0.138795 0.779844 0.140678 0.922969
C2    C     C_R   0.733193 0.669162 0.827692 -0.120477
C3    C     C_R   0.734965 0.580010 0.788196 -0.064926
C4    C     C_R   0.785207 0.578149 0.843065 0.005477
C5    C     C_R   0.792906 0.493865 0.808227 -0.175618
C6    C     C_R   0.740159 0.405777 0.721353 -0.098272
C7    C     C_R   0.686617 0.405299 0.667162 -0.106360
C8    C     C_R   0.687305 0.494182 0.698791 -0.146534
C9    C     C_R   0.811870 0.051627 0.726526 -0.032356
C10   C     C_R   0.802200 0.110098 0.805268 -0.091069
C11   C     C_R   0.731968 0.057698 0.828488 -0.223920
C12   C     C_R   0.860027 0.220722 0.860501 0.890082
C13   C     C_R   0.673174 0.949427 0.772765 0.209467
C14   C     C_R   0.690824 0.891692 0.697079 -0.126975
C15   C     C_R   0.762178 0.947673 0.678629 0.045379
C16   C     C_3   0.808138 0.937562 0.611354 0.297864
C17   C     C_3   0.867336 0.058299 0.667428 0.028974
C18   C     C_R   0.790815 0.570615 0.236006 0.011393
C19   C     C_R   0.801103 0.491593 0.191955 -0.092395
C20   C     C_R   0.766623 0.417670 0.212225 -0.106458
C21   C     C_R   0.722657 0.427380 0.276156 0.128322
C22   C     C_R   0.706932 0.505995 0.314129 -0.107552
C23   C     C_R   0.139173 0.499855 0.859731 0.896498
C24   C     C_R   0.752266 0.584057 0.300808 -0.012823
C25   C     C_3   0.731806 0.645677 0.283960 0.077614
C26   C     C_3   0.768494 0.621508 0.206941 -0.319848
C27   C     C_R   0.169907 0.954243 0.201475 -0.102726
C28   C     C_R   0.193254 0.891933 0.201616 -0.109828
C29   C     C_R   0.276819 0.942429 0.260083 0.161821
C30   C     C_R   0.335955 0.050979 0.309458 0.135365
C31   C     C_R   0.309287 0.109565 0.305368 -0.128912
C32   C     C_R   0.228058 0.057334 0.248516 -0.063229
C33   C     C_3   0.175341 0.078955 0.212906 0.334426
C34   C     C_R   0.856929 0.495914 0.136548 0.866456
C35   C     C_3   0.102954 0.961285 0.162725 0.080302
C36   C     C_R   0.278676 0.550027 0.214550 -0.102462
C37   C     C_R   0.191372 0.506504 0.204548 -0.121133
C38   C     C_R   0.157806 0.466749 0.255220 0.136652
C39   C     C_R   0.214601 0.471109 0.312015 0.125200
C40   C     C_R   0.302617 0.506270 0.311208 -0.103087
C41   C     C_R   0.330622 0.545613 0.261178 -0.044725
C42   C     C_3   0.407936 0.600629 0.237704 0.112038
C43   C     C_3   0.347635 0.607875 0.186596 0.314634
C44   C     C_R   0.280673 0.577572 0.833869 -0.058496
C45   C     C_R   0.138494 0.502376 0.142841 0.814489
C46   C     C_R   0.193559 0.496560 0.802039 -0.074034
C47   C     C_R   0.161090 0.409809 0.713614 0.104944
C48   C     C_R   0.218294 0.404391 0.662761 -0.098213
C49   C     C_R   0.304246 0.493272 0.694942 -0.161328
C50   C     C_R   0.331752 0.577942 0.780489 0.067845
C51   C     C_3   0.388572 0.693418 0.831729 0.251809
C52   C     C_3   0.333310 0.692731 0.896307 -0.196784
C53   C     C_R   0.643252 0.502330 0.362794 0.810609
C54   C     C_R   0.360525 0.498726 0.639701 0.837599
C55   C     C_R   0.637126 0.779717 0.639877 0.780713
C56   C     C_R   0.857327 0.498554 0.860920 0.847996
C57   C     C_R   0.361648 0.220701 0.360304 0.881839
C58   C     C_R   0.360205 0.501517 0.361192 0.831436
C59   C     C_R   0.638071 0.498202 0.640092 0.841046
C60   C     C_R   0.823820 0.661974 0.932981 0.229391
C61   C     C_R   0.849926 0.758005 0.953257 -0.189673
C62   C     C_R   0.809116 0.762343 0.894286 -0.112995
H1    H     H_    0.827296 0.689755 0.216680 0.134854
H2    H     H_    0.887948 0.825586 0.019172 0.207352
H3    H     H_    0.719541 0.100908 0.887210 0.206008
O1    O     O_3   0.000000 0.500000 0.000000 -0.510923
O2    O     O_R   0.055090 0.439280 0.823480 -0.621012
O3    O     O_R   0.884180 0.560710 0.115790 -0.684013
O4    O     O_R   0.176500 0.731590 0.115790 -0.592854
O5    O     O_R   0.884220 0.268420 0.944930 -0.616353
O6    O     O_3   0.499960 0.499910 0.499960 -0.517512
O7    O     O_R   0.615770 0.439200 0.384160 -0.620465
O8    O     O_R   0.444870 0.560630 0.676470 -0.606959
O9    O     O_R   0.615730 0.731500 0.555020 -0.633924
O10   O     O_R   0.323450 0.268330 0.384170 -0.608934
O11   O     O_R   0.444860 0.560620 0.384150 -0.623619
O12   O     O_R   0.055050 0.731580 0.115780 -0.651330
O13   O     O_R   0.615780 0.439200 0.555040 -0.630229
O14   O     O_R   0.323420 0.439190 0.384160 -0.626471
O15   O     O_R   0.615760 0.560630 0.676470 -0.637590
O16   O     O_R   0.615740 0.731500 0.676460 -0.612871
O17   O     O_R   0.444900 0.268330 0.384170 -0.618892
O18   O     O_R   0.615750 0.560630 0.384150 -0.641072
O19   O     O_R   0.323430 0.439200 0.555040 -0.634426
O20   O     O_R   0.884220 0.268410 0.823490 -0.665364
O21   O     O_R   0.176520 0.560720 0.944920 -0.641953
O22   O     O_R   0.884200 0.439290 0.115800 -0.635874
O23   O     O_R   0.176530 0.560720 0.115800 -0.644308
O24   O     O_R   0.884180 0.560710 0.944910 -0.638983
O25   O     O_R   0.055100 0.439290 0.115810 -0.611867
O26   O     O_R   0.884190 0.439280 0.823480 -0.623750
Zn1   Zn    Zn3+2 0.956630 0.413250 0.869870 1.006803
Zn2   Zn    Zn3+2 0.130130 0.586750 0.043370 1.003642
Zn3   Zn    Zn3+2 0.956630 0.413250 0.043380 1.016448
Zn4   Zn    Zn3+2 0.956610 0.586750 0.043370 0.958089
Zn5   Zn    Zn3+2 0.543330 0.586660 0.630080 1.032290
Zn6   Zn    Zn3+2 0.543320 0.586660 0.456570 0.981912
Zn7   Zn    Zn3+2 0.369830 0.413160 0.456580 1.002471
Zn8   Zn    Zn3+2 0.543350 0.413170 0.456590 1.003248
C63   C     C_2   0.734094 0.309997 0.690211 0.967188
O27   O     O_2   0.764169 0.278211 0.632067 -0.589594
O28   O     O_R   0.697186 0.259075 0.730486 -0.812382
H4    H     H_    0.698483 0.196287 0.705278 0.337140
N1    N     N_2   0.751053 0.884643 0.523520 -0.247127
H5    H     H_    0.784736 0.888598 0.480447 0.249300
C64   C     C_3   0.679333 0.893916 0.511874 -0.682348
H6    H     H_    0.649203 0.853959 0.440570 0.249073
H7    H     H_    0.701136 0.974566 0.545707 0.238780
H8    H     H_    0.628799 0.858822 0.537255 0.250093
C65   C     C_2   0.962690 0.111537 0.714843 0.910461
O29   O     O_2   0.014239 0.112891 0.673389 -0.650491
O30   O     O_R   0.991999 0.159470 0.805817 -0.814828
H9    H     H_    0.056797 0.192690 0.829346 0.344694
N2    N     N_2   0.856578 0.103920 0.625825 -0.311538
H10   H     H_    0.876064 0.178662 0.668899 0.272026
C66   C     C_3   0.877846 0.082879 0.544755 -0.772358
H11   H     H_    0.817313 0.027598 0.487615 0.245845
H12   H     H_    0.919327 0.053298 0.534018 0.256988
H13   H     H_    0.911611 0.152309 0.545120 0.249943
C67   C     C_2   0.767275 0.324450 0.161103 0.947737
O31   O     O_2   0.732676 0.266551 0.081015 -0.605128
O32   O     O_R   0.806563 0.302494 0.204314 -0.835649
H14   H     H_    0.802710 0.237032 0.162188 0.349848
N3    N     N_2   0.689642 0.354586 0.297881 -0.276267
H15   H     H_    0.663246 0.279667 0.246186 0.237053
C68   C     C_3   0.746464 0.387379 0.376255 -0.635873
H16   H     H_    0.713133 0.329796 0.391742 0.245198
H17   H     H_    0.808140 0.395398 0.365913 0.250688
H18   H     H_    0.762330 0.462106 0.433639 0.228070
C69   C     C_2   0.635713 0.600457 0.261561 0.985442
O33   O     O_2   0.609576 0.654199 0.301625 -0.607076
O34   O     O_R   0.577097 0.494100 0.203039 -0.798782
H19   H     H_    0.522303 0.467055 0.219132 0.366151
N4    N     N_2   0.785135 0.755431 0.353681 -0.300578
H20   H     H_    0.778579 0.797065 0.335177 0.233408
C70   C     C_3   0.875671 0.804466 0.399713 -0.804538
H21   H     H_    0.907081 0.887871 0.447975 0.229714
H22   H     H_    0.914148 0.795767 0.353831 0.239687
H23   H     H_    0.879137 0.772057 0.435604 0.258953
C71   C     C_2   0.702146 0.551543 0.116033 0.966115
O35   O     O_2   0.671035 0.584977 0.093345 -0.625071
O36   O     O_R   0.676226 0.450086 0.058329 -0.772387
H24   H     H_    0.631793 0.412481 0.999905 0.348022
N5    N     N_2   0.300385 0.884279 0.270725 -0.264831
H25   H     H_    0.365008 0.909406 0.281281 0.242749
C72   C     C_3   0.259162 0.847381 0.322761 -0.807740
H26   H     H_    0.309039 0.885260 0.384684 0.232732
H27   H     H_    0.227327 0.763375 0.284378 0.240251
H28   H     H_    0.208412 0.862607 0.340317 0.233150
N6    N     N_2   0.800864 0.643102 0.998036 -0.278356
H29   H     H_    0.758390 0.568101 0.977627 0.255172
C73   C     C_3   0.865484 0.713866 0.083829 -0.650804
H30   H     H_    0.875569 0.672383 0.103953 0.265735
H31   H     H_    0.842456 0.756650 0.132188 0.222356
H32   H     H_    0.929468 0.763694 0.081895 0.266452
N7    N     N_2   0.422339 0.100382 0.360877 -0.268897
H33   H     H_    0.427404 0.077499 0.400335 0.244986
C74   C     C_3   0.485676 0.110657 0.314000 -0.689203
H34   H     H_    0.504554 0.057517 0.301673 0.205729
H35   H     H_    0.544715 0.190484 0.354437 0.265270
H36   H     H_    0.459919 0.093991 0.249611 0.247847
N8    N     N_2   0.158797 0.147851 0.283851 -0.262575
H37   H     H_    0.139565 0.133680 0.330324 0.230219
C75   C     C_3   0.139129 0.210024 0.273401 -0.672662
H38   H     H_    0.127528 0.255731 0.333692 0.243505
H39   H     H_    0.080343 0.161803 0.215897 0.221104
H40   H     H_    0.194740 0.263130 0.263708 0.268410
N9    N     N_2   0.211804 0.114933 0.157723 -0.309220
H41   H     H_    0.168778 0.111169 0.118911 0.267193
C76   C     C_3   0.272713 0.094699 0.117078 -0.710459
H42   H     H_    0.334371 0.135335 0.168335 0.232511
H43   H     H_    0.289116 0.123893 0.075124 0.253302
H44   H     H_    0.243972 0.011286 0.075206 0.255765
N10   N     N_2   0.029841 0.938661 0.197900 -0.349225
H45   H     H_    0.039061 0.940391 0.253849 0.233853
C77   C     C_3   0.975666 0.973569 0.193500 -0.800849
H46   H     H_    0.992994 0.042545 0.258636 0.246936
H47   H     H_    0.906456 0.915043 0.177408 0.243532
H48   H     H_    0.981170 0.989960 0.142930 0.293635
C78   C     C_2   0.073872 0.899117 0.062729 0.898275
O37   O     O_2   0.046863 0.923495 0.024470 -0.635050
O38   O     O_R   0.078109 0.814115 0.013925 -0.812572
H49   H     H_    0.056050 0.778686 0.947966 0.336792
N11   N     N_2   0.068440 0.425263 0.250321 -0.267955
H50   H     H_    0.035037 0.358323 0.246795 0.226565
C79   C     C_3   0.049783 0.499147 0.307512 -0.711997
H51   H     H_    0.072853 0.526856 0.376898 0.221044
H52   H     H_    0.978235 0.462313 0.287788 0.268127
H53   H     H_    0.081363 0.565218 0.302164 0.215642
N12   N     N_2   0.185353 0.446711 0.373276 -0.279856
H54   H     H_    0.119587 0.393265 0.354631 0.221767
C80   C     C_3   0.219651 0.534275 0.463941 -0.734273
H55   H     H_    0.194593 0.507204 0.506276 0.241927
H56   H     H_    0.292050 0.580318 0.488164 0.223108
H57   H     H_    0.198978 0.584078 0.470242 0.222343
N13   N     N_2   0.480897 0.698531 0.314399 -0.256941
H58   H     H_    0.532904 0.741685 0.300918 0.260970
C81   C     C_3   0.466602 0.756300 0.395508 -0.757636
H59   H     H_    0.513166 0.839788 0.426941 0.218770
H60   H     H_    0.477071 0.738619 0.442041 0.259694
H61   H     H_    0.399873 0.738582 0.384126 0.227773
C82   C     C_2   0.435453 0.533505 0.176301 0.960100
O39   O     O_2   0.399646 0.445566 0.154906 -0.664782
O40   O     O_R   0.495671 0.569047 0.136924 -0.757889
H62   H     H_    0.503723 0.514664 0.091451 0.387194
N14   N     N_2   0.367449 0.710339 0.226103 -0.278824
H63   H     H_    0.342865 0.737700 0.275655 0.232400
C83   C     C_3   0.447746 0.786850 0.227327 -0.778548
H64   H     H_    0.491491 0.849717 0.296353 0.231210
H65   H     H_    0.432706 0.820069 0.198577 0.280812
H66   H     H_    0.482537 0.753690 0.189581 0.251546
N15   N     N_2   0.331261 0.553211 0.090737 -0.279644
H67   H     H_    0.328489 0.590308 0.064584 0.292070
C84   C     C_3   0.270063 0.442559 0.031218 -0.711300
H68   H     H_    0.203460 0.421959 0.009530 0.221251
H69   H     H_    0.268037 0.403208 0.061925 0.256224
H70   H     H_    0.290098 0.413918 0.971825 0.257074
N16   N     N_2   0.070026 0.332230 0.674115 -0.282777
H71   H     H_    0.052889 0.258066 0.635344 0.265579
C85   C     C_3   0.020711 0.354569 0.637750 -0.635312
H72   H     H_    0.014658 0.321923 0.567096 0.248405
H73   H     H_    0.052154 0.438525 0.673691 0.243222
H74   H     H_    0.954512 0.320847 0.644098 0.253171
C86   C     C_2   0.187629 0.306196 0.577186 0.968927
O41   O     O_2   0.229473 0.268631 0.564341 -0.613166
O42   O     O_R   0.111726 0.257147 0.511399 -0.834525
H75   H     H_    0.096185 0.189268 0.457687 0.327636
N17   N     N_2   0.479948 0.735084 0.867386 -0.261520
H76   H     H_    0.491659 0.689405 0.874954 0.312486
C87   C     C_3   0.539351 0.843904 0.935820 -0.651688
H77   H     H_    0.542377 0.858717 0.002014 0.236285
H78   H     H_    0.520068 0.889714 0.930263 0.232662
H79   H     H_    0.605905 0.870738 0.930398 0.276440
N18   N     N_2   0.379694 0.734386 0.783948 -0.294050
H80   H     H_    0.399225 0.809424 0.824351 0.251900
C88   C     C_3   0.304179 0.672863 0.707432 -0.810867
H81   H     H_    0.301391 0.722806 0.691781 0.238654
H82   H     H_    0.242579 0.632413 0.719224 0.268829
H83   H     H_    0.310116 0.616967 0.649331 0.233359
C89   C     C_2   0.379523 0.725807 0.985002 0.908690
O43   O     O_2   0.383403 0.793941 0.053572 -0.614340
O44   O     O_R   0.418788 0.678537 0.988080 -0.805675
H84   H     H_    0.454619 0.712959 0.049900 0.344530
C90   C     C_2   0.283855 0.741092 0.903694 0.936270
O45   O     O_2   0.323960 0.834480 0.946480 -0.606914
O46   O     O_R   0.193739 0.680558 0.862069 -0.841059
H85   H     H_    0.169568 0.722803 0.872674 0.346854
C91   C     C_2   0.832060 0.861678 0.913308 1.001762
O47   O     O_2   0.884973 0.942128 0.983780 -0.625410
O48   O     O_R   0.794827 0.863368 0.849101 -0.768589
H86   H     H_    0.815699 0.935289 0.869209 0.349335
C92   C     C_2   0.650849 0.660631 0.843564 1.030997
O49   O     O_2   0.643045 0.729759 0.861863 -0.580545
O50   O     O_R   0.581603 0.575089 0.837727 -0.755929
H87   H     H_    0.594026 0.523251 0.827347 0.313754
C93   C     C_2   0.624624 0.308119 0.580267 0.944305
O51   O     O_2   0.546183 0.270057 0.564632 -0.623602
O52   O     O_R   0.655999 0.259477 0.517424 -0.778376
H88   H     H_    0.607537 0.189193 0.464913 0.334010
N19   N     N_2   0.593569 0.902935 0.789644 -0.300659
H89   H     H_    0.561822 0.826976 0.766069 0.277753
C94   C     C_3   0.535421 0.931781 0.781981 -0.785843
H90   H     H_    0.564440 0.991659 0.768688 0.252116
H91   H     H_    0.520280 0.962217 0.844408 0.258884
H92   H     H_    0.473849 0.863840 0.726864 0.236427
N20   N     N_2   0.857228 0.894988 0.610676 -0.312735
H93   H     H_    0.906939 0.913470 0.584281 0.241010
C95   C     C_3   0.808924 0.789197 0.581760 -0.719127
H94   H     H_    0.854180 0.764909 0.575179 0.214517
H95   H     H_    0.758221 0.738518 0.516641 0.269798
H96   H     H_    0.779480 0.780929 0.631608 0.246555

loop_
_geom_bond_atom_site_label_1
_geom_bond_atom_site_label_2
_ccdc_geom_bond_type
C19   C34   S    
N12   H54   S    
N2    C66   S    
C37   C45   S    
C65   O30   S    
C7    C93   S    
N6    H29   S    
C1    O12   A    
C41   C42   S    
O14   Zn7   S    
N1    H5    S    
C19   C20   A    
C18   C26   S    
C63   O27   D    
C86   O41   D    
C94   H92   S    
N1    C64   S    
N2    H10   S    
C58   O11   A    
C7    C8    A    
C90   O45   D    
O6    Zn6   S    
C28   C29   A    
O50   H87   S    
C82   O40   S    
C12   O20   A    
C68   H16   S    
C51   N18   S    
C18   C24   A    
N3    C68   S    
C36   C37   A    
O5    Zn3   S    
C13   N19   S    
C71   O36   S    
C72   H26   S    
C26   C71   S    
C52   C90   S    
C8    C59   S    
C5    C6    A    
C84   H69   S    
C64   H6    S    
C44   C50   A    
C15   C16   S    
C54   O8    A    
O22   Zn3   S    
C38   N11   S    
C66   H11   S    
C87   H79   S    
C18   C19   A    
O17   Zn8   S    
C92   O49   D    
C23   O2    A    
N10   H45   S    
N17   H76   S    
C12   O5    A    
C5    C56   S    
C74   H36   S    
C65   O29   D    
C55   O9    A    
C62   C91   S    
N7    C74   S    
C16   N1    S    
C77   H48   S    
C76   H42   S    
C31   C32   A    
C90   O46   S    
C16   C17   S    
C69   O33   D    
C23   O21   A    
C93   O52   S    
C1    C28   S    
C68   H17   S    
C73   H32   S    
C81   H59   S    
C80   H55   S    
C2    C3    A    
C55   O16   A    
C29   C30   A    
C42   C43   S    
C53   O7    A    
N8    C75   S    
O1    Zn3   S    
C44   C52   S    
C30   N7    S    
C14   C55   S    
C27   C32   A    
N11   H50   S    
C23   C46   S    
C21   C22   A    
C17   C65   S    
C43   N14   S    
C74   H35   S    
O40   H62   S    
C75   H38   S    
C36   C41   A    
O28   H4    S    
N18   C88   S    
C70   H23   S    
C25   C69   S    
C10   C12   S    
C59   O13   A    
C54   O19   A    
O30   H9    S    
O6    Zn7   S    
O20   Zn1   S    
C44   C46   A    
C17   N2    S    
O25   Zn3   S    
O9    Zn6   S    
C72   H27   S    
C56   O26   A    
C95   H95   S    
C47   N16   S    
N3    H15   S    
O3    Zn4   S    
C40   C58   S    
C82   O39   D    
C51   C52   S    
C80   H57   S    
N9    H41   S    
C49   C54   S    
C45   O23   A    
C24   C25   S    
N19   C94   S    
C3    C8    A    
N20   H93   S    
C34   O3    A    
O26   Zn1   S    
C39   N12   S    
O23   Zn2   S    
N14   H63   S    
C83   H64   S    
C94   H91   S    
O6    Zn5   S    
C48   C86   S    
C68   H18   S    
C27   C35   S    
O11   Zn6   S    
C29   N5    S    
O6    Zn8   S    
O12   Zn4   S    
O10   Zn7   S    
C1    O4    A    
C60   C61   A    
N7    H33   S    
C74   H34   S    
O24   Zn4   S    
C61   H2    S    
C69   O34   S    
C26   H1    S    
N4    C70   S    
C37   C38   A    
C25   N4    S    
O21   Zn2   S    
C2    C92   S    
C72   H28   S    
C88   H81   S    
N16   C85   S    
C47   C48   A    
C14   C15   A    
C95   H96   S    
C30   C31   A    
C93   O51   D    
C4    C60   A    
C81   H61   S    
C89   O44   S    
O44   H84   S    
C50   C51   S    
C25   C26   S    
C60   N6    S    
C71   O35   D    
C87   H78   S    
C43   N15   S    
C94   H90   S    
N20   C95   S    
C58   O14   A    
C66   H12   S    
O1    Zn2   S    
C22   C53   S    
C42   N13   S    
N5    C72   S    
C77   H46   S    
C63   O28   S    
C73   H31   S    
C49   C50   A    
C64   H8    S    
N17   C87   S    
C22   C24   A    
C42   C82   S    
C33   N9    S    
O15   Zn5   S    
N18   H80   S    
C79   H52   S    
C3    C4    A    
C20   C67   S    
O2    Zn1   S    
C67   O31   D    
C67   O32   S    
C70   H22   S    
C92   O50   S    
N8    H37   S    
C9    C10   A    
C9    C17   S    
C35   C78   S    
O16   Zn5   S    
C56   O24   A    
O46   H85   S    
C40   C41   A    
N12   C80   S    
C78   O38   S    
C20   C21   A    
C84   H68   S    
C35   N10   S    
N13   C81   S    
C75   H40   S    
N15   C84   S    
N13   H58   S    
C84   H70   S    
C86   O42   S    
C59   O15   A    
O1    Zn1   S    
C66   H13   S    
O32   H14   S    
C6    C7    A    
O13   Zn8   S    
C70   H21   S    
N4    H20   S    
O4    Zn2   S    
C95   H94   S    
N11   C79   S    
C88   H83   S    
C85   H73   S    
C53   O18   A    
O19   Zn7   S    
C32   C33   S    
C57   O10   A    
C21   N3    S    
C75   H39   S    
C91   O48   S    
O48   H86   S    
C87   H77   S    
C91   O47   D    
N19   H89   S    
C11   C13   A    
C31   C57   S    
N16   H71   S    
C38   C39   A    
C64   H7    S    
N14   C83   S    
C79   H53   S    
C83   H66   S    
C48   C49   A    
N9    C76   S    
C89   O43   D    
C33   C35   S    
C88   H82   S    
C85   H72   S    
O34   H19   S    
N6    C73   S    
C34   O22   A    
C9    C15   A    
C61   C62   A    
N10   C77   S    
C46   C47   A    
C10   C11   A    
C52   C89   S    
C39   C40   A    
C11   H3    S    
N5    H25   S    
C4    C5    A    
N15   H67   S    
C83   H65   S    
O42   H75   S    
O18   Zn6   S    
O52   H88   S    
C51   N17   S    
O36   H24   S    
C16   N20   S    
C57   O17   A    
O1    Zn4   S    
C36   C43   S    
C81   H60   S    
C73   H30   S    
C76   H43   S    
O8    Zn5   S    
C79   H51   S    
C13   C14   A    
C33   N8    S    
C2    C62   A    
C76   H44   S    
C85   H74   S    
C45   O25   A    
C78   O37   D    
O38   H49   S    
C6    C63   S    
C77   H47   S    
C27   C28   A    
O7    Zn8   S    
C80   H56   S    
