data_mof_unit_14943.cif
_audit_creation_date              2012-12-11T17:12:51-0500
_audit_creation_method            fapswitch 2.2
_symmetry_space_group_name_H-M    P1
_symmetry_Int_Tables_number       1
_space_group_crystal_system       triclinic
_cell_length_a                    17.196857
_cell_length_b                    6.878443
_cell_length_c                    14.429704
_cell_angle_alpha                 90.000019
_cell_angle_beta                  110.0617
_cell_angle_gamma                 89.999973
_cell_volume                      1603.289526

loop_
_atom_site_label
_atom_site_type_symbol
_atom_type_description
_atom_site_fract_x
_atom_site_fract_y
_atom_site_fract_z
_atom_type_partial_charge
O1    O     O_R   0.314130 0.635770 0.168990 -0.546362
O2    O     O_R   0.685870 0.364230 0.831010 -0.547842
O3    O     O_R   0.185870 0.135770 0.331010 -0.546362
O4    O     O_R   0.814130 0.864230 0.668990 -0.547842
O5    O     O_R   0.146800 0.302460 0.139760 -0.535934
O6    O     O_R   0.853200 0.697540 0.860240 -0.535529
O7    O     O_R   0.353200 0.802460 0.360240 -0.535934
O8    O     O_R   0.646800 0.197540 0.639760 -0.535529
C1    C     C_R   0.113988 0.475870 0.112767 0.724021
C2    C     C_R   0.886017 0.524131 0.887224 0.724841
C3    C     C_R   0.386012 0.975870 0.387233 0.724021
C4    C     C_R   0.613983 0.024132 0.612776 0.724841
O9    O     O_R   0.311100 0.305780 0.157130 -0.536487
O10   O     O_R   0.688900 0.694220 0.842870 -0.537400
O11   O     O_R   0.188900 0.805780 0.342870 -0.536488
O12   O     O_R   0.811100 0.194220 0.657130 -0.537399
O13   O     O_R   0.351340 0.139640 0.348510 -0.537443
O14   O     O_R   0.648660 0.860360 0.651490 -0.537276
O15   O     O_R   0.148660 0.639640 0.151490 -0.537443
O16   O     O_R   0.851340 0.360360 0.848510 -0.537276
C5    C     C_R   0.332784 0.476428 0.135604 0.705608
C6    C     C_R   0.667240 0.523436 0.864491 0.706401
C7    C     C_R   0.167216 0.976428 0.364395 0.705608
C8    C     C_R   0.832760 0.023436 0.635509 0.706402
C9    C     C_1   0.533564 0.008869 0.533052 -0.174525
C10   C     C_1   0.466428 0.991132 0.466963 -0.175145
C11   C     C_1   0.966436 0.508869 0.966948 -0.174525
C12   C     C_1   0.033572 0.491132 0.033036 -0.175145
O17   O     O_3   0.263010 0.470920 0.312770 -0.367495
O18   O     O_3   0.736990 0.529080 0.687230 -0.367405
O19   O     O_3   0.236990 0.970920 0.187230 -0.367495
O20   O     O_3   0.763010 0.029080 0.812770 -0.367405
V1    V     V_3+5 0.247590 0.194450 0.238360 1.452771
V2    V     V_3+5 0.752410 0.805550 0.761640 1.450153
V3    V     V_3+5 0.252410 0.694450 0.261640 1.452770
V4    V     V_3+5 0.747590 0.305550 0.738360 1.450153
C13   C     C_R   0.117294 0.998376 0.429454 -0.086657
C14   C     C_R   0.883758 0.999992 0.571639 -0.079753
C15   C     C_R   0.382705 0.498375 0.070546 -0.086658
C16   C     C_R   0.616241 0.499993 0.928360 -0.079752
C17   C     C_R   0.930870 0.780278 0.467962 -0.015763
C18   C     C_R   0.075002 0.208680 0.540767 -0.022655
C19   C     C_R   0.569130 0.280279 0.032038 -0.015764
C20   C     C_R   0.424998 0.708680 0.959232 -0.022655
C21   C     C_R   0.875177 0.829259 0.515963 -0.136628
C22   C     C_R   0.128255 0.164588 0.488667 -0.143327
C23   C     C_R   0.624823 0.329259 0.984037 -0.136628
C24   C     C_R   0.371745 0.664588 0.011332 -0.143325
C25   C     C_R   0.948212 0.127937 0.577395 -0.193405
C26   C     C_R   0.053110 0.870039 0.424049 -0.160960
C27   C     C_R   0.551788 0.627937 0.922604 -0.193408
C28   C     C_R   0.446890 0.370040 0.075951 -0.160962
C29   C     C_R   0.007031 0.083233 0.531754 0.071175
C30   C     C_R   0.997442 0.908551 0.474835 0.087493
C31   C     C_R   0.492968 0.583234 0.968245 0.071174
C32   C     C_R   0.502557 0.408552 0.025164 0.087492
H1    H     H_    0.044919 0.747186 0.375144 0.101961
H2    H     H_    0.952498 0.258617 0.620173 0.102641
H3    H     H_    0.455081 0.247186 0.124856 0.101962
H4    H     H_    0.547502 0.758617 0.879826 0.102641
H5    H     H_    0.179095 0.262010 0.493635 0.165848
H6    H     H_    0.825629 0.729195 0.512862 0.166471
H7    H     H_    0.320904 0.762010 0.006365 0.165850
H8    H     H_    0.674371 0.229195 0.987138 0.166470
C33   C     C_2   0.919447 0.589784 0.415590 0.371391
H9    H     H_    0.969394 0.520839 0.398430 0.054150
O21   O     O_2   0.853358 0.503838 0.392391 -0.514063
C34   C     C_2   0.093084 0.385752 0.604221 0.347501
H10   H     H_    0.068668 0.403826 0.663496 0.048587
O22   O     O_2   0.137525 0.514477 0.591952 -0.528954
C35   C     C_2   0.580552 0.089784 0.084409 0.371388
H11   H     H_    0.530604 0.020836 0.101564 0.054148
O23   O     O_2   0.646643 0.003842 0.107612 -0.514061
C36   C     C_2   0.406916 0.885753 0.895780 0.347499
H12   H     H_    0.431335 0.903833 0.836507 0.048586
O24   O     O_2   0.362471 0.014474 0.908046 -0.528953

loop_
_geom_bond_atom_site_label_1
_geom_bond_atom_site_label_2
_ccdc_geom_bond_type
C2    C11   S    
C16   C23   A    
C31   C32   A    
O1    C5    A    
O3    C7    A    
C14   C25   A    
C29   C30   A    
O5    C1    A    
C26   C30   A    
C36   O24   D    
O20   V4    S    
C18   C29   A    
O8    V4    S    
O4    C8    A    
O3    V1    S    
O17   V1    S    
C21   H6    S    
C18   C22   A    
C14   C21   A    
C1    O15   A    
C2    O16   A    
C34   H10   S    
C33   O21   D    
O5    V1    S    
O2    C6    A    
C8    C14   S    
O19   V1    S    
O11   C7    A    
C15   C28   A    
O12   C8    A    
C18   C34   S    
O13   V1    S    
O11   V3    S    
O4    V2    S    
C36   H12   S    
O18   V2    S    
C22   H5    S    
C23   H8    S    
C35   O23   D    
C24   H7    S    
C17   C33   S    
C3    C10   S    
C9    C10   T    
C7    C13   S    
C25   H2    S    
O6    V2    S    
O20   V2    S    
O7    C3    A    
O9    V1    S    
C28   H3    S    
C5    C15   S    
O8    C4    A    
C6    C16   S    
O9    C5    A    
C20   C36   S    
O14   V2    S    
O19   V3    S    
O1    V3    S    
O2    V4    S    
C3    O13   A    
C19   C35   S    
C26   H1    S    
O7    V3    S    
O10   V2    S    
O6    C2    A    
C16   C27   A    
O17   V3    S    
O18   V4    S    
C4    C9    S    
O10   C6    A    
C35   H11   S    
O15   V3    S    
O12   V4    S    
C13   C26   A    
C20   C31   A    
C25   C29   A    
C27   C31   A    
C17   C30   A    
O16   V4    S    
C28   C32   A    
C19   C32   A    
C34   O22   D    
C33   H9    S    
C4    O14   A    
C11   C12   T    
C17   C21   A    
C27   H4    S    
C13   C22   A    
C19   C23   A    
C20   C24   A    
C1    C12   S    
C15   C24   A    
