data_mof_unit_24044.cif
_audit_creation_date              2012-10-26T20:20:47-0400
_audit_creation_method            fapswitch 2.2
_symmetry_space_group_name_H-M    P1
_symmetry_Int_Tables_number       1
_space_group_crystal_system       triclinic
_cell_length_a                    8.726169
_cell_length_b                    10.784629
_cell_length_c                    9.54289
_cell_angle_alpha                 90.204081
_cell_angle_beta                  98.113649
_cell_angle_gamma                 90.323367
_cell_volume                      889.054649115

loop_
_atom_site_label
_atom_site_type_symbol
_atom_type_description
_atom_site_fract_x
_atom_site_fract_y
_atom_site_fract_z
_atom_type_partial_charge
C1    C     C_R   0.499917 0.262664 0.499751 0.515211
C2    C     C_R   0.373142 0.064017 0.542489 0.265337
C3    C     C_R   0.500217 0.871067 0.500585 -0.086645
C4    C     C_R   0.499786 0.128933 0.499415 -0.086645
C5    C     C_R   0.400076 0.424729 0.061431 0.387625
C6    C     C_R   0.599924 0.575271 0.938569 0.387626
C7    C     C_R   0.402559 0.423920 0.912236 -0.018920
C8    C     C_R   0.597441 0.576080 0.087764 -0.018917
C9    C     C_3   0.148558 0.368409 0.070826 -0.103147
C10   C     C_3   0.851446 0.631572 0.929167 -0.103142
C11   C     C_R   0.500085 0.737336 0.500249 0.515212
C12   C     C_R   0.203745 0.499910 0.463636 0.530170
C13   C     C_R   0.796255 0.500090 0.536364 0.530169
C14   C     C_2   0.037727 0.500013 0.443739 -0.138598
C15   C     C_2   0.962273 0.499987 0.556261 -0.138597
C16   C     C_R   0.626656 0.064786 0.456915 0.265181
C17   C     C_R   0.373348 0.935214 0.543086 0.265179
C18   C     C_R   0.626863 0.935983 0.457512 0.265339
Cu1   Cu    Cu3+1 0.500000 0.500020 0.640660 1.012373
Cu2   Cu    Cu3+1 0.500000 0.499980 0.359340 1.012366
H1    H     H_    0.977403 0.500189 0.335942 0.119466
H2    H     H_    0.122161 0.469244 0.074262 0.090536
H3    H     H_    0.075020 0.320695 0.140016 0.165287
H4    H     H_    0.877829 0.530735 0.925730 0.090538
H5    H     H_    0.883890 0.669054 0.037930 0.110164
H6    H     H_    0.924985 0.679277 0.859973 0.165284
H7    H     H_    0.022597 0.499811 0.664058 0.119464
H8    H     H_    0.327501 0.361533 0.844771 0.139035
H9    H     H_    0.672500 0.638466 0.155228 0.139034
H10   H     H_    0.758705 0.211726 0.446879 0.323755
H11   H     H_    0.241291 0.788278 0.553110 0.323758
H12   H     H_    0.759549 0.790360 0.449164 0.324437
H13   H     H_    0.240445 0.209635 0.550818 0.324438
H14   H     H_    0.116127 0.330925 0.962063 0.110168
N1    N     N_R   0.500040 0.500030 0.852080 -0.246968
N2    N     N_R   0.499960 0.499970 0.147920 -0.246966
O1    O     O_R   0.499990 0.319660 0.618740 -0.507756
O2    O     O_3   0.244485 0.876366 0.582282 -0.597855
O3    O     O_3   0.755803 0.877905 0.418677 -0.602420
O4    O     O_3   0.244203 0.122096 0.581325 -0.602421
O5    O     O_3   0.305104 0.343845 0.122181 -0.512203
O6    O     O_3   0.694901 0.656152 0.877821 -0.512202
O7    O     O_R   0.500010 0.680340 0.381260 -0.507764
O8    O     O_R   0.499990 0.319630 0.381170 -0.440651
O9    O     O_R   0.500010 0.680370 0.618830 -0.440644
O10   O     O_R   0.274840 0.500010 0.591370 -0.523899
O11   O     O_R   0.725160 0.499990 0.408630 -0.523903
O12   O     O_R   0.274830 0.499980 0.353800 -0.469517
O13   O     O_R   0.725170 0.500020 0.646200 -0.469519
O14   O     O_3   0.755520 0.123633 0.417720 -0.597854

loop_
_geom_bond_atom_site_label_1
_geom_bond_atom_site_label_2
_ccdc_geom_bond_type
C4    C16   A    
C2    C4    A    
C18   O3    S    
Cu1   O9    S    
C11   O7    A    
C9    O5    S    
C10   O6    S    
Cu1   O13   S    
C1    O8    A    
C15   H7    S    
Cu1   Cu2   S    
H11   O2    S    
C1    O1    A    
C12   O12   A    
C1    C4    S    
C10   H6    S    
H10   O14   S    
Cu1   O10   S    
Cu1   N1    S    
C2    C17   A    
Cu2   O12   S    
C13   O13   A    
C8    H9    S    
C10   H5    S    
C12   O10   A    
Cu2   O8    S    
C12   C14   S    
C3    C17   A    
C5    C7    A    
C17   O2    S    
C13   C15   S    
C6    O6    S    
C9    H14   S    
C9    H2    S    
C11   O9    A    
Cu2   O11   S    
C3    C11   S    
H13   O4    S    
C5    N2    A    
C2    O4    S    
Cu2   O7    S    
C6    N1    A    
C14   H1    S    
C3    C18   A    
C16   C18   A    
C8    N2    A    
H12   O3    S    
C13   O11   A    
C5    O5    S    
C14   C15   D    
C9    H3    S    
C6    C8    A    
Cu1   O1    S    
C10   H4    S    
C7    N1    A    
C7    H8    S    
C16   O14   S    
Cu2   N2    S    
