data_mof_unit_57476.cif
_audit_creation_date              2012-12-10T16:57:51-0500
_audit_creation_method            fapswitch 2.2
_symmetry_space_group_name_H-M    P1
_symmetry_Int_Tables_number       1
_space_group_crystal_system       triclinic
_cell_length_a                    10.633622
_cell_length_b                    10.91795
_cell_length_c                    9.719794
_cell_angle_alpha                 90.456385
_cell_angle_beta                  90.495695
_cell_angle_gamma                 90.404591
_cell_volume                      1128.33564212

loop_
_atom_site_label
_atom_site_type_symbol
_atom_type_description
_atom_site_fract_x
_atom_site_fract_y
_atom_site_fract_z
_atom_type_partial_charge
C1    C     C_R   0.500965 0.265449 0.499671 0.838224
C2    C     C_3   0.959186 0.604198 0.450865 0.460664
C3    C     C_3   0.039727 0.513468 0.368624 -0.231861
C4    C     C_3   0.122998 0.500869 0.498646 -0.095767
C5    C     C_2   0.496736 0.932203 0.387215 -0.164338
C6    C     C_2   0.490597 0.866616 0.503033 -0.315058
C7    C     C_2   0.490192 0.066131 0.387033 -0.177627
C8    C     C_2   0.506626 0.133474 0.501504 -0.326552
C9    C     C_2   0.419780 0.437828 0.921692 -0.052509
C10   C     C_2   0.433311 0.421897 0.077740 0.545848
C11   C     C_R   0.259555 0.500713 0.499459 0.807941
C12   C     C_R   0.498156 0.734588 0.500454 0.842239
C13   C     C_R   0.740436 0.499853 0.500572 0.823660
C14   C     C_3   0.043894 0.392815 0.551250 -0.266058
C15   C     C_3   0.958339 0.407868 0.423687 0.450975
C16   C     C_3   0.877085 0.499205 0.501740 -0.116877
C17   C     C_3   0.961203 0.486103 0.630962 -0.241923
C18   C     C_3   0.043544 0.594021 0.579635 -0.240362
Cu1   Cu    Cu3+1 0.500030 0.500020 0.638630 0.962324
Cu2   Cu    Cu3+1 0.499970 0.499980 0.361370 0.995443
H1    H     H_    0.527360 0.093186 0.600371 0.149802
H2    H     H_    0.340170 0.395862 0.869042 0.085093
H3    H     H_    0.519337 0.581727 0.110158 0.181896
H4    H     H_    0.083224 0.306585 0.592689 0.127133
H5    H     H_    0.926546 0.474771 0.737553 0.180474
H6    H     H_    0.081409 0.671437 0.642492 0.134767
H7    H     H_    0.073381 0.524690 0.261640 0.144676
H8    H     H_    0.505296 0.886869 0.287866 0.168373
H9    H     H_    0.476464 0.908221 0.603041 0.139356
H10   H     H_    0.474776 0.110005 0.288492 0.203127
N1    N     N_2   0.498620 0.498660 0.846910 -0.021660
N2    N     N_2   0.498590 0.498630 0.153040 -0.280307
O1    O     O_R   0.500020 0.321960 0.617040 -0.583497
O2    O     O_R   0.499980 0.321920 0.382900 -0.516339
O3    O     O_R   0.316870 0.499990 0.617050 -0.593335
O4    O     O_R   0.316830 0.499950 0.382910 -0.577352
O5    O     O_R   0.500020 0.678080 0.617100 -0.619868
O6    O     O_R   0.499980 0.678040 0.382960 -0.588971
O7    O     O_R   0.683170 0.500050 0.617090 -0.581996
O8    O     O_R   0.683130 0.500010 0.382950 -0.538660
O9    O     O_3   0.911038 0.315639 0.334361 -0.574694
C19   C     C_3   0.869970 0.214060 0.410916 0.064925
H11   H     H_    0.800323 0.241501 0.490157 0.132639
H12   H     H_    0.951255 0.168364 0.461199 0.131738
C20   C     C_3   0.807551 0.121811 0.313821 -0.765757
H13   H     H_    0.875294 0.092130 0.234140 0.236973
H14   H     H_    0.776078 0.040360 0.372324 0.216324
H15   H     H_    0.724937 0.163930 0.262564 0.264846
O10   O     O_3   0.613178 0.516270 0.905216 -0.489916
C21   C     C_3   0.646773 0.640624 0.888504 0.185140
H16   H     H_    0.567863 0.702663 0.915903 0.098225
H17   H     H_    0.675783 0.659674 0.781961 0.193910
C22   C     C_3   0.758698 0.671030 0.981671 -0.869425
H18   H     H_    0.839563 0.611777 0.955045 0.253306
H19   H     H_    0.786766 0.768277 0.967842 0.201345
H20   H     H_    0.734180 0.656654 0.091207 0.274609
O11   O     O_3   0.381182 0.320931 0.142967 -0.557448
C23   C     C_3   0.256270 0.298056 0.099144 0.014040
H21   H     H_    0.255732 0.246432 0.000110 0.135260
H22   H     H_    0.201722 0.384398 0.088251 0.129362
C24   C     C_3   0.190943 0.218924 0.205492 -0.729121
H23   H     H_    0.190822 0.266531 0.306843 0.253503
H24   H     H_    0.092354 0.200556 0.172572 0.226153
H25   H     H_    0.240336 0.130192 0.216088 0.222403
O12   O     O_3   0.906413 0.713156 0.399859 -0.587504
C25   C     C_3   0.001850 0.797270 0.362661 0.073130
H26   H     H_    0.099953 0.766249 0.383670 0.121052
H27   H     H_    0.988235 0.883274 0.422358 0.157053
C26   C     C_3   0.989557 0.826003 0.210301 -0.825350
H28   H     H_    0.893848 0.860830 0.187359 0.256323
H29   H     H_    0.059884 0.896891 0.181847 0.200687
H30   H     H_    0.006081 0.741949 0.148144 0.245171

loop_
_geom_bond_atom_site_label_1
_geom_bond_atom_site_label_2
_ccdc_geom_bond_type
C24   H25   S    
C25   H27   S    
C10   O11   S    
Cu1   O5    S    
C26   H30   S    
C1    C8    S    
C2    C16   S    
O9    C19   S    
C21   H17   S    
Cu1   Cu2   S    
C18   H6    S    
C2    O12   S    
Cu2   O2    S    
H3    N2    S    
C24   H23   S    
C23   C24   S    
C3    H7    S    
C17   C18   S    
C23   H21   S    
Cu1   N1    S    
C7    C8    D    
C20   H14   S    
C7    H10   S    
Cu1   O3    S    
C22   H18   S    
C4    C11   S    
C6    C12   S    
C14   C17   S    
O11   C23   S    
C26   H28   S    
C19   H12   S    
N1    O10   S    
Cu1   O7    S    
C9    C10   S    
C11   O3    A    
C11   O4    A    
C1    O2    A    
C25   H26   S    
C2    C3    S    
C22   H19   S    
C4    C14   S    
C5    C6    D    
Cu2   O8    S    
C22   H20   S    
C9    H2    S    
C13   O7    A    
C25   C26   S    
C2    C18   S    
O12   C25   S    
C9    N1    D    
C1    O1    A    
C15   C16   S    
C5    H8    S    
C12   O6    A    
C10   N2    D    
C6    H9    S    
Cu2   O6    S    
C15   O9    S    
C26   H29   S    
O10   C21   S    
Cu2   N2    S    
C13   C16   S    
C14   H4    S    
C12   O5    A    
C5    C7    S    
C14   C15   S    
C16   C17   S    
C3    C15   S    
C8    H1    S    
C20   H15   S    
C21   H16   S    
C21   C22   S    
C20   H13   S    
C23   H22   S    
C4    C18   S    
C24   H24   S    
C3    C4    S    
C19   H11   S    
Cu1   O1    S    
C17   H5    S    
C13   O8    A    
C19   C20   S    
Cu2   O4    S    
