data_mof_unit_13858.cif
_audit_creation_date              2012-10-26T20:43:32-0400
_audit_creation_method            fapswitch 2.2
_symmetry_space_group_name_H-M    P1
_symmetry_Int_Tables_number       1
_space_group_crystal_system       triclinic
_cell_length_a                    10.961565
_cell_length_b                    9.682969
_cell_length_c                    23.528458
_cell_angle_alpha                 89.246054
_cell_angle_beta                  91.484436
_cell_angle_gamma                 90.050425
_cell_volume                      2496.26755358

loop_
_atom_site_label
_atom_site_type_symbol
_atom_type_description
_atom_site_fract_x
_atom_site_fract_y
_atom_site_fract_z
_atom_type_partial_charge
C1    C     C_R   0.262357 0.499984 0.498162 0.554685
C2    C     C_R   0.568290 0.593062 0.703125 0.065385
C3    C     C_R   0.439328 0.563279 0.235672 -0.095274
C4    C     C_R   0.562519 0.592557 0.762311 -0.101993
C5    C     C_R   0.536292 0.494085 0.210740 0.210895
C6    C     C_R   0.497391 0.490385 0.791295 0.214109
C7    C     C_R   0.062944 0.375543 0.506208 0.092168
C8    C     C_R   0.935769 0.628291 0.493707 0.097770
C9    C     C_R   0.936827 0.378927 0.513684 0.091548
C10   C     C_R   0.062931 0.626152 0.488940 0.088712
C11   C     C_R   0.871825 0.503261 0.504187 0.003141
C12   C     C_R   0.737447 0.500621 0.501905 0.570567
C13   C     C_R   0.127600 0.500150 0.496577 -0.003851
C14   C     C_R   0.491813 0.074613 0.449983 0.223878
C15   C     C_R   0.475611 0.924626 0.548139 0.223998
C16   C     C_R   0.493555 0.070341 0.549642 0.227204
C17   C     C_R   0.517507 0.928936 0.451147 0.249024
C18   C     C_R   0.503813 0.500641 0.391586 0.598889
C19   C     C_R   0.499588 0.499644 0.608747 0.575918
C20   C     C_R   0.615880 0.486561 0.880317 0.394939
C21   C     C_R   0.431120 0.439775 0.121691 0.393015
C22   C     C_R   0.398425 0.483096 0.883000 0.459576
C23   C     C_R   0.627392 0.431888 0.246084 0.142416
C24   C     C_R   0.637129 0.519051 0.119457 0.460057
C25   C     C_R   0.403014 0.466722 0.942664 0.069329
C26   C     C_R   0.637370 0.505521 0.059727 0.068373
C27   C     C_R   0.517602 0.478099 0.971137 -0.067208
C28   C     C_R   0.525521 0.476567 0.031110 -0.067322
C29   C     C_R   0.624257 0.492540 0.939763 0.009927
C30   C     C_R   0.421052 0.447235 0.062366 0.010152
C31   C     C_R   0.297689 0.440813 0.974779 0.091872
C32   C     C_R   0.744026 0.522487 0.027600 0.092485
C33   C     C_R   0.308496 0.427227 0.033976 -0.117408
C34   C     C_R   0.427118 0.394333 0.759943 0.140477
C35   C     C_R   0.736839 0.512145 0.968261 -0.117064
C36   C     C_3   0.731129 0.261500 0.358550 -0.289131
C37   C     C_3   0.221235 0.419835 0.651734 -0.291685
C38   C     C_3   0.226151 0.488835 0.324615 -0.312604
C39   C     C_3   0.769862 0.622874 0.667805 -0.301574
C40   C     C_3   0.127941 0.173479 0.455886 -0.299538
C41   C     C_3   0.850758 0.835366 0.535021 -0.290371
C42   C     C_3   0.873583 0.238861 0.593053 -0.301891
C43   C     C_3   0.151696 0.773247 0.416833 -0.300368
C44   C     C_3   0.401675 0.068311 0.349433 -0.344483
C45   C     C_R   0.621115 0.443317 0.305797 0.081234
C46   C     C_3   0.299091 0.853750 0.601428 -0.303382
C47   C     C_3   0.590010 0.113427 0.642381 -0.295150
C48   C     C_3   0.688624 0.906245 0.386655 -0.292054
C49   C     C_R   0.417611 0.407448 0.700075 0.088404
C50   C     C_R   0.516364 0.501140 0.329716 0.051879
C51   C     C_R   0.495803 0.499612 0.671408 0.035820
C52   C     C_R   0.424138 0.558462 0.294250 0.061578
Cu1   Cu    Cu3+1 0.500000 0.640660 0.500000 0.999385
Cu2   Cu    Cu3+1 0.500000 0.359340 0.500000 0.989466
H1    H     H_    0.227130 0.405172 0.057693 0.160137
H2    H     H_    0.806596 0.392097 0.233797 0.250758
H3    H     H_    0.398747 0.189993 0.773685 0.210781
H4    H     H_    0.273214 0.290755 0.781050 0.257782
H5    H     H_    0.804822 0.448086 0.330403 0.243531
H6    H     H_    0.800633 0.208503 0.333143 0.101505
H7    H     H_    0.642395 0.208190 0.352587 0.191073
H8    H     H_    0.759316 0.253914 0.404099 0.180772
H9    H     H_    0.298085 0.242571 0.686632 0.231166
H10   H     H_    0.172184 0.454769 0.689712 0.143256
H11   H     H_    0.157793 0.358534 0.624722 0.140800
H12   H     H_    0.819838 0.523223 0.944562 0.162077
H13   H     H_    0.250488 0.511286 0.626589 0.153200
H14   H     H_    0.271853 0.683422 0.294611 0.245759
H15   H     H_    0.139810 0.528524 0.341801 0.125314
H16   H     H_    0.264725 0.411273 0.355239 0.147548
H17   H     H_    0.204752 0.438290 0.283382 0.175441
H18   H     H_    0.659009 0.778712 0.696029 0.237366
H19   H     H_    0.835960 0.703570 0.655020 0.117763
H20   H     H_    0.762733 0.545050 0.633762 0.140882
H21   H     H_    0.805846 0.573538 0.707769 0.167327
H22   H     H_    0.104343 0.182797 0.543119 0.243181
H23   H     H_    0.369491 0.611999 0.208879 0.151685
H24   H     H_    0.155425 0.244206 0.420955 0.138917
H25   H     H_    0.194900 0.087986 0.460049 0.140766
H26   H     H_    0.037228 0.129242 0.444697 0.110748
H27   H     H_    0.904087 0.815931 0.451562 0.239259
H28   H     H_    0.937904 0.862783 0.557166 0.103679
H29   H     H_    0.792965 0.776523 0.564571 0.188710
H30   H     H_    0.801214 0.931797 0.523035 0.130213
H31   H     H_    0.898363 0.167927 0.511260 0.242523
H32   H     H_    0.966900 0.244090 0.612240 0.117514
H33   H     H_    0.816312 0.319825 0.611746 0.147954
H34   H     H_    0.615105 0.667933 0.786182 0.150428
H35   H     H_    0.835583 0.136035 0.603561 0.123116
H36   H     H_    0.092476 0.839530 0.494911 0.241281
H37   H     H_    0.068428 0.759810 0.389523 0.123485
H38   H     H_    0.223053 0.700060 0.404617 0.213243
H39   H     H_    0.187425 0.878971 0.410135 0.116530
H40   H     H_    0.361925 0.201261 0.413486 0.272875
H41   H     H_    0.347777 0.138729 0.320829 0.145821
H42   H     H_    0.344627 0.976270 0.358089 0.125293
H43   H     H_    0.484857 0.041948 0.326275 0.158153
H44   H     H_    0.474580 0.877634 0.634891 0.248410
H45   H     H_    0.120745 0.496218 0.964300 0.225455
H46   H     H_    0.273756 0.790567 0.639047 0.131501
H47   H     H_    0.256697 0.806946 0.563396 0.203062
H48   H     H_    0.262252 0.959545 0.606011 0.097188
H49   H     H_    0.404547 0.123040 0.621530 0.250179
H50   H     H_    0.637384 0.212943 0.649706 0.167852
H51   H     H_    0.655461 0.036337 0.626435 0.116494
H52   H     H_    0.557129 0.075482 0.684070 0.107302
H53   H     H_    0.508955 0.835515 0.370639 0.255898
H54   H     H_    0.744476 0.812269 0.380918 0.170048
H55   H     H_    0.733834 0.972681 0.419128 0.129166
H56   H     H_    0.147468 0.325077 0.958652 0.230754
H57   H     H_    0.684012 0.962782 0.345388 0.106714
H58   H     H_    0.896370 0.637659 0.038618 0.233026
H59   H     H_    0.919034 0.465200 0.043465 0.222592
H60   H     H_    0.715550 0.250385 0.236588 0.223723
N1    N     N_R   0.503920 0.485002 0.852778 -0.382549
N2    N     N_2   0.324840 0.335254 0.668954 -0.506940
N3    N     N_2   0.311428 0.601443 0.316629 -0.543005
N4    N     N_2   0.651586 0.684318 0.676368 -0.505712
N5    N     N_2   0.125012 0.246079 0.509175 -0.480157
N6    N     N_2   0.872315 0.755937 0.484476 -0.482090
N7    N     N_2   0.875664 0.256795 0.532006 -0.487679
N8    N     N_2   0.125086 0.752085 0.476072 -0.509382
N9    N     N_2   0.432682 0.139236 0.401577 -0.493399
N10   N     N_2   0.430393 0.855701 0.596993 -0.454819
N11   N     N_2   0.487638 0.135262 0.602983 -0.439497
N12   N     N_R   0.536235 0.481549 0.149492 -0.382997
N13   N     N_2   0.567610 0.864984 0.403106 -0.457807
N14   N     N_R   0.500000 0.852070 0.500000 -0.222578
N15   N     N_R   0.500000 0.147930 0.500000 -0.238436
N16   N     N_3   0.180037 0.423222 0.947805 -0.549908
N17   N     N_3   0.860796 0.545285 0.054699 -0.552180
N18   N     N_3   0.721765 0.351843 0.221261 -0.564846
N19   N     N_3   0.367195 0.283684 0.789276 -0.578492
N20   N     N_2   0.722623 0.405389 0.341760 -0.522296
O1    O     O_R   0.319640 0.618740 0.500000 -0.486327
O2    O     O_2   0.335804 0.392054 0.151432 -0.516051
O3    O     O_2   0.289960 0.500360 0.855461 -0.447047
O4    O     O_2   0.734955 0.573266 0.147011 -0.444209
O5    O     O_R   0.680360 0.381260 0.500000 -0.473176
O6    O     O_R   0.680360 0.618740 0.500000 -0.465059
O7    O     O_R   0.319640 0.381260 0.500000 -0.475799
O8    O     O_R   0.499960 0.618810 0.417880 -0.484197
O9    O     O_R   0.500040 0.381190 0.582120 -0.453083
O10   O     O_R   0.500040 0.618810 0.582120 -0.456193
O11   O     O_R   0.499960 0.381190 0.417880 -0.496474
O12   O     O_2   0.719089 0.482416 0.850315 -0.512520

loop_
_geom_bond_atom_site_label_1
_geom_bond_atom_site_label_2
_ccdc_geom_bond_type
C25   C31   A    
C38   H16   S    
C26   C32   A    
C19   O10   A    
C23   C45   A    
C27   C29   A    
Cu1   O6    S    
Cu1   O1    S    
C18   O11   A    
H3    N19   S    
C2    N4    S    
C37   N2    S    
Cu1   Cu2   S    
H44   N10   S    
C46   H48   S    
C22   O3    S    
C8    N6    S    
C45   N20   S    
C24   C26   A    
C31   N16   S    
C15   C16   A    
C41   H29   S    
Cu1   O8    S    
C39   H20   S    
C38   N3    S    
C48   H55   S    
C47   H51   S    
C22   C25   A    
C37   H11   S    
C5    N12   S    
C50   C52   A    
C12   O6    A    
H31   N7    S    
C42   H32   S    
C39   H21   S    
C16   N11   S    
C21   O2    S    
C30   C33   A    
C52   N3    S    
Cu2   O9    S    
C38   H15   S    
C41   N6    S    
C14   N9    S    
C24   N12   A    
H36   N8    S    
C14   C17   A    
C46   N10   S    
C36   H8    S    
C48   H57   S    
C47   N11   S    
C20   C29   A    
H4    N19   S    
C46   H47   S    
C40   H25   S    
H22   N5    S    
C15   N10   S    
C32   C35   A    
C7    N5    S    
C18   O8    A    
H27   N6    S    
C4    C6    A    
C17   N13   S    
C35   H12   S    
C49   C51   A    
C41   H30   S    
C43   H37   S    
C6    C34   A    
C2    C4    A    
C44   H42   S    
Cu1   N14   S    
H14   N3    S    
C44   H43   S    
C9    N7    S    
Cu2   O5    S    
C5    C23   A    
C3    C52   A    
C47   H52   S    
Cu2   O7    S    
C40   H26   S    
C12   O5    A    
C33   H1    S    
C16   N15   A    
C9    C11   A    
C43   N8    S    
H2    N18   S    
Cu2   O11   S    
C10   N8    S    
H9    N2    S    
C22   N1    A    
C15   N14   A    
C40   H24   S    
C1    C13   S    
C36   H7    S    
C3    H23   S    
C3    C5    A    
C37   H10   S    
C18   C50   S    
C7    C9    A    
Cu2   N15   S    
C46   H46   S    
C38   H17   S    
C31   C33   A    
C19   O9    A    
C47   H50   S    
H59   N17   S    
H45   N16   S    
H60   N18   S    
C36   H6    S    
C10   C13   A    
C36   N20   S    
C20   N1    A    
C11   C12   S    
C17   N14   A    
C4    H34   S    
C25   C27   A    
C39   N4    S    
C21   C30   A    
C29   C35   A    
C44   N9    S    
C26   C28   A    
C43   H38   S    
C34   N19   S    
Cu1   O10   S    
C24   O4    S    
C42   H35   S    
C28   C30   A    
H53   N13   S    
C44   H41   S    
H40   N9    S    
C48   N13   S    
C48   H54   S    
C45   C50   A    
C8    C11   A    
C41   H28   S    
C37   H13   S    
C43   H39   S    
C23   N18   S    
H56   N16   S    
C20   O12   S    
C39   H19   S    
H58   N17   S    
H49   N11   S    
C6    N1    S    
C1    O7    A    
C2    C51   A    
C19   C51   S    
C7    C13   A    
C49   N2    S    
C34   C49   A    
C8    C10   A    
C40   N5    S    
H18   N4    S    
C27   C28   A    
C42   H33   S    
C21   N12   A    
C1    O1    A    
C14   N15   A    
C32   N17   S    
C42   N7    S    
H5    N20   S    
