data_mof_unit_5599.cif
_audit_creation_date              2013-03-05T15:45:11-0500
_audit_creation_method            fapswitch 2.2
_symmetry_space_group_name_H-M    P1
_symmetry_Int_Tables_number       1
_space_group_crystal_system       triclinic
_cell_length_a                    24.853517
_cell_length_b                    17.211935
_cell_length_c                    15.569094
_cell_angle_alpha                 90.177763
_cell_angle_beta                  50.560875
_cell_angle_gamma                 89.888057
_cell_volume                      5143.50548172

loop_
_atom_site_label
_atom_site_type_symbol
_atom_site_description
_atom_site_fract_x
_atom_site_fract_y
_atom_site_fract_z
_atom_type_partial_charge
C1    C     C_R   0.347085 0.138434 0.765378 -0.140807
C2    C     C_R   0.665094 0.886561 0.201486 -0.146251
C3    C     C_R   0.641239 0.147617 0.260785 -0.164966
C4    C     C_R   0.335058 0.886764 0.797975 -0.142458
C5    C     C_R   0.847113 0.638492 0.765418 -0.140593
C6    C     C_R   0.164821 0.385801 0.202103 -0.145428
C7    C     C_R   0.153024 0.637717 0.234077 -0.148275
C8    C     C_R   0.835282 0.387919 0.798775 -0.190134
H1    H     H_    0.298722 0.151089 0.781926 0.186977
H2    H     H_    0.717508 0.885636 0.173563 0.168473
H3    H     H_    0.686017 0.165238 0.252344 0.171669
H4    H     H_    0.282737 0.885719 0.825527 0.164507
H5    H     H_    0.798723 0.651220 0.782069 0.186275
H6    H     H_    0.217302 0.384938 0.173887 0.167721
H7    H     H_    0.201534 0.650025 0.217080 0.185631
H8    H     H_    0.782943 0.386034 0.826468 0.147870
N1    N     N_R   0.388930 0.078160 0.705470 -0.070905
N2    N     N_R   0.611070 0.921840 0.294530 -0.069428
N3    N     N_R   0.611070 0.078160 0.294530 -0.066063
N4    N     N_R   0.388930 0.921840 0.705470 -0.068074
N5    N     N_R   0.888930 0.578160 0.705470 -0.069331
N6    N     N_R   0.111070 0.421840 0.294530 -0.069310
N7    N     N_R   0.111070 0.578160 0.294530 -0.070718
N8    N     N_R   0.888930 0.421840 0.705470 -0.064521
C9    C     C_R   0.613334 0.104516 0.592287 0.049865
C10   C     C_R   0.415188 0.854437 0.407299 0.035420
C11   C     C_R   0.385680 0.105692 0.409276 0.020916
C12   C     C_R   0.584392 0.853740 0.591415 0.026060
C13   C     C_R   0.113595 0.607279 0.591151 0.006299
C14   C     C_R   0.910341 0.356200 0.408520 0.002650
C15   C     C_R   0.886142 0.606645 0.409034 -0.010047
C16   C     C_R   0.084333 0.353722 0.591472 0.031126
H9    H     H_    0.594922 0.101673 0.676196 0.186490
H10   H     H_    0.444329 0.836716 0.321888 0.173046
H11   H     H_    0.403432 0.102991 0.325693 0.219815
H12   H     H_    0.554873 0.835403 0.676373 0.173375
H13   H     H_    0.095968 0.605263 0.674606 0.218898
H14   H     H_    0.935481 0.339755 0.323839 0.178859
H15   H     H_    0.903949 0.604344 0.325455 0.217773
H16   H     H_    0.054610 0.335354 0.676508 0.171450
N9    N     N_R   0.580500 0.077840 0.556650 -0.085183
N10   N     N_R   0.419500 0.922160 0.443350 -0.061701
N11   N     N_R   0.419500 0.077840 0.443350 -0.087800
N12   N     N_R   0.580500 0.922160 0.556650 -0.062904
N13   N     N_R   0.080500 0.577840 0.556650 -0.087666
N14   N     N_R   0.919500 0.422160 0.443350 -0.066918
N15   N     N_R   0.919500 0.577840 0.443350 -0.087344
N16   N     N_R   0.080500 0.422160 0.556650 -0.057904
C17   C     C_R   0.687252 0.105211 0.407957 -0.078078
C18   C     C_R   0.335998 0.857684 0.592251 -0.066916
C19   C     C_R   0.313118 0.106544 0.593757 -0.029835
C20   C     C_R   0.664061 0.857241 0.406807 -0.043511
C21   C     C_R   0.186308 0.607580 0.406478 -0.030703
C22   C     C_R   0.836881 0.357816 0.593970 -0.023274
C23   C     C_R   0.813325 0.607158 0.593668 -0.009526
C24   C     C_R   0.164077 0.357232 0.406869 -0.056873
H17   H     H_    0.734892 0.105873 0.322537 0.164426
H18   H     H_    0.290958 0.845537 0.677107 0.160736
H19   H     H_    0.265734 0.105921 0.679411 0.151663
H20   H     H_    0.709274 0.844995 0.321831 0.161346
H21   H     H_    0.233730 0.606991 0.320850 0.152024
H22   H     H_    0.793703 0.345288 0.679753 0.144764
H23   H     H_    0.765858 0.606592 0.679248 0.155401
H24   H     H_    0.209310 0.344962 0.321924 0.161461
N17   N     N_R   0.626210 0.077590 0.443410 -0.076642
N18   N     N_R   0.373790 0.922410 0.556590 -0.080398
N19   N     N_R   0.373790 0.077590 0.556590 -0.080610
N20   N     N_R   0.626210 0.922410 0.443410 -0.077468
N21   N     N_R   0.126210 0.577590 0.443410 -0.081288
N22   N     N_R   0.873790 0.422410 0.556590 -0.070585
N23   N     N_R   0.873790 0.577590 0.556590 -0.082982
N24   N     N_R   0.126210 0.422410 0.443410 -0.079634
C25   C     C_R   0.554387 0.146083 0.253815 0.334120
C26   C     C_R   0.423002 0.890645 0.801983 0.302262
C27   C     C_R   0.434719 0.137501 0.770495 0.369569
C28   C     C_R   0.576989 0.890523 0.197835 0.297328
C29   C     C_R   0.065178 0.637057 0.229514 0.361376
C30   C     C_R   0.923644 0.392315 0.801920 0.312039
C31   C     C_R   0.934848 0.637585 0.770254 0.355225
C32   C     C_R   0.076402 0.388986 0.199038 0.329756
N25   N     N_R   0.554800 0.077270 0.294580 -0.090417
N26   N     N_R   0.445200 0.922730 0.705420 -0.102592
N27   N     N_R   0.445200 0.077270 0.705420 -0.103018
N28   N     N_R   0.554800 0.922730 0.294580 -0.101359
N29   N     N_R   0.054800 0.577270 0.294580 -0.101969
N30   N     N_R   0.945200 0.422730 0.705420 -0.104598
N31   N     N_R   0.945200 0.577270 0.705420 -0.102281
N32   N     N_R   0.054800 0.422730 0.294580 -0.099120
C33   C     C_R   0.375009 0.177921 0.806445 -0.138475
C34   C     C_R   0.645072 0.864324 0.139930 -0.119909
C35   C     C_R   0.606286 0.192000 0.235959 -0.136328
C36   C     C_R   0.355099 0.864489 0.859386 -0.117217
C37   C     C_R   0.875170 0.678033 0.806271 -0.142665
C38   C     C_R   0.144440 0.362605 0.141356 -0.117107
C39   C     C_R   0.125005 0.676965 0.193016 -0.139061
C40   C     C_R   0.856073 0.366840 0.859539 -0.121872
C41   C     C_R   0.679365 0.123210 0.500736 0.282118
C42   C     C_R   0.361389 0.814327 0.498690 0.266108
C43   C     C_R   0.319915 0.125653 0.502460 0.265321
C44   C     C_R   0.638442 0.813471 0.499595 0.258851
C45   C     C_R   0.178955 0.627855 0.498096 0.269798
C46   C     C_R   0.858158 0.315763 0.502244 0.258757
C47   C     C_R   0.820447 0.626801 0.502209 0.271683
C48   C     C_R   0.138402 0.313432 0.499679 0.260375
Ni1   Ni    Ni4+2 0.382710 0.000000 0.629850 0.231603
Ni2   Ni    Ni4+2 0.617290 0.000000 0.370150 0.239740
Ni3   Ni    Ni4+2 0.882710 0.500000 0.629850 0.244109
Ni4   Ni    Ni4+2 0.117290 0.500000 0.370150 0.230457
Ni5   Ni    Ni4+2 0.513020 0.000000 0.629850 0.328801
Ni6   Ni    Ni4+2 0.486980 0.000000 0.370150 0.337395
Ni7   Ni    Ni4+2 0.013020 0.500000 0.629850 0.333555
Ni8   Ni    Ni4+2 0.986980 0.500000 0.370150 0.324549
C49   C     C_R   0.239139 0.231988 0.576245 0.656420
C50   C     C_R   0.708252 0.694023 0.436870 0.664276
C51   C     C_R   0.795515 0.144915 0.443620 0.659873
C52   C     C_R   0.291981 0.695376 0.561547 0.663357
C53   C     C_R   0.739780 0.733105 0.575585 0.647459
C54   C     C_R   0.208052 0.193761 0.436744 0.660133
C55   C     C_R   0.259043 0.733976 0.424747 0.648371
C56   C     C_R   0.744019 0.284878 0.563495 0.633904
C57   C     C_R   0.695313 0.779078 0.575052 0.645628
C58   C     C_R   0.253507 0.147117 0.436830 0.653598
C59   C     C_R   0.304042 0.779587 0.424124 0.642906
C60   C     C_R   0.700269 0.237252 0.563478 0.652825
C61   C     C_R   0.194836 0.278231 0.575623 0.644889
C62   C     C_R   0.753892 0.647693 0.436827 0.661412
C63   C     C_R   0.839872 0.192859 0.444442 0.646050
C64   C     C_R   0.245956 0.649328 0.562564 0.659560
C65   C     C_R   0.679339 0.759561 0.505931 -0.589546
C66   C     C_R   0.268936 0.167083 0.506343 -0.593247
C67   C     C_R   0.320641 0.760355 0.492394 -0.596892
C68   C     C_R   0.725945 0.167584 0.503926 -0.593287
C69   C     C_R   0.179100 0.259178 0.506078 -0.597176
C70   C     C_R   0.769513 0.668095 0.505960 -0.583280
C71   C     C_R   0.813550 0.262302 0.505128 -0.582117
C72   C     C_R   0.229625 0.669478 0.494390 -0.594638
H25   H     H_    0.223457 0.898141 0.023154 0.179555
H26   H     H_    0.728621 0.208232 0.061649 0.165436
H27   H     H_    0.775554 0.900588 0.975983 0.173906
H28   H     H_    0.316364 0.297925 0.791546 0.210644
H29   H     H_    0.721667 0.380753 0.017526 0.189682
H30   H     H_    0.184691 0.796403 0.206242 0.208859
H31   H     H_    0.274153 0.400542 0.976105 0.178398
H32   H     H_    0.816679 0.798100 0.791195 0.204957
C73   C     C_2   0.633303 0.264767 0.174907 0.409218
C74   C     C_2   0.309510 0.827111 0.969186 0.380987
C75   C     C_2   0.341569 0.244096 0.883994 0.346116
C76   C     C_2   0.691034 0.827829 0.029059 0.387484
C77   C     C_2   0.158198 0.742598 0.115361 0.349171
C78   C     C_2   0.813596 0.324099 0.963699 0.372912
C79   C     C_2   0.842102 0.744467 0.883418 0.357712
C80   C     C_2   0.190387 0.325880 0.030701 0.374875
C81   C     C_2   0.701396 0.263957 0.088197 -0.245322
C82   C     C_2   0.241988 0.848844 0.041469 -0.171274
C83   C     C_2   0.310873 0.299163 0.866594 -0.172644
C84   C     C_2   0.757961 0.850819 0.956777 -0.201864
C85   C     C_2   0.189366 0.797528 0.131942 -0.186410
C86   C     C_2   0.744237 0.331495 0.027889 -0.177483
C87   C     C_2   0.811478 0.799599 0.865976 -0.196276
C88   C     C_2   0.256954 0.349936 0.957615 -0.173644
N33   N     N_R   0.523109 0.159048 0.203495 0.212444
O1    O     O_R   0.502365 0.228307 0.202862 -0.313891
O2    O     O_R   0.525892 0.104848 0.142448 -0.294821
N34   N     N_R   0.454944 0.906105 0.851427 0.248155
O3    O     O_R   0.425744 0.883915 0.952152 -0.238917
O4    O     O_R   0.510646 0.948580 0.799315 -0.327985
N35   N     N_R   0.472992 0.151642 0.808636 0.228692
O5    O     O_R   0.490192 0.222367 0.811410 -0.264187
O6    O     O_R   0.476240 0.098029 0.863775 -0.266887
N36   N     N_R   0.544940 0.906561 0.148736 0.243874
O7    O     O_R   0.572588 0.881620 0.049470 -0.254042
O8    O     O_R   0.490620 0.951841 0.199764 -0.312237
N37   N     N_R   0.025762 0.652215 0.193672 0.223694
O9    O     O_R   0.006437 0.723008 0.195994 -0.326116
O10   O     O_R   0.022967 0.599866 0.136328 -0.245273
N38   N     N_R   0.955439 0.410206 0.851048 0.251913
O11   O     O_R   0.923668 0.395025 0.955070 -0.244729
O12   O     O_R   0.012628 0.450294 0.795798 -0.312402
N39   N     N_R   0.973693 0.652284 0.807231 0.223707
O13   O     O_R   0.992490 0.722910 0.806558 -0.333778
O14   O     O_R   0.976852 0.599473 0.863362 -0.245294
N40   N     N_R   0.044017 0.403527 0.150203 0.241145
O15   O     O_R   0.070195 0.375350 0.053051 -0.241864
O16   O     O_R   0.990975 0.450541 0.198970 -0.344601
F1    F     F_    0.256974 0.254094 0.639154 -0.597178
F2    F     F_    0.693300 0.676352 0.369005 -0.581816
F3    F     F_    0.819748 0.077272 0.384971 -0.593452
F4    F     F_    0.307562 0.677981 0.628597 -0.582424
F5    F     F_    0.757772 0.755476 0.638194 -0.608406
F6    F     F_    0.193330 0.176509 0.368477 -0.582971
F7    F     F_    0.240415 0.756093 0.362999 -0.603531
F8    F     F_    0.719330 0.355080 0.615290 -0.606847
F9    F     F_    0.672143 0.845794 0.636131 -0.585513
F10   F     F_    0.282553 0.083548 0.369588 -0.563608
F11   F     F_    0.327042 0.845776 0.362951 -0.568615
F12   F     F_    0.633810 0.261378 0.616039 -0.583094
F13   F     F_    0.171653 0.344812 0.636997 -0.565059
F14   F     F_    0.782889 0.583968 0.369898 -0.575970
F15   F     F_    0.907759 0.172505 0.386290 -0.587916
F16   F     F_    0.217387 0.586040 0.629349 -0.561032
N41   N     N_R   0.336024 0.761925 0.990640 0.263794
O17   O     O_R   0.388982 0.722258 0.907991 -0.326555
O18   O     O_R   0.313419 0.747968 0.090763 -0.309866
N42   N     N_R   0.590199 0.333476 0.216340 0.276672
O19   O     O_R   0.597327 0.384433 0.148275 -0.313767
O20   O     O_R   0.536200 0.338530 0.321373 -0.298172
N43   N     N_R   0.665798 0.762069 0.006281 0.265050
O21   O     O_R   0.614123 0.721343 0.088068 -0.318453
O22   O     O_R   0.687922 0.748759 0.906150 -0.311406
N44   N     N_R   0.334964 0.243807 0.982929 0.266097
O23   O     O_R   0.329605 0.178352 0.029362 -0.263350
O24   O     O_R   0.339676 0.308112 0.021876 -0.347111
N45   N     N_R   0.845574 0.264665 0.983673 0.261942
O25   O     O_R   0.903829 0.232095 0.900811 -0.347173
O26   O     O_R   0.819703 0.247709 0.084805 -0.337003
N46   N     N_R   0.163710 0.741967 0.017410 0.268412
O27   O     O_R   0.168516 0.676312 0.971264 -0.261122
O28   O     O_R   0.158866 0.806202 0.978834 -0.346532
N47   N     N_R   0.165685 0.259035 0.008833 0.262582
O29   O     O_R   0.114733 0.217942 0.091149 -0.293726
O30   O     O_R   0.187341 0.245082 0.909112 -0.312239
N48   N     N_R   0.835940 0.744455 0.981959 0.268539
O31   O     O_R   0.830557 0.679128 0.028660 -0.259671
O32   O     O_R   0.841081 0.808840 0.020246 -0.348428

loop_
_geom_bond_atom_site_label_1
_geom_bond_atom_site_label_2
_geom_bond_distance
_ccdc_geom_bond_type
N5    N31   1.398069 A    
N14   Ni8   1.869868 S    
C2    N2    1.337965 A    
C16   N16   1.326550 A    
N41   O17   1.301352 A    
C8    C40   1.384250 A    
N29   Ni8   1.868972 S    
C21   N21   1.319745 A    
C28   N28   1.348495 A    
C61   F13   1.359948 S    
C31   N31   1.351050 A    
N33   O1    1.300404 A    
C17   H17   1.081781 S    
H31   C88   1.086522 S    
N35   O6    1.299102 A    
N45   O25   1.301549 A    
C52   F4    1.358085 S    
C11   C43   1.369783 A    
C17   N17   1.331466 A    
N16   N24   1.361724 A    
N34   O3    1.300244 A    
C15   N15   1.334689 A    
C47   C70   1.418911 S    
C55   F7    1.360349 S    
C31   C37   1.391367 A    
C74   N41   1.443529 S    
N4    N26   1.398129 A    
N22   Ni3   1.856491 S    
C56   F8    1.359862 S    
N12   N20   1.361724 A    
N35   O5    1.300617 A    
C49   F1    1.360351 S    
C50   C62   1.384945 A    
C7    N7    1.336858 A    
C80   C88   1.347997 D    
C49   C61   1.362404 A    
N36   O7    1.300176 A    
C38   C80   1.470554 S    
N15   Ni8   1.860079 S    
C6    N6    1.337521 A    
C80   N47   1.443070 S    
C23   C47   1.362444 A    
C51   C63   1.384894 A    
C60   C68   1.393954 A    
C3    C35   1.383281 A    
C54   C58   1.385331 A    
C78   N45   1.444859 S    
C25   N25   1.348570 A    
C81   C86   1.451913 S    
C2    C34   1.384554 A    
C53   C57   1.362283 A    
N40   O15   1.300103 A    
C25   N33   1.428994 S    
C20   H20   1.079799 S    
C76   N43   1.443297 S    
C46   C71   1.420878 S    
C21   H21   1.081693 S    
C10   H10   1.076505 S    
N24   Ni4   1.860952 S    
C30   C40   1.381491 A    
C6    C38   1.384773 A    
C23   H23   1.081744 S    
C42   C67   1.423870 S    
N2    N28   1.398065 A    
C64   F16   1.357919 S    
C16   C48   1.370890 A    
C3    N3    1.332030 A    
C39   C77   1.470836 S    
N11   Ni6   1.860079 S    
C32   N40   1.437518 S    
C4    H4    1.080154 S    
C75   N44   1.441669 S    
C75   C83   1.347251 D    
C5    H5    1.078934 S    
C20   N20   1.333678 A    
C73   C81   1.335591 D    
N12   Ni5   1.860082 S    
C62   F14   1.357898 S    
N45   O26   1.301955 A    
C29   N29   1.351752 A    
C8    H8    1.080155 S    
N9    Ni5   1.869868 S    
C30   N38   1.439375 S    
N41   O18   1.301319 A    
C59   F11   1.359877 S    
N20   Ni2   1.860952 S    
C26   N26   1.349857 A    
C53   C70   1.394515 A    
C62   C70   1.400603 A    
C57   F9    1.359926 S    
N33   O2    1.299675 A    
N21   Ni4   1.856488 S    
C14   N14   1.337468 A    
C51   C68   1.398559 A    
N37   O10   1.299159 A    
C19   C43   1.362043 A    
C1    C33   1.383939 A    
C18   C42   1.378592 A    
C49   C66   1.395025 A    
C36   C74   1.472684 S    
N43   O21   1.301349 A    
C18   H18   1.079745 S    
N26   Ni5   1.868970 S    
C1    H1    1.078788 S    
N46   O27   1.301097 A    
C24   C48   1.378631 A    
C82   C85   1.465050 S    
C48   C69   1.424775 S    
C21   C45   1.362085 A    
N47   O29   1.301357 A    
C44   C65   1.424119 S    
N19   Ni1   1.860952 S    
N9    N17   1.361675 A    
C7    H7    1.079099 S    
C22   H22   1.078688 S    
C24   N24   1.333999 A    
N37   O9    1.300794 A    
N13   N21   1.361675 A    
C12   N12   1.326343 A    
N28   Ni6   1.859065 S    
N8    N30   1.398129 A    
C13   N13   1.335349 A    
N1    N27   1.398069 A    
C5    N5    1.336767 A    
C79   C87   1.347173 D    
N48   O32   1.301150 A    
C74   C82   1.348362 D    
N2    Ni2   1.855273 S    
C26   C36   1.392371 A    
N1    Ni1   1.855269 S    
N47   O30   1.301280 A    
C51   F3    1.357919 S    
C76   C84   1.347920 D    
C22   N22   1.321356 A    
C40   C78   1.456314 S    
C60   F12   1.359509 S    
C9    H9    1.076758 S    
C24   H24   1.079742 S    
C13   C45   1.370576 A    
N8    Ni3   1.860124 S    
C19   N19   1.320473 A    
N25   Ni6   1.868972 S    
H32   C87   1.086969 S    
C28   N36   1.438401 S    
C18   N18   1.333032 A    
C12   C44   1.370748 A    
C25   C35   1.383994 A    
N5    Ni3   1.855269 S    
C54   C69   1.397572 A    
C53   F5    1.360354 S    
C14   C46   1.378811 A    
C10   C42   1.371686 A    
H26   C81   1.090091 S    
C9    C41   1.364318 A    
N38   O11   1.301265 A    
C34   C76   1.471171 S    
N42   O20   1.301213 A    
N6    N32   1.398065 A    
C4    C36   1.384111 A    
C52   C64   1.384747 A    
C50   C65   1.397353 A    
C31   N39   1.426089 S    
C37   C79   1.469433 S    
C19   H19   1.081751 S    
N15   N23   1.361724 A    
N18   Ni1   1.856491 S    
C9    N9    1.326552 A    
C2    H2    1.080070 S    
N17   Ni2   1.856488 S    
C35   C73   1.456969 S    
C10   N10   1.325939 A    
C28   C34   1.391281 A    
N4    Ni1   1.860124 S    
C45   C72   1.419158 S    
C61   C69   1.403273 A    
C33   C75   1.469244 S    
C29   N37   1.426024 S    
C78   C86   1.340193 D    
C43   C66   1.419997 S    
C59   C67   1.402947 A    
C83   C88   1.463797 S    
C1    N1    1.336104 A    
C22   C46   1.369523 A    
C84   C87   1.464083 S    
N10   N18   1.361675 A    
C41   C68   1.415027 S    
C57   C65   1.403461 A    
C63   F15   1.357981 S    
C58   F10   1.357904 S    
C73   N42   1.440379 S    
C5    C37   1.384423 A    
N13   Ni7   1.869868 S    
C4    N4    1.337900 A    
C55   C59   1.362683 A    
C7    C39   1.384348 A    
N27   Ni5   1.859061 S    
N44   O24   1.301142 A    
C55   C72   1.395000 A    
C50   F2    1.358048 S    
C79   N48   1.441760 S    
C52   C67   1.397726 A    
C56   C71   1.401091 A    
C11   H11   1.077177 S    
C64   C72   1.400248 A    
N30   Ni7   1.868970 S    
N10   Ni6   1.869868 S    
C77   N46   1.441862 S    
C6    H6    1.079974 S    
C32   N32   1.347957 A    
C26   N34   1.438612 S    
C54   F6    1.358037 S    
C30   N30   1.342257 A    
N23   Ni3   1.860952 S    
N36   O8    1.300214 A    
H27   C84   1.086449 S    
C15   H15   1.076390 S    
N6    Ni4   1.855273 S    
N7    Ni4   1.860125 S    
N34   O4    1.299961 A    
C8    N8    1.332799 A    
C29   C39   1.392312 A    
H25   C82   1.086376 S    
C27   N27   1.351367 A    
C16   H16   1.076736 S    
N48   O31   1.301116 A    
C63   C71   1.397813 A    
N40   O16   1.299801 A    
N14   N22   1.361675 A    
C3    H3    1.078678 S    
C56   C60   1.363145 A    
C27   C33   1.392032 A    
H28   C83   1.086994 S    
C17   C41   1.363148 A    
N39   O13   1.300815 A    
N32   Ni8   1.859065 S    
N3    Ni2   1.860125 S    
C11   N11   1.335781 A    
H29   C86   1.083265 S    
N16   Ni7   1.860082 S    
N31   Ni7   1.859061 S    
N42   O19   1.300573 A    
C12   H12   1.076112 S    
N11   N19   1.361724 A    
N44   O23   1.301119 A    
N7    N29   1.398124 A    
C13   H13   1.076324 S    
N43   O22   1.301302 A    
C20   C44   1.378371 A    
C27   N35   1.426333 S    
H30   C85   1.086928 S    
C14   H14   1.076609 S    
C77   C85   1.347594 D    
N3    N25   1.398124 A    
C32   C38   1.391836 A    
C58   C66   1.400680 A    
C23   N23   1.320443 A    
N46   O28   1.301170 A    
C15   C47   1.369679 A    
N38   O12   1.300155 A    
N39   O14   1.299197 A    
