data_mof_unit_9275.cif
_audit_creation_date              2012-12-10T20:48:48-0500
_audit_creation_method            fapswitch 2.2
_symmetry_space_group_name_H-M    P1
_symmetry_Int_Tables_number       1
_space_group_crystal_system       triclinic
_cell_length_a                    15.701664
_cell_length_b                    8.941459
_cell_length_c                    8.120291
_cell_angle_alpha                 89.968096
_cell_angle_beta                  88.645198
_cell_angle_gamma                 90.081369
_cell_volume                      1139.73458055

loop_
_atom_site_label
_atom_site_type_symbol
_atom_type_description
_atom_site_fract_x
_atom_site_fract_y
_atom_site_fract_z
_atom_type_partial_charge
C1    C     C_R   0.500018 0.218008 0.500028 0.931822
C2    C     C_3   0.049231 0.424692 0.385290 -0.430335
C3    C     C_3   0.945293 0.514039 0.658744 -0.457336
C4    C     C_3   0.954037 0.440340 0.361096 -0.448763
C5    C     C_1   0.750896 0.518920 0.491647 -0.203220
C6    C     C_1   0.248853 0.513811 0.506504 -0.201232
C7    C     C_3   0.082712 0.551104 0.499483 0.311689
C8    C     C_3   0.917188 0.558400 0.481882 0.300183
C9    C     C_3   0.950697 0.724464 0.434645 0.208822
C10   C     C_3   0.057083 0.718937 0.444971 0.187567
C11   C     C_3   0.093722 0.830172 0.582819 -0.429909
C12   C     C_1   0.825637 0.538834 0.484204 -0.101819
C13   C     C_3   0.124821 0.989347 0.532611 -0.359382
C14   C     C_3   0.125721 0.094992 0.680306 -0.918254
C15   C     C_3   0.109455 0.765298 0.280411 -0.402315
C16   C     C_3   0.128043 0.656389 0.136792 -0.382126
C17   C     C_3   0.171925 0.738454 0.993277 -0.927266
C18   C     C_3   0.903100 0.835421 0.562138 -0.374543
C19   C     C_3   0.896153 0.003404 0.520280 -0.375613
C20   C     C_3   0.847367 0.087314 0.656571 -0.915943
C21   C     C_3   0.922629 0.771558 0.254932 -0.389890
C22   C     C_3   0.826170 0.783371 0.216864 -0.350269
C23   C     C_1   0.173922 0.530210 0.506767 -0.129551
C24   C     C_3   0.796068 0.663284 0.097390 -0.835819
C25   C     C_R   0.337637 0.499818 0.501968 0.907757
C26   C     C_R   0.662355 0.500650 0.497916 0.906017
C27   C     C_1   0.500067 0.934797 0.499951 -0.199771
C28   C     C_1   0.500054 0.065162 0.500038 -0.197073
C29   C     C_R   0.500052 0.781961 0.499966 0.929881
C30   C     C_3   0.042360 0.517195 0.671517 -0.485302
H1    H     H_    0.923158 0.398822 0.688783 0.199019
H2    H     H_    0.164061 0.046585 0.780287 0.269124
H3    H     H_    0.155467 0.202748 0.642842 0.253038
H4    H     H_    0.191552 0.983559 0.484174 0.215607
H5    H     H_    0.087241 0.039173 0.433458 0.201738
H6    H     H_    0.052494 0.838333 0.693028 0.206809
H7    H     H_    0.151762 0.780365 0.634882 0.197984
H8    H     H_    0.128177 0.823173 0.942799 0.257680
H9    H     H_    0.230761 0.795140 0.034253 0.275126
H10   H     H_    0.190265 0.657387 0.895276 0.260149
H11   H     H_    0.174108 0.570123 0.175664 0.243453
H12   H     H_    0.923636 0.329180 0.383427 0.181381
H13   H     H_    0.070262 0.601723 0.090413 0.213978
H14   H     H_    0.084209 0.870501 0.229365 0.189851
H15   H     H_    0.175203 0.793939 0.316908 0.212630
H16   H     H_    0.784731 0.033429 0.683033 0.268760
H17   H     H_    0.884872 0.089589 0.770844 0.259074
H18   H     H_    0.835158 0.203659 0.616387 0.250222
H19   H     H_    0.958781 0.055774 0.504771 0.239232
H20   H     H_    0.861076 0.020775 0.405205 0.218047
H21   H     H_    0.835881 0.800073 0.578035 0.193386
H22   H     H_    0.924544 0.823194 0.689488 0.180906
H23   H     H_    0.064348 0.407209 0.718165 0.194435
H24   H     H_    0.830228 0.675280 0.976987 0.235918
H25   H     H_    0.806925 0.549487 0.146418 0.264360
H26   H     H_    0.726801 0.676924 0.077217 0.260192
H27   H     H_    0.784527 0.783212 0.328249 0.229139
H28   H     H_    0.814575 0.892968 0.156456 0.200232
H29   H     H_    0.948923 0.884464 0.229344 0.157963
H30   H     H_    0.952878 0.700848 0.160077 0.202899
H31   H     H_    0.060303 0.314598 0.444945 0.191431
H32   H     H_    0.082675 0.411214 0.265736 0.161009
H33   H     H_    0.060861 0.598586 0.766500 0.181074
H34   H     H_    0.941442 0.467640 0.231048 0.173271
H35   H     H_    0.915837 0.586121 0.755164 0.160805
H36   H     H_    0.059859 0.116005 0.727412 0.262134
N1    N     N_1   0.500000 0.500030 0.073640 -0.035636
N2    N     N_1   0.500000 0.500030 0.926360 -0.034563
O1    O     O_R   0.500000 0.285340 0.636850 -0.614506
O2    O     O_R   0.500000 0.285340 0.363150 -0.615845
O3    O     O_R   0.377140 0.500000 0.636930 -0.614824
O4    O     O_R   0.377140 0.500000 0.363070 -0.614989
O5    O     O_R   0.622860 0.500000 0.636930 -0.616051
O6    O     O_R   0.622860 0.500000 0.363070 -0.615824
O7    O     O_R   0.500000 0.714650 0.636900 -0.615218
O8    O     O_R   0.500000 0.714650 0.363100 -0.616610
Zn1   Zn    Zn3+2 0.500000 0.499990 0.682780 0.983719
Zn2   Zn    Zn3+2 0.500000 0.499990 0.317220 0.980284

loop_
_geom_bond_atom_site_label_1
_geom_bond_atom_site_label_2
_ccdc_geom_bond_type
C22   H28   S    
C7    C10   S    
C2    C4    S    
N1    N2    T    
C13   H5    S    
C11   H7    S    
C25   O3    A    
C18   H21   S    
C24   H26   S    
C11   C13   S    
C9    C10   S    
C19   H19   S    
O1    Zn1   S    
C19   C20   S    
C19   H20   S    
C2    H31   S    
C4    C8    S    
C8    C12   S    
C22   H27   S    
C1    O1    A    
C14   H36   S    
C18   H22   S    
C13   H4    S    
C25   O4    A    
C3    H35   S    
C13   C14   S    
C24   H25   S    
C3    H1    S    
C1    C28   S    
O7    Zn1   S    
C16   H13   S    
C9    C21   S    
C4    H34   S    
C20   H18   S    
N1    Zn2   S    
C4    H12   S    
C14   H3    S    
C7    C23   S    
C6    C23   T    
C3    C30   S    
C30   H33   S    
C11   H6    S    
C26   O6    A    
O8    Zn2   S    
C15   H14   S    
C21   H29   S    
C17   H8    S    
C17   H9    S    
N2    Zn1   S    
C30   H23   S    
C22   C24   S    
C3    C8    S    
C20   H17   S    
O2    Zn2   S    
C10   C11   S    
C15   H15   S    
C24   H24   S    
C5    C26   S    
C6    C25   S    
C2    H32   S    
C9    C18   S    
O3    Zn1   S    
C26   O5    A    
C27   C29   S    
C21   H30   S    
C7    C30   S    
C18   C19   S    
O6    Zn2   S    
C27   C28   T    
C29   O8    A    
O5    Zn1   S    
C16   C17   S    
O4    Zn2   S    
C2    C7    S    
C10   C15   S    
C21   C22   S    
C16   H11   S    
C15   C16   S    
C20   H16   S    
C1    O2    A    
C29   O7    A    
C14   H2    S    
C8    C9    S    
C17   H10   S    
C5    C12   T    
