data_mof_unit_38129.cif
_audit_creation_date              2012-12-11T14:08:31-0500
_audit_creation_method            fapswitch 2.2
_symmetry_space_group_name_H-M    P1
_symmetry_Int_Tables_number       1
_space_group_crystal_system       triclinic
_cell_length_a                    11.055413
_cell_length_b                    11.112429
_cell_length_c                    18.801588
_cell_angle_alpha                 89.027034
_cell_angle_beta                  88.667222
_cell_angle_gamma                 59.771701
_cell_volume                      1995.16972669

loop_
_atom_site_label
_atom_site_type_symbol
_atom_type_description
_atom_site_fract_x
_atom_site_fract_y
_atom_site_fract_z
_atom_type_partial_charge
C1    C     C_R   0.238247 0.643453 0.609070 0.536122
C2    C     C_2   0.795755 0.090458 0.698684 -0.055195
C3    C     C_2   0.180818 0.658178 0.681439 -0.130542
C4    C     C_R   0.653934 0.625637 0.599407 0.528950
C5    C     C_2   0.183963 0.671685 0.837553 -0.092200
C6    C     C_2   0.178206 0.572482 0.801612 -0.104906
C7    C     C_2   0.206856 0.548510 0.724859 -0.034883
C8    C     C_2   0.649411 0.653759 0.315435 -0.045977
C9    C     C_2   0.630830 0.646342 0.152181 -0.110122
C10   C     C_2   0.717974 0.537155 0.193556 0.006487
C11   C     C_2   0.745163 0.554839 0.270039 -0.011354
C12   C     C_3   0.717260 0.543585 0.796988 -0.090584
C13   C     C_2   0.658340 0.154055 0.329877 -0.149459
C14   C     C_2   0.694572 0.038878 0.188352 -0.141839
C15   C     C_2   0.576371 0.081877 0.228934 -0.038797
C16   C     C_R   0.629801 0.221894 0.599432 0.557601
C17   C     C_2   0.590107 0.090441 0.306674 -0.007006
C18   C     C_2   0.179601 0.667321 0.329808 0.026433
C19   C     C_2   0.193846 0.637298 0.168353 -0.093961
C20   C     C_2   0.241287 0.703261 0.208037 -0.026100
C21   C     C_2   0.275201 0.657797 0.280925 -0.139012
C22   C     C_R   0.704803 0.100417 0.897356 0.596519
C23   C     C_3   0.715152 0.684766 0.807308 -0.008141
C24   C     C_R   0.744591 0.701918 0.882813 0.516276
C25   C     C_R   0.116389 0.709036 0.907165 0.555103
C26   C     C_R   0.703011 0.035476 0.110332 0.573914
C27   C     C_R   0.691192 0.684998 0.092392 0.558034
C28   C     C_R   0.225433 0.648694 0.401550 0.561694
C29   C     C_R   0.101104 0.704349 0.109263 0.569222
C30   C     C_R   0.640897 0.620248 0.391422 0.539154
C31   C     C_R   0.619539 0.225589 0.397059 0.547014
C32   C     C_3   0.566183 0.813906 0.783951 0.039448
C33   C     C_3   0.550512 0.809486 0.700797 -0.104736
C34   C     C_3   0.670646 0.661615 0.672521 0.032606
C35   C     C_3   0.834893 0.679052 0.758110 -0.241477
C36   C     C_2   0.567607 0.947016 0.796026 0.265935
C37   C     C_2   0.936957 0.554095 0.640638 0.230229
C38   C     C_2   0.929812 0.053464 0.661391 0.244700
C39   C     C_2   0.582859 0.294367 0.806933 0.215930
C40   C     C_3   0.266283 0.399043 0.699146 -0.211271
C41   C     C_3   0.228137 0.310295 0.746662 -0.407326
C42   C     C_3   0.444889 0.809220 0.829782 -0.229567
C43   C     C_3   0.327757 0.945691 0.862763 -0.379496
C44   C     C_3   0.815454 0.397911 0.156758 -0.220053
C45   C     C_3   0.809237 0.666481 0.678902 -0.082689
C46   C     C_3   0.810819 0.277017 0.192235 -0.449844
C47   C     C_2   0.890756 0.460083 0.294068 0.210156
C48   C     C_2   0.537534 0.790106 0.289255 0.161215
C49   C     C_3   0.431990 0.141004 0.195379 -0.252964
C50   C     C_3   0.303866 0.200802 0.244686 -0.384128
C51   C     C_2   0.540277 0.022167 0.359192 0.285174
C52   C     C_2   0.250176 0.827456 0.185541 0.257913
C53   C     C_3   0.394776 0.872975 0.677620 -0.249572
C54   C     C_3   0.352898 0.972664 0.612779 -0.362793
C55   C     C_3   0.028963 0.711113 0.317402 -0.284714
C56   C     C_3   0.673914 0.542833 0.719829 -0.183699
C57   C     C_3   0.933350 0.852274 0.350237 -0.445327
C58   C     C_3   0.854273 0.408880 0.823987 -0.242618
C59   C     C_3   0.913209 0.275669 0.782074 -0.464905
C60   C     C_2   0.674080 0.138085 0.665085 -0.115792
C61   C     C_2   0.699824 0.153041 0.824917 0.021050
C62   C     C_2   0.797997 0.064361 0.776818 -0.263777
Cr1   Cr    Cr6+3 0.393010 0.398050 0.501480 1.038759
Cr2   Cr    Cr6+3 0.398820 0.707980 0.501630 1.055514
Cr3   Cr    Cr6+3 0.708140 0.393940 0.496850 1.072203
Cr4   Cr    Cr6+3 0.937950 0.938450 0.008940 1.023746
Cr5   Cr    Cr6+3 0.626180 0.937030 0.994750 1.024005
Cr6   Cr    Cr6+3 0.937790 0.625760 0.001410 1.005291
H1    H     H_    0.741378 0.441145 0.694899 0.192164
H2    H     H_    0.716353 0.182484 0.293900 0.080441
H3    H     H_    0.379832 0.630407 0.297326 0.155055
H4    H     H_    0.202277 0.540653 0.188096 0.116499
H5    H     H_    0.577070 0.884685 0.675142 0.141095
H6    H     H_    0.847247 0.771069 0.765026 0.060405
H7    H     H_    0.794084 0.763017 0.651923 0.058313
H8    H     H_    0.633582 0.543507 0.830598 0.134594
H9    H     H_    0.567088 0.556086 0.720326 0.074568
H10   H     H_    0.662315 0.941369 0.811667 0.119317
H11   H     H_    0.997383 0.583242 0.605541 0.110411
H12   H     H_    0.936786 0.591653 0.773361 0.141011
H13   H     H_    0.020588 0.031340 0.692231 0.084602
H14   H     H_    0.577787 0.340875 0.755303 0.078341
H15   H     H_    0.280652 0.289034 0.798622 0.222944
H16   H     H_    0.114963 0.365355 0.756252 0.149459
H17   H     H_    0.255036 0.211918 0.720065 0.183561
H18   H     H_    0.224750 0.395535 0.646900 0.206669
H19   H     H_    0.381221 0.349380 0.695338 0.174000
H20   H     H_    0.371991 0.987766 0.900996 0.197871
H21   H     H_    0.266383 0.027175 0.822953 0.151958
H22   H     H_    0.253463 0.923837 0.892899 0.148633
H23   H     H_    0.885151 0.966795 0.795857 0.113526
H24   H     H_    0.399069 0.759331 0.798644 0.105691
H25   H     H_    0.487072 0.738957 0.876418 0.162736
H26   H     H_    0.847018 0.263385 0.247700 0.136211
H27   H     H_    0.702383 0.295625 0.190490 0.164980
H28   H     H_    0.882657 0.179615 0.163450 0.171306
H29   H     H_    0.784106 0.399695 0.100729 0.167362
H30   H     H_    0.925121 0.376193 0.155461 0.200471
H31   H     H_    0.915196 0.381687 0.334884 0.157671
H32   H     H_    0.563102 0.845486 0.249350 0.097404
H33   H     H_    0.294749 0.115980 0.271288 0.224083
H34   H     H_    0.590302 0.133716 0.693847 0.135299
H35   H     H_    0.305613 0.274131 0.283506 0.217306
H36   H     H_    0.209013 0.259220 0.211940 0.163648
H37   H     H_    0.414948 0.229265 0.160061 0.180455
H38   H     H_    0.430506 0.058481 0.163431 0.182100
H39   H     H_    0.615115 0.924092 0.383464 0.084098
H40   H     H_    0.227312 0.908480 0.223741 0.145106
H41   H     H_    0.348077 0.070895 0.627799 0.136672
H42   H     H_    0.427725 0.932130 0.567352 0.183694
H43   H     H_    0.247780 0.998030 0.594566 0.178419
H44   H     H_    0.370610 0.789055 0.672288 0.184566
H45   H     H_    0.145662 0.508228 0.830214 0.151437
H46   H     H_    0.321152 0.940632 0.718847 0.146201
H47   H     H_    0.948922 0.850939 0.408461 0.174631
H48   H     H_    0.950617 0.933048 0.324233 0.161878
H49   H     H_    0.825798 0.875928 0.341728 0.116030
H50   H     H_    0.002514 0.716655 0.260695 0.169947
H51   H     H_    0.006753 0.634131 0.343838 0.194749
H52   H     H_    0.825901 0.268564 0.762879 0.155631
H53   H     H_    0.977596 0.273319 0.735979 0.203528
H54   H     H_    0.978889 0.184252 0.816500 0.131712
H55   H     H_    0.943439 0.424839 0.831140 0.171365
H56   H     H_    0.215420 0.739473 0.811984 0.077105
H57   H     H_    0.830102 0.383656 0.878173 0.173787
H58   H     H_    0.130626 0.762634 0.703024 0.081735
H59   H     H_    0.530627 0.726909 0.170327 0.133078
H60   H     H_    0.794195 0.001866 0.214228 0.080016
O1    O     O_R   0.507110 0.256280 0.580300 -0.550210
O2    O     O_R   0.837080 0.593860 0.915300 -0.541562
O3    O     O_R   0.064770 0.636080 0.932550 -0.509842
O4    O     O_R   0.280830 0.527190 0.577940 -0.523505
O5    O     O_R   0.068250 0.829200 0.092940 -0.470593
O6    O     O_R   0.799650 0.057040 0.080330 -0.506277
O7    O     O_R   0.586130 0.079760 0.077080 -0.521557
O8    O     O_R   0.627700 0.809630 0.066580 -0.503241
O9    O     O_R   0.816140 0.597180 0.075920 -0.512282
O10   O     O_R   0.045360 0.639170 0.081440 -0.499664
O11   O     O_3   0.833980 0.833750 0.001700 -0.298485
O12   O     O_R   0.524640 0.695370 0.425100 -0.439321
O13   O     O_R   0.261360 0.738990 0.584270 -0.512194
O14   O     O_R   0.532590 0.694780 0.574370 -0.533299
O15   O     O_R   0.744470 0.503750 0.577000 -0.468470
O16   O     O_R   0.698520 0.277230 0.571620 -0.443603
O17   O     O_R   0.498530 0.256920 0.419280 -0.461901
O18   O     O_R   0.272880 0.527780 0.428680 -0.500014
O19   O     O_R   0.252780 0.739630 0.423250 -0.472289
O20   O     O_2   0.467418 0.060058 0.783250 -0.580541
O21   O     O_2   0.973470 0.431401 0.647619 -0.532703
O22   O     O_2   0.942691 0.040794 0.596846 -0.484861
O23   O     O_R   0.735890 0.504390 0.415980 -0.550944
O24   O     O_2   0.491881 0.362528 0.851102 -0.506241
O25   O     O_2   0.987368 0.465651 0.264767 -0.575140
O26   O     O_2   0.417944 0.844003 0.312889 -0.497515
O27   O     O_2   0.418707 0.078553 0.379992 -0.468119
O28   O     O_2   0.287642 0.838140 0.125288 -0.508814
O29   O     O_R   0.690560 0.277820 0.422350 -0.505020
O30   O     O_3   0.499990 0.499990 0.499980 -0.282484
O31   O     O_R   0.089190 0.825870 0.932320 -0.523348
O32   O     O_R   0.819070 0.053960 0.931440 -0.515737
O33   O     O_R   0.607070 0.076440 0.916460 -0.477136
O34   O     O_R   0.647110 0.806550 0.917690 -0.520200

loop_
_geom_bond_atom_site_label_1
_geom_bond_atom_site_label_2
_ccdc_geom_bond_type
C59   H53   S    
C29   O5    A    
C35   H6    S    
C34   C56   S    
C59   H52   S    
C42   H25   S    
C6    C7    S    
C11   C47   S    
C19   C20   D    
C1    O4    A    
C17   C51   S    
C4    O15   A    
Cr4   O32   S    
C19   H4    S    
C3    H58   S    
C47   H31   S    
C57   H47   S    
C55   H51   S    
C53   C54   S    
C50   H36   S    
C29   O10   A    
C37   H11   S    
C5    H56   S    
C51   O27   D    
C58   H55   S    
C43   H21   S    
Cr2   O14   S    
C21   H3    S    
C43   H20   S    
C32   C36   S    
C40   H19   S    
C16   O16   A    
Cr6   O10   S    
C3    C7    D    
C4    O14   A    
C5    C6    D    
Cr3   O15   S    
C2    C60   D    
C13   H2    S    
C18   C21   D    
C35   H12   S    
C14   H60   S    
C54   H42   S    
C15   C17   S    
C16   C60   S    
C40   H18   S    
Cr5   O33   S    
C26   O7    A    
Cr4   O6    S    
C44   H30   S    
C36   O20   D    
Cr4   O11   S    
C25   O31   A    
C7    C40   S    
Cr5   O11   S    
C9    C10   D    
Cr1   O18   S    
C12   C58   S    
C59   H54   S    
Cr1   O1    S    
C50   H35   S    
C35   C45   S    
Cr6   O9    S    
C60   H34   S    
Cr4   O31   S    
C44   C46   S    
C57   H48   S    
C33   C53   S    
C48   H32   S    
C4    C34   S    
C43   H22   S    
C30   O12   A    
C46   H27   S    
C10   C44   S    
C18   C28   S    
Cr3   O29   S    
C12   C23   S    
Cr3   O16   S    
C49   H37   S    
C47   O25   D    
C58   C59   S    
C41   H16   S    
C39   O24   D    
C56   H9    S    
C54   H41   S    
C1    C3    S    
Cr3   O23   S    
Cr6   O3    S    
Cr5   O7    S    
C8    C48   S    
C6    H45   S    
C26   O6    A    
Cr4   O5    S    
C44   H29   S    
C2    C38   S    
C46   H26   S    
C23   C24   S    
C62   H23   S    
C33   C34   S    
C34   C45   S    
C27   O9    A    
Cr1   O4    S    
C14   C26   S    
Cr6   O2    S    
C16   O1    A    
C31   O29   A    
C18   C55   S    
C50   H33   S    
C5    C25   S    
C53   H44   S    
C33   H5    S    
C40   C41   S    
C49   C50   S    
C23   C35   S    
C12   H8    S    
C38   H13   S    
C42   C43   S    
C27   O8    A    
C37   C45   S    
C25   O3    A    
C39   C61   S    
C53   H46   S    
C9    C27   S    
C57   H49   S    
Cr2   O12   S    
C22   O33   A    
C48   O26   D    
C28   O19   A    
C13   C31   S    
C24   O34   A    
C39   H14   S    
C37   O21   D    
Cr3   O30   S    
C9    H59   S    
C49   H38   S    
C52   O28   D    
C41   H17   S    
C28   O18   A    
C13   C17   D    
C45   H7    S    
C8    C30   S    
C23   C32   S    
C55   C57   S    
Cr5   O8    S    
C20   C52   S    
C19   C29   S    
C36   H10   S    
C32   C33   S    
C22   C61   S    
Cr5   O34   S    
C30   O23   A    
C22   O32   A    
C8    C11   D    
C12   C56   S    
Cr1   O17   S    
C54   H43   S    
C42   H24   S    
C15   C49   S    
C61   C62   D    
C1    O13   A    
C10   C11   S    
C31   O17   A    
C24   O2    A    
C46   H28   S    
C20   C21   S    
C52   H40   S    
C58   H57   S    
C51   H39   S    
C56   H1    S    
Cr2   O13   S    
Cr2   O30   S    
C32   C42   S    
C14   C15   D    
Cr6   O11   S    
Cr1   O30   S    
Cr2   O19   S    
C38   O22   D    
C2    C62   S    
C55   H50   S    
C41   H15   S    
