data_mof_unit_11880.cif
_audit_creation_date              2013-03-05T15:55:00-0500
_audit_creation_method            fapswitch 2.2
_symmetry_space_group_name_H-M    P1
_symmetry_Int_Tables_number       1
_space_group_crystal_system       triclinic
_cell_length_a                    23.360908
_cell_length_b                    10.700596
_cell_length_c                    9.911846
_cell_angle_alpha                 90.981406
_cell_angle_beta                  89.524772
_cell_angle_gamma                 93.680996
_cell_volume                      2472.18143336

loop_
_atom_site_label
_atom_site_type_symbol
_atom_site_description
_atom_site_fract_x
_atom_site_fract_y
_atom_site_fract_z
_atom_type_partial_charge
O1    O     O_R   0.500000 0.316780 0.614690 -0.638827
O2    O     O_R   0.500000 0.316750 0.385360 -0.654003
C1    C     C_R   0.498818 0.260294 0.498444 0.912087
O3    O     O_R   0.416160 0.499970 0.614690 -0.594938
O4    O     O_R   0.416150 0.499950 0.385360 -0.643979
C2    C     C_R   0.389275 0.500636 0.500665 0.953576
Zn1   Zn    Zn3+2 0.500000 0.500020 0.653130 1.023945
Zn2   Zn    Zn3+2 0.500000 0.499980 0.346870 1.014966
O5    O     O_R   0.500000 0.683250 0.614640 -0.573223
O6    O     O_R   0.500000 0.683220 0.385310 -0.580736
O7    O     O_R   0.583850 0.500050 0.614640 -0.619359
O8    O     O_R   0.583840 0.500030 0.385310 -0.593846
C3    C     C_R   0.506169 0.739636 0.501102 0.966590
C4    C     C_R   0.610197 0.492756 0.499562 0.984729
C5    C     C_R   0.881240 0.534862 0.416703 0.647201
N1    N     N_R   0.850281 0.445733 0.488100 -0.324271
C6    C     C_R   0.875022 0.350927 0.551310 0.637831
C7    C     C_R   0.934735 0.341865 0.543941 -0.126721
C8    C     C_R   0.968017 0.439478 0.479395 -0.062549
C9    C     C_R   0.941325 0.538064 0.415647 -0.133184
C10   C     C_R   0.962558 0.242174 0.602990 0.308457
C11   C     C_R   0.022378 0.246064 0.605759 -0.167802
C12   C     C_R   0.055413 0.343921 0.545817 -0.078953
C13   C     C_R   0.028301 0.439419 0.480010 -0.001878
C14   C     C_R   0.061631 0.535865 0.416309 -0.067003
C15   C     C_R   0.035055 0.631531 0.351875 -0.170393
C16   C     C_R   0.975599 0.635291 0.352854 0.308882
C17   C     C_R   0.115409 0.348558 0.549348 0.567450
N2    N     N_R   0.146653 0.444231 0.488556 -0.358847
C18   C     C_R   0.121322 0.536271 0.421713 0.556217
O9    O     O_2   0.853298 0.619525 0.347643 -0.462508
O10   O     O_2   0.841648 0.268634 0.623434 -0.493206
H1    H     H_    0.042955 0.170094 0.652620 0.229584
O11   O     O_2   0.142402 0.258830 0.612933 -0.477151
O12   O     O_2   0.154015 0.628744 0.362355 -0.506326
H2    H     H_    0.060507 0.707079 0.304441 0.227587
C19   C     C_R   0.234185 0.503111 0.611993 -0.106207
H3    H     H_    0.208164 0.531517 0.696725 0.182784
C20   C     C_R   0.293720 0.525531 0.615003 0.304538
C21   C     C_R   0.326533 0.490906 0.500967 -0.140283
C22   C     C_R   0.298797 0.437561 0.386500 -0.166881
H4    H     H_    0.322789 0.409744 0.298403 0.179923
C23   C     C_R   0.239681 0.418005 0.384442 -0.050940
H5    H     H_    0.218676 0.378997 0.294780 0.168398
C24   C     C_R   0.207487 0.450939 0.496829 0.227198
C25   C     C_R   0.757043 0.411766 0.383430 0.514372
C26   C     C_R   0.697829 0.425697 0.385490 -0.314233
H6    H     H_    0.671714 0.394492 0.300411 0.157441
C27   C     C_R   0.671740 0.477103 0.499070 -0.083517
C28   C     C_R   0.704413 0.515011 0.611801 -0.189820
H7    H     H_    0.683714 0.555990 0.698555 0.227364
C29   C     C_R   0.763806 0.507036 0.610884 0.270794
C30   C     C_R   0.789627 0.452902 0.496031 0.113141
C31   C     C_R   0.597487 0.152055 0.386770 -0.174081
H8    H     H_    0.594727 0.250644 0.371319 0.153262
C32   C     C_R   0.647504 0.101167 0.342925 -0.201035
H9    H     H_    0.681204 0.159536 0.295645 0.179584
C33   C     C_R   0.655723 0.976958 0.366768 -0.054437
H10   H     H_    0.697031 0.942134 0.341353 0.212260
C34   C     C_R   0.613229 0.900712 0.431799 0.365187
C35   C     C_R   0.558535 0.947675 0.461269 -0.012425
C36   C     C_R   0.552339 0.076691 0.446264 0.038974
C37   C     C_R   0.501323 0.127875 0.492618 -0.176557
C38   C     C_R   0.453757 0.052485 0.537420 0.263979
H11   H     H_    0.422052 0.864789 0.573352 0.218480
C39   C     C_R   0.458903 0.925251 0.543672 -0.215325
C40   C     C_R   0.509671 0.873198 0.505571 -0.134162
C41   C     C_R   0.421611 0.339241 0.139666 -0.179934
H12   H     H_    0.422066 0.328330 0.246277 0.233339
C42   C     C_R   0.378888 0.268899 0.070668 -0.248270
H13   H     H_    0.347636 0.211649 0.127471 0.210365
C43   C     C_R   0.375532 0.274626 0.930771 0.327814
C44   C     C_R   0.418140 0.345253 0.859987 -0.173523
H14   H     H_    0.417509 0.336469 0.752823 0.226443
C45   C     C_R   0.460235 0.422586 0.927541 0.115771
C46   C     C_R   0.460963 0.421353 0.071927 0.105546
N3    N     N_R   0.499460 0.498800 0.142780 -0.177517
C47   C     C_R   0.538042 0.574637 0.071527 0.339201
H15   H     H_    0.568960 0.634182 0.874309 0.199583
C48   C     C_R   0.538038 0.573840 0.928380 -0.131344
N4    N     N_R   0.499440 0.498720 0.857170 -0.133892
N5    N     N_R   0.931360 0.133551 0.655448 0.250470
O13   O     O_R   0.944900 0.090765 0.772260 -0.308662
O14   O     O_R   0.898754 0.063028 0.575482 -0.245112
N6    N     N_R   0.796761 0.556352 0.724969 0.230465
O15   O     O_R   0.851848 0.581643 0.715777 -0.340467
O16   O     O_R   0.770883 0.587019 0.836399 -0.360356
N7    N     N_R   0.399066 0.101826 0.568297 0.207081
O17   O     O_R   0.361608 0.037003 0.640950 -0.278647
O18   O     O_R   0.382397 0.198373 0.504810 -0.421039
N8    N     N_R   0.630024 0.784907 0.483281 0.170501
O19   O     O_R   0.621038 0.761709 0.610397 -0.419032
O20   O     O_R   0.670237 0.728337 0.420058 -0.355035
N9    N     N_R   0.579104 0.655662 0.140954 0.231859
O21   O     O_R   0.631872 0.624305 0.147219 -0.358926
O22   O     O_R   0.568271 0.772220 0.160889 -0.378767
N10   N     N_R   0.328188 0.211363 0.860746 0.253782
O23   O     O_R   0.297581 0.120697 0.917690 -0.296378
O24   O     O_R   0.311326 0.253522 0.746309 -0.301682
N11   N     N_R   0.951610 0.742634 0.296486 0.248939
O25   O     O_R   0.927041 0.821575 0.375832 -0.246668
O26   O     O_R   0.965806 0.776223 0.174556 -0.305463
N12   N     N_R   0.319376 0.588047 0.731042 0.222564
O27   O     O_R   0.354888 0.685625 0.715874 -0.354888
O28   O     O_R   0.299966 0.561488 0.851307 -0.341880
O29   O     O_3   0.784856 0.350632 0.279076 -0.616693
C49   C     C_3   0.765129 0.382018 0.150410 0.086082
H16   H     H_    0.758283 0.483916 0.143530 0.219673
H17   H     H_    0.724742 0.325783 0.126277 0.140992
C50   C     C_3   0.809880 0.349761 0.045228 -0.583566
H18   H     H_    0.819122 0.249557 0.052339 0.265189
H19   H     H_    0.793717 0.366314 0.942536 0.239995
H20   H     H_    0.850136 0.408862 0.061833 0.264911

loop_
_geom_bond_atom_site_label_1
_geom_bond_atom_site_label_2
_geom_bond_distance
_ccdc_geom_bond_type
C20   N12   1.436379 S    
C7    C10   1.421165 A    
C49   H17   1.111469 S    
C44   H14   1.064879 S    
C31   H8    1.074696 S    
C8    C9    1.419417 A    
C45   C46   1.431676 A    
N10   O23   1.301554 A    
C26   C27   1.397100 A    
N3    C47   1.372894 A    
Zn1   O7    1.992491 S    
C15   C16   1.392047 A    
C36   C37   1.413350 A    
C18   O12   1.350575 S    
C29   N6    1.446263 S    
C19   H3    1.083396 S    
O4    C2    1.299541 A    
O7    C4    1.295159 A    
C47   C48   1.418734 A    
C4    C27   1.458022 S    
O29   C49   1.412760 S    
C33   C34   1.403547 A    
C5    N1    1.363647 A    
C32   H9    1.081794 S    
C7    C8    1.419571 A    
C22   H4    1.081493 S    
C27   C28   1.398042 A    
O5    C3    1.288675 A    
N1    C30   1.425358 S    
C50   H18   1.110788 S    
N1    C6    1.363383 A    
C28   C29   1.395501 A    
C12   C13   1.408417 A    
C42   H13   1.082981 S    
C43   C44   1.401483 A    
N7    O17   1.301608 A    
C39   C40   1.389112 A    
C17   O11   1.349735 S    
C10   C11   1.395886 A    
C22   C23   1.383696 A    
N9    O21   1.300421 A    
O3    Zn1   1.998359 S    
N10   O24   1.301174 A    
C28   H7    1.083013 S    
C43   N10   1.436564 S    
N6    O16   1.301909 A    
C5    C9    1.401826 A    
C31   C32   1.384141 A    
C16   N11   1.433681 S    
C13   C14   1.407478 A    
O3    C2    1.297876 A    
N8    O19   1.301077 A    
C45   N4    1.379157 A    
C31   C36   1.416766 A    
C14   C15   1.397078 A    
N6    O15   1.300688 A    
H15   C48   1.082367 S    
N2    C24   1.421319 S    
C34   C35   1.428863 A    
O1    C1    1.291600 A    
C38   C39   1.376936 A    
C23   H5    1.083087 S    
N2    C18   1.364857 A    
N8    O20   1.300721 A    
C35   C40   1.420496 A    
C26   H6    1.080538 S    
Zn2   O8    1.998356 S    
N11   O26   1.301035 A    
C6    C7    1.405729 A    
N12   O28   1.301322 A    
C12   C17   1.399963 A    
C46   N3    1.372442 A    
N9    O22   1.299989 A    
C23   C24   1.391903 A    
C50   H20   1.110872 S    
C15   H2    1.083867 S    
C21   C22   1.405498 A    
Zn1   N4    2.022627 S    
N7    O18   1.301128 A    
H11   C39   1.084911 S    
N5    O14   1.301391 A    
Zn2   N3    2.022871 S    
C49   C50   1.521472 S    
C2    C21   1.462702 S    
C44   C45   1.409828 A    
C49   H16   1.115463 S    
C19   C24   1.396033 A    
C20   C21   1.417810 A    
C29   C30   1.416422 A    
C3    C40   1.426228 S    
C34   N8    1.427341 S    
C14   C18   1.395639 A    
Zn1   O5    2.003847 S    
C11   H1    1.083725 S    
C25   C26   1.400741 A    
C17   N2    1.364469 A    
O1    Zn1   1.991035 S    
C41   H12   1.065336 S    
Zn2   O6    1.991037 S    
O2    Zn2   2.003846 S    
O8    C4    1.299361 A    
C48   N4    1.362136 A    
O6    C3    1.292396 A    
O4    Zn2   1.992493 S    
C5    O9    1.349056 S    
C9    C16   1.420496 A    
C1    C37   1.422080 S    
C41   C46   1.405063 A    
O2    C1    1.281640 A    
C33   H10   1.082802 S    
C19   C20   1.396567 A    
C47   N9    1.424476 S    
C25   O29   1.392904 S    
C25   C30   1.404662 A    
N11   O25   1.301350 A    
C32   C33   1.379677 A    
C8    C13   1.408406 A    
C35   C36   1.407844 A    
C50   H19   1.109574 S    
C37   C38   1.404170 A    
C10   N5    1.434635 S    
C41   C42   1.388390 A    
N5    O13   1.301176 A    
N12   O27   1.301209 A    
C6    O10   1.348509 S    
C11   C12   1.398200 A    
C42   C43   1.392116 A    
C38   N7    1.441997 S    
