data_mof_unit_45981.cif
_audit_creation_date              2012-12-10T17:12:01-0500
_audit_creation_method            fapswitch 2.2
_symmetry_space_group_name_H-M    P1
_symmetry_Int_Tables_number       1
_space_group_crystal_system       triclinic
_cell_length_a                    11.661229
_cell_length_b                    13.004308
_cell_length_c                    15.874966
_cell_angle_alpha                 92.196285
_cell_angle_beta                  74.109111
_cell_angle_gamma                 99.842952
_cell_volume                      2281.20641799

loop_
_atom_site_label
_atom_site_type_symbol
_atom_type_description
_atom_site_fract_x
_atom_site_fract_y
_atom_site_fract_z
_atom_type_partial_charge
C1    C     C_R   0.520801 0.700873 0.501269 0.810930
C2    C     C_R   0.479199 0.299128 0.498731 0.811038
C3    C     C_R   0.350617 0.463214 0.086787 -0.220469
C4    C     C_R   0.641990 0.476978 0.913048 -0.221637
C5    C     C_R   0.267946 0.457587 0.037697 -0.230396
C6    C     C_R   0.724333 0.480139 0.962145 -0.230962
C7    C     C_R   0.467201 0.185725 0.497993 -0.052779
C8    C     C_R   0.532798 0.814280 0.502009 -0.053397
C9    C     C_R   0.651965 0.984675 0.508517 -0.213982
C10   C     C_R   0.348034 0.015332 0.491486 -0.213874
C11   C     C_R   0.641118 0.876587 0.508038 -0.194568
C12   C     C_R   0.358882 0.123420 0.491963 -0.194371
C13   C     C_R   0.435227 0.860777 0.496574 -0.265467
C14   C     C_R   0.564772 0.139229 0.503430 -0.265394
C15   C     C_R   0.445385 0.968793 0.497000 0.175531
C16   C     C_R   0.554614 0.031214 0.503004 0.175513
C17   C     C_R   0.940345 0.595802 0.582330 -0.347621
C18   C     C_R   0.059672 0.404214 0.417640 -0.347996
C19   C     C_R   0.821965 0.586667 0.574388 0.083831
C20   C     C_R   0.178054 0.413355 0.425587 0.083638
C21   C     C_R   0.859671 0.458632 0.464427 0.018874
C22   C     C_R   0.140324 0.541361 0.535570 0.018535
C23   C     C_R   0.426923 0.494694 0.668135 0.802743
C24   C     C_R   0.572941 0.504075 0.331864 0.803417
C25   C     C_R   0.979654 0.465212 0.470077 0.071745
C26   C     C_R   0.020348 0.534783 0.529911 0.070785
C27   C     C_R   0.383493 0.487086 0.764127 -0.054152
C28   C     C_R   0.615164 0.501020 0.235822 -0.053980
C29   C     C_R   0.222260 0.463469 0.898661 -0.196658
C30   C     C_R   0.772262 0.492056 0.101248 -0.196384
C31   C     C_R   0.260059 0.472878 0.807699 -0.194354
C32   C     C_R   0.736464 0.498588 0.192255 -0.194300
C33   C     C_R   0.468326 0.491466 0.812367 -0.248833
C34   C     C_R   0.530401 0.496704 0.187544 -0.251238
C35   C     C_R   0.432557 0.478052 0.903760 0.088098
C36   C     C_R   0.563059 0.485738 0.096109 0.087874
C37   C     C_R   0.307303 0.466361 0.946900 0.167919
C38   C     C_R   0.686845 0.486022 0.052971 0.167985
C39   C     C_R   0.517725 0.477963 0.953367 0.066362
C40   C     C_R   0.476695 0.476424 0.046484 0.067017
Cu1   Cu    Cu3+1 0.386820 0.492450 0.493500 0.936377
Cu2   Cu    Cu3+1 0.613180 0.507550 0.506500 0.936572
H1    H     H_    0.239226 0.366046 0.385021 0.123103
H2    H     H_    0.760810 0.634006 0.614930 0.123126
H3    H     H_    0.968953 0.650106 0.628995 0.136947
H4    H     H_    0.031082 0.349932 0.370954 0.135588
H5    H     H_    0.439350 0.504074 0.222889 0.153162
H6    H     H_    0.562419 0.507617 0.777063 0.150615
H7    H     H_    0.803441 0.501649 0.228364 0.151481
H8    H     H_    0.192948 0.469313 0.771647 0.152561
H9    H     H_    0.126351 0.453646 0.931384 0.126606
H10   H     H_    0.866798 0.491257 0.068531 0.126819
H11   H     H_    0.311880 0.453622 0.156418 0.140510
H12   H     H_    0.678693 0.470505 0.843387 0.144235
H13   H     H_    0.648761 0.186846 0.508031 0.152630
H14   H     H_    0.351237 0.813161 0.491974 0.152806
H15   H     H_    0.282550 0.158085 0.487651 0.157077
H16   H     H_    0.717451 0.841922 0.512348 0.157205
H17   H     H_    0.736169 0.031725 0.513167 0.135406
H18   H     H_    0.263830 0.968283 0.486836 0.135541
H19   H     H_    0.172822 0.594493 0.581358 0.116705
H20   H     H_    0.827168 0.405504 0.418636 0.115723
N1    N     N_R   0.216750 0.481110 0.483710 -0.178842
N2    N     N_R   0.783250 0.518890 0.516290 -0.178872
O1    O     O_R   0.419950 0.645670 0.495380 -0.588006
O2    O     O_R   0.580050 0.354330 0.504620 -0.588282
O3    O     O_R   0.611110 0.658410 0.506370 -0.590731
O4    O     O_R   0.388890 0.341590 0.493630 -0.591015
O5    O     O_R   0.350820 0.490050 0.621260 -0.586235
O6    O     O_R   0.649180 0.509950 0.378740 -0.585765
O7    O     O_R   0.541970 0.502800 0.632250 -0.589957
O8    O     O_R   0.458030 0.497200 0.367750 -0.589960
H21   H     H_    0.172257 0.447121 0.071299 0.138614
H22   H     H_    0.818507 0.478813 0.928532 0.139232

loop_
_geom_bond_atom_site_label_1
_geom_bond_atom_site_label_2
_ccdc_geom_bond_type
C8    C13   A    
C5    C37   A    
C1    C8    S    
Cu1   Cu2   S    
C23   O5    A    
C35   C39   A    
C2    C7    S    
C24   O6    A    
C27   C33   A    
C17   C26   A    
C35   C37   A    
C9    C16   A    
C17   H3    S    
C2    O4    A    
C10   C15   A    
C15   C16   A    
Cu2   O6    S    
C30   C38   A    
C21   N2    A    
C30   H10   S    
C33   C35   A    
C22   N1    A    
C7    C14   A    
C1    O1    A    
C6    C38   A    
C23   C27   S    
C11   H16   S    
C34   C36   A    
C13   H14   S    
C14   H13   S    
C28   C34   A    
C18   C25   A    
C18   H4    S    
C6    H22   S    
Cu1   O4    S    
C7    C12   A    
C27   C31   A    
C23   O7    A    
C36   C40   A    
C4    C6    A    
C39   C40   A    
C17   C19   A    
Cu1   O1    S    
C3    C5    A    
C25   C26   A    
C9    H17   S    
C10   H18   S    
C4    C39   A    
C28   C32   A    
C19   N2    A    
C9    C11   A    
C21   H20   S    
C10   C12   A    
Cu1   O8    S    
C12   H15   S    
C3    C40   A    
C13   C15   A    
Cu2   O3    S    
C14   C16   A    
Cu1   N1    S    
C31   H8    S    
Cu2   N2    S    
C20   H1    S    
C19   H2    S    
C24   O8    A    
Cu1   O5    S    
C29   H9    S    
C21   C25   A    
C4    H12   S    
C24   C28   S    
C2    O2    A    
C20   N1    A    
C36   C38   A    
C29   C31   A    
C22   H19   S    
C30   C32   A    
C3    H11   S    
C8    C11   A    
Cu2   O7    S    
C1    O3    A    
C18   C20   A    
C5    H21   S    
C32   H7    S    
C22   C26   A    
C29   C37   A    
Cu2   O2    S    
C33   H6    S    
C34   H5    S    
