data_mof_unit_8097.cif
_audit_creation_date              2012-10-26T21:00:17-0400
_audit_creation_method            fapswitch 2.2
_symmetry_space_group_name_H-M    P1
_symmetry_Int_Tables_number       1
_space_group_crystal_system       triclinic
_cell_length_a                    19.244202
_cell_length_b                    8.762368
_cell_length_c                    7.478752
_cell_angle_alpha                 103.364712
_cell_angle_beta                  94.662042
_cell_angle_gamma                 93.47406
_cell_volume                      1218.78615726

loop_
_atom_site_label
_atom_site_type_symbol
_atom_type_description
_atom_site_fract_x
_atom_site_fract_y
_atom_site_fract_z
_atom_type_partial_charge
Br1   Br    Br    0.320803 0.800289 0.773225 -0.392104
Br2   Br    Br    0.679197 0.199713 0.226771 -0.392104
Br3   Br    Br    0.115379 0.197166 0.239471 -0.302908
Br4   Br    Br    0.884621 0.802832 0.760532 -0.302908
Br5   Br    Br    0.287751 0.196025 0.237784 -0.397294
Br6   Br    Br    0.712248 0.803974 0.762219 -0.397295
C1    C     C_R   0.497251 0.200211 0.453526 0.592419
C2    C     C_R   0.810026 0.377587 0.376806 0.082396
C3    C     C_R   0.146216 0.497403 0.507127 -0.019892
C4    C     C_R   0.853784 0.502598 0.492873 -0.019892
C5    C     C_R   0.175260 0.372078 0.391316 0.184934
C6    C     C_R   0.824740 0.627922 0.608685 0.184934
C7    C     C_R   0.248105 0.372110 0.390263 0.139425
C8    C     C_R   0.751895 0.627889 0.609738 0.139425
C9    C     C_R   0.291764 0.497881 0.504803 -0.026031
C10   C     C_R   0.708236 0.502120 0.495197 -0.026032
C11   C     C_R   0.929805 0.500705 0.496141 0.354031
C12   C     C_R   0.502749 0.799789 0.546473 0.592419
C13   C     C_R   0.070195 0.499296 0.503859 0.354031
C14   C     C_2   0.489961 0.032524 0.429174 0.109898
C15   C     C_2   0.510039 0.967476 0.570825 0.109898
C16   C     C_R   0.367678 0.499281 0.501517 0.591561
C17   C     C_R   0.632322 0.500719 0.498483 0.591561
C18   C     C_R   0.262608 0.622636 0.621481 0.182584
C19   C     C_R   0.737392 0.377365 0.378517 0.182583
C20   C     C_R   0.189974 0.622415 0.623192 0.082395
Cu1   Cu    Cu3+1 0.507710 0.517380 0.684380 1.092854
Cu2   Cu    Cu3+1 0.492290 0.482620 0.315620 1.092854
H1    H     H_    0.133664 0.711429 0.835593 0.279647
H2    H     H_    0.430215 0.248214 0.944420 0.242258
H3    H     H_    0.620035 0.599867 0.025735 0.260113
H4    H     H_    0.569786 0.751784 0.055578 0.242258
H5    H     H_    0.126874 0.802244 0.657895 0.272019
H6    H     H_    0.866336 0.288575 0.164404 0.279648
H7    H     H_    0.873126 0.197757 0.342100 0.272019
H8    H     H_    0.407801 0.977821 0.231029 0.283820
H9    H     H_    0.487250 0.959296 0.150152 0.242109
H10   H     H_    0.592199 0.022179 0.768971 0.283819
H11   H     H_    0.512751 0.040704 0.849848 0.242108
H12   H     H_    0.379964 0.400130 0.974266 0.260113
N1    N     N_R   0.031272 0.507819 0.347495 -0.147925
N2    N     N_3   0.542627 0.060438 0.745510 -0.577151
N3    N     N_3   0.426661 0.361751 0.924776 -0.416064
N4    N     N_3   0.573340 0.638248 0.075224 -0.416066
N5    N     N_R   0.968728 0.492182 0.652505 -0.147924
N6    N     N_R   0.962100 0.508577 0.343706 -0.184115
N7    N     N_R   0.037900 0.491424 0.656294 -0.184114
N8    N     N_2   0.480680 0.456420 0.038530 -0.024007
N9    N     N_2   0.519320 0.543580 0.961470 -0.024007
N10   N     N_3   0.161403 0.752830 0.739572 -0.499805
N11   N     N_3   0.838597 0.247173 0.260425 -0.499805
N12   N     N_3   0.457373 0.939562 0.254490 -0.577151
O1    O     O_R   0.505010 0.286130 0.619770 -0.457571
O2    O     O_R   0.494990 0.713870 0.380230 -0.457571
O3    O     O_R   0.491990 0.256780 0.308370 -0.512095
O4    O     O_R   0.508010 0.743220 0.691630 -0.512094
O5    O     O_R   0.406650 0.514660 0.655750 -0.463618
O6    O     O_R   0.593350 0.485340 0.344250 -0.463619
O7    O     O_R   0.393640 0.485310 0.344340 -0.489486
O8    O     O_R   0.606360 0.514690 0.655660 -0.489486

loop_
_geom_bond_atom_site_label_1
_geom_bond_atom_site_label_2
_ccdc_geom_bond_type
N4    N9    S    
H6    N11   S    
C17   O6    A    
N1    N6    A    
Cu1   O1    S    
C2    C19   A    
Cu2   O6    S    
Br6   C8    S    
C12   C15   S    
C3    C5    A    
N3    N8    S    
Br5   C7    S    
H8    N12   S    
C1    O3    A    
Cu1   O8    S    
C10   C17   S    
H12   N3    S    
C16   O5    A    
C7    C9    A    
H4    N4    S    
C14   N12   S    
C20   N10   S    
C14   C15   D    
C12   O4    A    
C5    C7    A    
C2    N11   S    
Br2   C19   S    
C4    C6    A    
C9    C18   A    
Cu2   O3    S    
C18   C20   A    
C3    C20   A    
H10   N2    S    
H11   N2    S    
C8    C10   A    
H1    N10   S    
N5    N7    A    
H7    N11   S    
C17   O8    A    
C13   N7    A    
H2    N3    S    
Br4   C6    S    
H3    N4    S    
C12   O2    A    
C4    C11   S    
C15   N2    S    
C13   N1    A    
C6    C8    A    
C10   C19   A    
Br3   C5    S    
C11   N6    A    
Br1   C18   S    
C2    C4    A    
C1    C14   S    
Cu1   O5    S    
Cu2   O7    S    
C16   O7    A    
H9    N12   S    
C1    O1    A    
Cu1   O4    S    
N8    N9    D    
Cu2   O2    S    
H5    N10   S    
C3    C13   S    
C9    C16   S    
Cu2   N8    S    
Cu1   N9    S    
C11   N5    A    
Cu1   Cu2   S    
