data_mof_unit_38401.cif
_audit_creation_date              2012-12-10T17:11:01-0500
_audit_creation_method            fapswitch 2.2
_symmetry_space_group_name_H-M    P1
_symmetry_Int_Tables_number       1
_space_group_crystal_system       triclinic
_cell_length_a                    11.662417
_cell_length_b                    13.003521
_cell_length_c                    13.441827
_cell_angle_alpha                 91.988068
_cell_angle_beta                  76.393897
_cell_angle_gamma                 99.821203
_cell_volume                      1952.2108822

loop_
_atom_site_label
_atom_site_type_symbol
_atom_type_description
_atom_site_fract_x
_atom_site_fract_y
_atom_site_fract_z
_atom_type_partial_charge
C1    C     C_R   0.520850 0.700869 0.501526 0.808312
C2    C     C_R   0.447040 0.502717 0.976241 0.105185
C3    C     C_R   0.476062 0.534120 0.872002 0.086783
C4    C     C_R   0.535730 0.527956 0.034257 0.081525
C5    C     C_R   0.647233 0.590329 0.989711 0.095553
C6    C     C_R   0.667848 0.630357 0.891160 -0.214254
C7    C     C_R   0.582636 0.604349 0.833955 -0.202453
C8    C     C_R   0.517098 0.493402 0.135350 -0.326856
C9    C     C_R   0.715099 0.580782 0.146477 0.490906
C10   C     C_R   0.396859 0.495516 0.808669 -0.106319
C11   C     C_R   0.467125 0.185723 0.497660 -0.051596
C12   C     C_R   0.436425 0.499378 0.696174 0.783606
C13   C     C_R   0.532854 0.814257 0.502508 -0.050217
C14   C     C_R   0.652134 0.984613 0.510830 -0.214782
C15   C     C_R   0.641288 0.876522 0.510157 -0.187791
C16   C     C_R   0.435162 0.860777 0.495706 -0.265202
C17   C     C_R   0.445310 0.968791 0.496329 0.175236
C18   C     C_R   0.554662 0.031185 0.503914 0.174791
C19   C     C_R   0.564819 0.139206 0.504487 -0.265931
C20   C     C_R   0.358669 0.123440 0.490094 -0.197279
C21   C     C_R   0.347826 0.015353 0.489443 -0.213800
C22   C     C_R   0.946934 0.600213 0.591941 -0.342525
C23   C     C_R   0.479139 0.299127 0.498531 0.805493
C24   C     C_R   0.827942 0.590546 0.583139 0.105576
C25   C     C_R   0.856654 0.456323 0.460529 0.028581
C26   C     C_R   0.977386 0.463771 0.466258 0.064391
C27   C     C_R   0.022775 0.536441 0.533299 0.070530
C28   C     C_R   0.143251 0.543526 0.539524 0.022671
C29   C     C_R   0.172849 0.410705 0.415402 0.089945
C30   C     C_R   0.053662 0.400748 0.406831 -0.353596
C31   C     C_R   0.564183 0.506533 0.304039 0.838579
C32   C     C_R   0.736089 0.614731 0.045217 -0.278744
C33   C     C_R   0.602395 0.523791 0.193024 -0.157293
C34   C     C_R   0.282349 0.441543 0.852886 -0.186847
C35   C     C_R   0.248731 0.420338 0.957125 -0.158945
C36   C     C_R   0.330285 0.448180 0.018070 -0.182266
Cu1   Cu    Cu3+1 0.386470 0.492430 0.492410 0.935651
Cu2   Cu    Cu3+1 0.613530 0.507570 0.507590 0.958664
H1    H     H_    0.282238 0.158123 0.484683 0.156321
H2    H     H_    0.736425 0.031638 0.516721 0.135364
H3    H     H_    0.263526 0.968321 0.483579 0.136052
H4    H     H_    0.717701 0.841822 0.515595 0.158294
H5    H     H_    0.351091 0.813180 0.489867 0.153111
H6    H     H_    0.179139 0.598813 0.591110 0.117060
H7    H     H_    0.231090 0.361783 0.369461 0.118147
H8    H     H_    0.979370 0.657415 0.643759 0.132944
H9    H     H_    0.021549 0.344256 0.354280 0.132587
H10   H     H_    0.770836 0.641114 0.627345 0.109134
H11   H     H_    0.750253 0.682256 0.858051 0.136734
H12   H     H_    0.820646 0.400884 0.409127 0.111531
H13   H     H_    0.820848 0.662935 0.011111 0.149912
H14   H     H_    0.435375 0.444165 0.172572 0.162055
H15   H     H_    0.219672 0.412717 0.806252 0.155917
H16   H     H_    0.297949 0.427446 0.097817 0.123792
H17   H     H_    0.159946 0.378791 0.990472 0.135959
H18   H     H_    0.600112 0.641985 0.760341 0.147860
H19   H     H_    0.648900 0.186810 0.510290 0.152176
N1    N     N_R   0.215880 0.481050 0.481000 -0.178672
N2    N     N_R   0.784100 0.518950 0.519000 -0.174218
O1    O     O_R   0.419710 0.645650 0.494620 -0.590620
O2    O     O_R   0.611450 0.658430 0.507430 -0.590009
O3    O     O_R   0.357340 0.490460 0.641450 -0.584623
O4    O     O_R   0.549080 0.503250 0.654260 -0.581388
O5    O     O_R   0.388550 0.341570 0.492570 -0.593944
O6    O     O_R   0.580290 0.354350 0.505380 -0.591375
O7    O     O_R   0.450920 0.496750 0.345740 -0.592207
O8    O     O_R   0.642660 0.509540 0.358550 -0.541838
O9    O     O_3   0.799331 0.614190 0.202871 -0.560431
C37   C     C_3   0.887380 0.549370 0.180207 -0.300381
H20   H     H_    0.847547 0.466019 0.197851 0.145196
H21   H     H_    0.951956 0.572858 0.229019 0.193472
H22   H     H_    0.938175 0.558360 0.098950 0.150809

loop_
_geom_bond_atom_site_label_1
_geom_bond_atom_site_label_2
_ccdc_geom_bond_type
C37   H22   S    
C2    C4    A    
C25   N2    A    
C31   C33   S    
C32   H13   S    
C29   C30   A    
C25   H12   S    
C28   N1    A    
C31   O7    A    
C12   O3    A    
C14   C18   A    
C35   C36   A    
Cu2   O6    S    
C4    C8    A    
Cu2   O2    S    
Cu1   O7    S    
C23   O6    A    
C17   C18   A    
C25   C26   A    
C9    O9    S    
C10   C34   A    
C3    C10   A    
C19   H19   S    
C31   O8    A    
C16   H5    S    
C11   C19   A    
C26   C27   A    
C6    C7    A    
C10   C12   S    
C7    H18   S    
C9    C33   A    
C24   N2    A    
C21   H3    S    
C29   N1    A    
C11   C23   S    
C23   O5    A    
C22   H8    S    
Cu1   Cu2   S    
C26   C30   A    
C3    C7    A    
C22   C27   A    
C13   C15   A    
C6    H11   S    
C8    H14   S    
C5    C6    A    
C34   C35   A    
C22   C24   A    
C11   C20   A    
C13   C16   A    
Cu1   O1    S    
C36   H16   S    
C14   H2    S    
Cu2   N2    S    
C24   H10   S    
C30   H9    S    
C4    C5    A    
Cu1   O5    S    
C1    C13   S    
Cu2   O8    S    
C15   H4    S    
C34   H15   S    
Cu2   O4    S    
C1    O1    A    
C2    C36   A    
C27   C28   A    
C37   H21   S    
C20   H1    S    
Cu1   O3    S    
C14   C15   A    
C18   C19   A    
C2    C3    A    
C8    C33   A    
C37   H20   S    
C9    C32   A    
C20   C21   A    
C12   O4    A    
C35   H17   S    
C28   H6    S    
C5    C32   A    
C17   C21   A    
Cu1   N1    S    
C16   C17   A    
C29   H7    S    
O9    C37   S    
C1    O2    A    
