data_mof_unit_27935.cif
_audit_creation_date              2012-12-10T18:21:14-0500
_audit_creation_method            fapswitch 2.2
_symmetry_space_group_name_H-M    P1
_symmetry_Int_Tables_number       1
_space_group_crystal_system       triclinic
_cell_length_a                    15.005265
_cell_length_b                    14.109299
_cell_length_c                    11.187687
_cell_angle_alpha                 89.047628
_cell_angle_beta                  87.26264
_cell_angle_gamma                 83.606687
_cell_volume                      2351.01865475

loop_
_atom_site_label
_atom_site_type_symbol
_atom_type_description
_atom_site_fract_x
_atom_site_fract_y
_atom_site_fract_z
_atom_type_partial_charge
Br1   Br    Br    0.175858 0.581876 0.734804 -0.282314
Br2   Br    Br    0.218727 0.657592 0.323271 -0.324966
Br3   Br    Br    0.884876 0.558517 0.143971 -0.315029
Br4   Br    Br    0.312156 0.759838 0.563043 -0.277162
Br5   Br    Br    0.346779 0.277269 0.663386 -0.408014
Br6   Br    Br    0.746629 0.089857 0.312653 -0.278683
Br7   Br    Br    0.748437 0.855425 0.318914 -0.342806
Br8   Br    Br    0.356053 0.652758 0.836143 -0.330626
Br9   Br    Br    0.322898 0.441187 0.882785 -0.287797
C1    C     C_R   0.325208 0.505241 0.502441 1.017179
C2    C     C_R   0.051630 0.423172 0.697564 -0.128646
C3    C     C_R   0.093996 0.463204 0.597781 0.023097
C4    C     C_R   0.499640 0.501177 0.257537 0.939909
C5    C     C_R   0.048428 0.483275 0.491883 0.004273
C6    C     C_R   0.090940 0.525282 0.391637 -0.075321
C7    C     C_R   0.042435 0.544847 0.286106 -0.104060
C8    C     C_R   0.951463 0.529744 0.285584 0.200402
C9    C     C_R   0.177933 0.493243 0.607637 0.238434
C10   C     C_R   0.226510 0.516418 0.504239 -0.169740
C11   C     C_R   0.179585 0.548020 0.403153 0.253875
C12   C     C_3   0.610235 0.472965 0.920992 -0.340153
C13   C     C_R   0.572573 0.790325 0.452075 0.006357
C14   C     C_R   0.569965 0.194828 0.444218 0.041232
C15   C     C_R   0.426166 0.808145 0.544308 0.383483
C16   C     C_R   0.428734 0.208276 0.550170 0.397879
C17   C     C_R   0.426749 0.908597 0.551829 -0.075229
C18   C     C_R   0.423039 0.109617 0.537275 -0.058753
C19   C     C_R   0.674865 0.494096 0.496075 1.009907
C20   C     C_R   0.500107 0.950075 0.497008 0.040959
C21   C     C_R   0.499170 0.050975 0.492883 0.037738
C22   C     C_R   0.574144 0.890906 0.446906 -0.116222
C23   C     C_R   0.824467 0.460421 0.385954 -0.119963
C24   C     C_R   0.573010 0.093654 0.442153 -0.117863
C25   C     C_R   0.352356 0.969750 0.601614 -0.123677
C26   C     C_R   0.345142 0.067677 0.574959 -0.124841
C27   C     C_R   0.646555 0.034424 0.389819 0.248623
C28   C     C_R   0.647153 0.933722 0.392217 0.225891
C29   C     C_R   0.503016 0.498962 0.742471 1.019644
C30   C     C_3   0.449131 0.607207 0.069701 -0.345584
C31   C     C_3   0.449973 0.410465 0.081006 -0.307204
C32   C     C_3   0.466198 0.607552 0.925921 0.017798
C33   C     C_3   0.445668 0.415545 0.936992 0.026274
C34   C     C_R   0.773627 0.477821 0.493800 -0.105960
C35   C     C_3   0.606486 0.490432 0.067353 -0.294143
C36   C     C_3   0.500128 0.502401 0.120877 -0.272062
C37   C     C_3   0.507463 0.498612 0.879047 -0.212850
C38   C     C_2   0.479331 0.697190 0.136803 0.983039
C39   C     C_2   0.496212 0.310264 0.126360 0.959276
C40   C     C_2   0.087587 0.564933 0.170002 1.072624
C41   C     C_2   0.290657 0.937364 0.697822 1.029325
C42   C     C_2   0.254613 0.122207 0.566014 1.021880
C43   C     C_2   0.345424 0.630403 0.088324 1.084406
C44   C     C_2   0.355498 0.406568 0.144195 1.128285
C45   C     C_R   0.818180 0.448369 0.597855 -0.214360
C46   C     C_2   0.511959 0.697017 0.886029 1.065989
C47   C     C_2   0.458230 0.310931 0.890308 1.030547
C48   C     C_2   0.651976 0.577723 0.108593 0.969020
C49   C     C_2   0.670390 0.412292 0.125725 0.987591
C50   C     C_2   0.683232 0.525091 0.854651 1.005008
C51   C     C_2   0.649868 0.373036 0.871915 0.990224
C52   C     C_2   0.824889 0.360676 0.339826 1.005156
C53   C     C_2   0.922013 0.361598 0.804181 1.020687
C54   C     C_R   0.912248 0.438999 0.596298 0.057937
C55   C     C_R   0.957719 0.470215 0.491345 0.061291
C56   C     C_R   0.909956 0.490914 0.387185 -0.056602
C57   C     C_R   0.961148 0.408960 0.697765 -0.076269
H1    H     H_    0.089671 0.404067 0.776165 0.236258
H2    H     H_    0.240496 0.735459 0.082070 0.384040
H3    H     H_    0.243634 0.338530 0.162343 0.380086
H4    H     H_    0.501100 0.841759 0.875611 0.375381
H5    H     H_    0.414628 0.179767 0.903181 0.371400
H6    H     H_    0.719296 0.692347 0.071359 0.409340
H7    H     H_    0.791621 0.336180 0.108727 0.392089
H8    H     H_    0.722764 0.600025 0.710645 0.365343
H9    H     H_    0.686256 0.293111 0.724443 0.392036
H10   H     H_    0.943010 0.355917 0.237477 0.325381
H11   H     H_    0.927470 0.333535 0.981346 0.384177
H12   H     H_    0.628045 0.743517 0.414266 0.209008
H13   H     H_    0.623694 0.230481 0.403474 0.230845
H14   H     H_    0.780992 0.435410 0.678682 0.218376
H15   H     H_    0.559193 0.802866 0.151292 0.366694
H16   H     H_    0.588594 0.195779 0.102404 0.387352
H17   H     H_    0.102747 0.658009 0.033929 0.382780
H18   H     H_    0.277400 0.882951 0.864566 0.397368
H19   H     H_    0.172818 0.211733 0.466725 0.358745
N1    N     N_R   0.500070 0.750030 0.500050 -0.132992
N2    N     N_R   0.500070 0.249970 0.500050 -0.128069
O1    O     O_R   0.367860 0.580280 0.500020 -0.556072
O2    O     O_R   0.550542 0.747416 0.098003 -0.773689
O3    O     O_2   0.465575 0.269853 0.214824 -0.568665
O4    O     O_R   0.567981 0.259662 0.064059 -0.751408
O5    O     O_2   0.136054 0.501171 0.119390 -0.539860
O6    O     O_R   0.070383 0.654440 0.115253 -0.703002
O7    O     O_2   0.210374 0.938755 0.682199 -0.501891
O8    O     O_R   0.325311 0.903776 0.806005 -0.731030
O9    O     O_2   0.199157 0.124406 0.649913 -0.540252
O10   O     O_R   0.235049 0.175299 0.461991 -0.751048
O11   O     O_2   0.293716 0.572077 0.074935 -0.542329
O12   O     O_R   0.367860 0.419720 0.500020 -0.585069
O13   O     O_R   0.308029 0.726651 0.089179 -0.692619
O14   O     O_2   0.333157 0.451425 0.235326 -0.646923
O15   O     O_R   0.300015 0.339545 0.108860 -0.657174
O16   O     O_2   0.586292 0.693688 0.838884 -0.559228
O17   O     O_R   0.465674 0.788159 0.905340 -0.698763
O18   O     O_2   0.516746 0.280292 0.817709 -0.580280
O19   O     O_R   0.400047 0.246470 0.936315 -0.693059
O20   O     O_2   0.661250 0.588365 0.215644 -0.633226
O21   O     O_R   0.687436 0.643318 0.029737 -0.675141
O22   O     O_2   0.647457 0.364267 0.210566 -0.592512
O23   O     O_R   0.500000 0.580270 0.314790 -0.589030
O24   O     O_R   0.760494 0.400535 0.085223 -0.722636
O25   O     O_2   0.759184 0.518027 0.892105 -0.527183
O26   O     O_R   0.671463 0.563196 0.740027 -0.782214
O27   O     O_2   0.687041 0.309955 0.933234 -0.501119
O28   O     O_R   0.655736 0.358358 0.748046 -0.775822
O29   O     O_2   0.765776 0.312794 0.374508 -0.527444
O30   O     O_R   0.895273 0.315234 0.267208 -0.737583
O31   O     O_2   0.863672 0.308872 0.793135 -0.583444
O32   O     O_R   0.955926 0.373045 0.916721 -0.720481
O33   O     O_R   0.500000 0.419730 0.314790 -0.565628
O34   O     O_R   0.632160 0.580270 0.499960 -0.597746
O35   O     O_R   0.632160 0.419730 0.499960 -0.578132
O36   O     O_R   0.500030 0.580270 0.685200 -0.575742
O37   O     O_R   0.500030 0.419730 0.685200 -0.555257
O38   O     O_2   0.435887 0.729078 0.226061 -0.531947
Zn1   Zn    Zn3+2 0.500020 0.607200 0.499990 1.108897
Zn2   Zn    Zn3+2 0.500020 0.392800 0.499990 1.111767

loop_
_geom_bond_atom_site_label_1
_geom_bond_atom_site_label_2
_ccdc_geom_bond_type
C42   O10   S    
N1    Zn1   S    
C49   O22   D    
C51   O27   D    
C10   C11   A    
N2    Zn2   S    
O33   Zn2   S    
C30   C32   S    
H3    O15   S    
C1    O1    A    
Br1   C9    S    
C4    O23   A    
C27   C28   A    
C15   C17   A    
C23   C52   S    
C12   C50   S    
Br4   C15   S    
C19   O35   A    
C41   O8    S    
C45   C54   A    
C6    C7    A    
H17   O6    S    
C46   O16   D    
C16   N2    A    
C24   C27   A    
C25   C26   A    
C33   C37   S    
O35   Zn2   S    
C32   C46   S    
O1    Zn1   S    
C33   C47   S    
C17   C25   A    
H6    O21   S    
C35   C49   S    
C7    C8    A    
C14   C24   A    
C39   O4    S    
C32   C37   S    
H7    O24   S    
C1    C10   S    
C29   O36   A    
C2    C57   A    
C42   O9    D    
C30   C36   S    
H15   O2    S    
C35   C48   S    
C31   C33   S    
C30   C43   S    
C54   C57   A    
C14   N2    A    
C18   C21   A    
C38   O2    S    
C6    C11   A    
C2    H1    S    
C38   O38   D    
C45   H14   S    
Br7   C28   S    
C31   C36   S    
C25   C41   S    
C29   C37   S    
C13   C22   A    
C53   C57   S    
C52   O30   S    
C49   O24   S    
C7    C40   S    
C13   H12   S    
C12   C51   S    
C44   O14   D    
C19   O34   A    
C9    C10   A    
O36   Zn1   S    
O12   Zn2   S    
C18   C26   A    
H8    O26   S    
Br2   C11   S    
C46   O17   S    
C43   O13   S    
H16   O4    S    
C22   C28   A    
H18   O8    S    
H2    O13   S    
C20   C21   A    
C12   C35   S    
C34   C45   A    
C44   O15   S    
C50   O26   S    
C5    C55   A    
C52   O29   D    
C50   O25   D    
Br9   C33   S    
Br8   C32   S    
C47   O19   S    
C53   O32   S    
O23   Zn1   S    
O37   Zn2   S    
Br5   C16   S    
C48   O20   D    
C3    C5    A    
C26   C42   S    
H9    O28   S    
C40   O5    D    
C4    O33   A    
C35   C36   S    
C30   C38   S    
C12   C37   S    
C31   C39   S    
C21   C24   A    
C41   O7    D    
H11   O32   S    
C2    C3    A    
C16   C18   A    
C19   C34   S    
C8    C56   A    
H10   O30   S    
C40   O6    S    
C55   C56   A    
O34   Zn1   S    
C20   C22   A    
C4    C36   S    
C43   O11   D    
C23   C34   A    
Br6   C27   S    
Br3   C8    S    
H4    O17   S    
C13   N1    A    
C1    O12   A    
C47   O18   D    
C53   O31   D    
H19   O10   S    
C54   C55   A    
C48   O21   S    
C17   C20   A    
C31   C44   S    
H5    O19   S    
C3    C9    A    
C5    C6    A    
C51   O28   S    
C39   O3    D    
C14   H13   S    
C15   N1    A    
C29   O37   A    
C23   C56   A    
