data_mof_unit_68598.cif
_audit_creation_date              2012-12-11T14:31:10-0500
_audit_creation_method            fapswitch 2.2
_symmetry_space_group_name_H-M    P1
_symmetry_Int_Tables_number       1
_space_group_crystal_system       triclinic
_cell_length_a                    6.904548
_cell_length_b                    14.262454
_cell_length_c                    16.46276
_cell_angle_alpha                 90.040576
_cell_angle_beta                  89.713152
_cell_angle_gamma                 90.076031
_cell_volume                      1621.16128894

loop_
_atom_site_label
_atom_site_type_symbol
_atom_type_description
_atom_site_fract_x
_atom_site_fract_y
_atom_site_fract_z
_atom_type_partial_charge
O1    O     O_R   0.469910 0.836130 0.163900 -0.547382
O2    O     O_R   0.530090 0.163870 0.836100 -0.553803
O3    O     O_R   0.530090 0.163870 0.663900 -0.551417
O4    O     O_R   0.469910 0.836130 0.336100 -0.550789
O5    O     O_R   0.969910 0.663870 0.336100 -0.552110
O6    O     O_R   0.030090 0.336130 0.663900 -0.556876
O7    O     O_R   0.030090 0.336130 0.836100 -0.550063
O8    O     O_R   0.969910 0.663870 0.163900 -0.552748
O9    O     O_R   0.140100 0.847470 0.335520 -0.534093
O10   O     O_R   0.859900 0.152530 0.664480 -0.528108
O11   O     O_R   0.859900 0.152530 0.835520 -0.535549
O12   O     O_R   0.140100 0.847470 0.164480 -0.524999
O13   O     O_R   0.640100 0.652530 0.164480 -0.534886
O14   O     O_R   0.359900 0.347470 0.835520 -0.524407
O15   O     O_R   0.359900 0.347470 0.664480 -0.522199
O16   O     O_R   0.640100 0.652530 0.335520 -0.527690
C1    C     C_R   0.312854 0.873581 0.361733 0.630846
C2    C     C_R   0.689413 0.129330 0.637516 0.668451
C3    C     C_R   0.686636 0.126212 0.861354 0.627910
C4    C     C_R   0.310920 0.870159 0.137168 0.674013
C5    C     C_R   0.813337 0.626076 0.138784 0.628181
C6    C     C_R   0.189171 0.370137 0.862904 0.669081
C7    C     C_R   0.188640 0.372605 0.638087 0.667843
C8    C     C_R   0.811277 0.624026 0.358150 0.668996
O17   O     O_3   0.303300 0.689750 0.250000 -0.375883
O18   O     O_3   0.696700 0.310250 0.750000 -0.364700
O19   O     O_3   0.803300 0.810250 0.250000 -0.367480
O20   O     O_3   0.196700 0.189750 0.750000 -0.375527
V1    V     V_3+5 0.028490 0.761170 0.250000 1.399748
V2    V     V_3+5 0.971510 0.238830 0.750000 1.409423
V3    V     V_3+5 0.528490 0.738830 0.250000 1.391517
V4    V     V_3+5 0.471510 0.261170 0.750000 1.430022
C9    C     C_2   0.826676 0.542051 0.414023 0.218033
C10   C     C_2   0.170854 0.446729 0.573958 0.222030
C11   C     C_2   0.167989 0.448320 0.921449 0.236012
C12   C     C_2   0.841895 0.544946 0.080036 0.232514
C13   C     C_2   0.332031 0.948214 0.078622 0.231579
C14   C     C_2   0.658203 0.045536 0.920580 0.230786
C15   C     C_2   0.667941 0.050560 0.579682 0.232388
C16   C     C_2   0.340821 0.953654 0.421853 0.226079
C17   C     C_2   0.996865 0.518849 0.452844 0.015707
C18   C     C_2   0.999694 0.464713 0.532885 0.005313
C19   C     C_2   0.048287 0.441533 0.988098 0.106136
C20   C     C_2   0.021473 0.522610 0.046250 0.069608
C21   C     C_2   0.451913 0.941694 0.012070 0.107223
C22   C     C_2   0.478554 0.022846 0.954038 0.069829
C23   C     C_2   0.548198 0.056616 0.513404 0.113541
C24   C     C_2   0.520288 0.975167 0.455718 0.067630
C25   C     C_3   0.807632 0.444636 0.575114 -0.650985
H1    H     H_    0.692094 0.491413 0.554752 0.277023
H2    H     H_    0.762319 0.370774 0.565283 0.213210
H3    H     H_    0.815905 0.461555 0.640857 0.180102
C26   C     C_3   0.185441 0.530622 0.406028 -0.622931
H4    H     H_    0.286339 0.473256 0.420058 0.259363
H5    H     H_    0.162854 0.523482 0.339533 0.159859
H6    H     H_    0.253661 0.599174 0.420001 0.233773
C27   C     C_3   0.206838 0.572354 0.071123 -0.666840
H7    H     H_    0.337715 0.541525 0.043612 0.268926
H8    H     H_    0.202938 0.647345 0.053030 0.203541
H9    H     H_    0.229966 0.563696 0.137234 0.194539
C28   C     C_3   0.962232 0.347361 0.010747 -0.747569
H10   H     H_    0.935274 0.343308 0.076948 0.209254
H11   H     H_    0.825794 0.335670 0.976840 0.243902
H12   H     H_    0.064591 0.289407 0.997075 0.165751
C29   C     C_3   0.293525 0.072552 0.929157 -0.668212
H13   H     H_    0.162526 0.042000 0.956740 0.270348
H14   H     H_    0.297979 0.147592 0.947187 0.201651
H15   H     H_    0.270254 0.063703 0.863069 0.196368
C30   C     C_3   0.537888 0.847609 0.989277 -0.745435
H16   H     H_    0.436027 0.789446 0.003292 0.166229
H17   H     H_    0.674953 0.836302 0.022772 0.245272
H18   H     H_    0.563449 0.843343 0.923004 0.207512
C31   C     C_3   0.704906 0.924172 0.431370 -0.666997
H19   H     H_    0.835754 0.953627 0.459605 0.267874
H20   H     H_    0.697057 0.849062 0.448941 0.203678
H21   H     H_    0.731700 0.933209 0.365460 0.198900
C32   C     C_3   0.466208 0.150963 0.489788 -0.764858
H22   H     H_    0.438681 0.153749 0.423767 0.212173
H23   H     H_    0.330906 0.164782 0.524392 0.241953
H24   H     H_    0.571777 0.208105 0.501742 0.167063
O21   O     O_3   0.333822 0.501331 0.559964 -0.548865
C33   C     C_3   0.305577 0.589118 0.598368 0.106812
H25   H     H_    0.295363 0.579761 0.665111 0.112311
H26   H     H_    0.171755 0.624495 0.576584 0.122078
C34   C     C_3   0.474852 0.654160 0.580096 -0.749468
H27   H     H_    0.436929 0.726329 0.599535 0.180689
H28   H     H_    0.507549 0.654918 0.514011 0.235837
H29   H     H_    0.604986 0.631578 0.614106 0.205389
O22   O     O_3   0.668171 0.481961 0.415649 -0.548628
C35   C     C_3   0.716708 0.398593 0.373163 0.141096
H30   H     H_    0.804652 0.351852 0.412426 0.135331
H31   H     H_    0.799682 0.413199 0.316219 0.074494
C36   C     C_3   0.533475 0.346346 0.349483 -0.784346
H32   H     H_    0.445333 0.390183 0.308068 0.211587
H33   H     H_    0.572078 0.280145 0.317776 0.179652
H34   H     H_    0.446940 0.329261 0.404467 0.230247
O23   O     O_3   0.684337 0.488355 0.061483 -0.546074
C37   C     C_3   0.619156 0.442314 0.132949 0.095978
H35   H     H_    0.526266 0.489522 0.169762 0.134018
H36   H     H_    0.740972 0.418066 0.171815 0.087067
C38   C     C_3   0.498859 0.356813 0.110402 -0.741583
H37   H     H_    0.590499 0.301835 0.082201 0.216000
H38   H     H_    0.431831 0.327664 0.166117 0.179952
H39   H     H_    0.382672 0.376140 0.067499 0.233196
O24   O     O_3   0.271015 0.529726 0.905565 -0.551785
C39   C     C_3   0.175637 0.581375 0.844775 0.123921
H40   H     H_    0.036523 0.609872 0.868724 0.125552
H41   H     H_    0.146126 0.537887 0.789970 0.073162
C40   C     C_3   0.304776 0.662861 0.819481 -0.738837
H42   H     H_    0.446300 0.636215 0.796945 0.226322
H43   H     H_    0.234503 0.703379 0.770219 0.164356
H44   H     H_    0.330480 0.709674 0.872199 0.227106
O25   O     O_3   0.816186 0.989971 0.940313 -0.546200
C41   C     C_3   0.882498 0.942637 0.869703 0.090028
H45   H     H_    0.974500 0.989501 0.832135 0.138249
H46   H     H_    0.761169 0.916966 0.831444 0.099363
C42   C     C_3   0.003538 0.857944 0.893417 -0.739765
H47   H     H_    0.111701 0.877138 0.939901 0.236574
H48   H     H_    0.910509 0.800998 0.917742 0.213771
H49   H     H_    0.080537 0.831420 0.838910 0.177340
O26   O     O_3   0.227672 0.029095 0.094278 -0.551886
C43   C     C_3   0.325207 0.082802 0.153167 0.118358
H50   H     H_    0.461680 0.112185 0.127294 0.127791
H51   H     H_    0.359996 0.040520 0.208017 0.071015
C44   C     C_3   0.194556 0.163425 0.178777 -0.743497
H52   H     H_    0.052827 0.135863 0.200271 0.224501
H53   H     H_    0.262814 0.203615 0.228806 0.171330
H54   H     H_    0.169596 0.210761 0.126445 0.226931
O27   O     O_3   0.182854 0.009277 0.442648 -0.546458
C45   C     C_3   0.116272 0.057509 0.372844 0.099256
H55   H     H_    0.023196 0.011290 0.335492 0.136162
H56   H     H_    0.237719 0.082914 0.334186 0.097240
C46   C     C_3   0.996977 0.142721 0.397965 -0.745667
H57   H     H_    0.091051 0.198052 0.423951 0.207603
H58   H     H_    0.922195 0.172230 0.344206 0.173288
H59   H     H_    0.886931 0.122820 0.443808 0.236876
O28   O     O_3   0.766384 0.968678 0.597496 -0.552849
C47   C     C_3   0.652832 0.914273 0.651022 0.117121
H60   H     H_    0.515535 0.892247 0.621343 0.125120
H61   H     H_    0.617629 0.953859 0.707503 0.076553
C48   C     C_3   0.766334 0.826894 0.673847 -0.749683
H62   H     H_    0.904977 0.847004 0.702962 0.220952
H63   H     H_    0.680448 0.783397 0.716872 0.178247
H64   H     H_    0.799318 0.785137 0.618537 0.225598

loop_
_geom_bond_atom_site_label_1
_geom_bond_atom_site_label_2
_ccdc_geom_bond_type
O17   V3    S    
C16   O27   S    
C15   O28   S    
O18   V4    S    
C38   H37   S    
O12   V1    S    
O19   V1    S    
C17   C18   S    
C26   H5    S    
C10   C18   D    
C19   C20   S    
C25   H1    S    
C41   H45   S    
C35   H30   S    
O15   V4    S    
C5    C12   S    
C32   H22   S    
O16   V3    S    
C6    C11   S    
O11   C3    A    
C36   H32   S    
O7    C6    A    
O8    V1    S    
O25   C41   S    
C42   H48   S    
C34   H27   S    
C27   H8    S    
C39   H40   S    
O1    V3    S    
O3    C2    A    
O2    V4    S    
C31   H19   S    
C30   H17   S    
C40   H43   S    
C48   H62   S    
O11   V2    S    
C29   H14   S    
C46   H59   S    
C12   O23   S    
C10   O21   S    
C11   C19   D    
C28   H10   S    
O9    V1    S    
C7    C10   S    
O15   C7    A    
O16   C8    A    
O7    V2    S    
C46   H58   S    
C31   H20   S    
C30   H16   S    
O23   C37   S    
O5    V1    S    
C32   H23   S    
O17   V1    S    
C34   H28   S    
C21   C30   S    
O4    V3    S    
O20   V4    S    
C22   C29   S    
C42   H49   S    
C14   O25   S    
C27   H9    S    
C25   H2    S    
C21   C22   S    
O19   V3    S    
O21   C33   S    
C1    C16   S    
C28   H12   S    
C45   H56   S    
C2    C15   S    
C11   O24   S    
C3    C14   S    
C9    O22   S    
C44   H54   S    
O10   V2    S    
C35   H31   S    
C23   C24   S    
C20   C27   S    
C29   H15   S    
O12   C4    A    
C28   H11   S    
O8    C5    A    
O13   C5    A    
C17   C26   S    
O26   C43   S    
C47   H61   S    
C13   O26   S    
O4    C1    A    
O9    C1    A    
O6    V2    S    
C33   H25   S    
C38   H39   S    
C37   H36   S    
C46   H57   S    
C31   H21   S    
C40   H44   S    
C45   C46   S    
C23   C32   S    
C43   H51   S    
C37   C38   S    
C30   H18   S    
C19   C28   S    
C35   C36   S    
C15   C23   D    
O27   C45   S    
O28   C47   S    
C34   H29   S    
C16   C24   D    
O1    C4    A    
O2    C3    A    
C24   C31   S    
O13   V3    S    
C25   H3    S    
O14   V4    S    
C47   C48   S    
C41   H46   S    
C26   H4    S    
C48   H64   S    
C36   H34   S    
C33   C34   S    
O24   C39   S    
C33   H26   S    
C8    C9    S    
C38   H38   S    
C9    C17   D    
O14   C6    A    
C43   C44   S    
C48   H63   S    
C45   H55   S    
C43   H50   S    
C42   H47   S    
C4    C13   S    
C32   H24   S    
C27   H7    S    
C44   H52   S    
O5    C8    A    
C39   H41   S    
O10   C2    A    
O6    C7    A    
O20   V2    S    
C29   H13   S    
O3    V4    S    
C26   H6    S    
C14   C22   D    
C41   C42   S    
C12   C20   D    
C47   H60   S    
C18   C25   S    
C36   H33   S    
C37   H35   S    
C44   H53   S    
O22   C35   S    
C40   H42   S    
C13   C21   D    
C39   C40   S    
O18   V2    S    
