data_mof_unit_14936.cif
_audit_creation_date              2012-12-10T20:31:50-0500
_audit_creation_method            fapswitch 2.2
_symmetry_space_group_name_H-M    P1
_symmetry_Int_Tables_number       1
_space_group_crystal_system       triclinic
_cell_length_a                    9.904751
_cell_length_b                    10.645777
_cell_length_c                    15.567652
_cell_angle_alpha                 90.449546
_cell_angle_beta                  68.672099
_cell_angle_gamma                 89.081025
_cell_volume                      1528.7301286

loop_
_atom_site_label
_atom_site_type_symbol
_atom_type_description
_atom_site_fract_x
_atom_site_fract_y
_atom_site_fract_z
_atom_type_partial_charge
C1    C     C_R   0.499285 0.739524 0.499925 0.896652
C2    C     C_R   0.430593 0.443682 0.906047 0.098868
C3    C     C_R   0.294633 0.392080 0.956740 0.132359
C4    C     C_R   0.536553 0.456399 0.946197 0.084476
C5    C     C_R   0.492918 0.446747 0.042446 0.067372
C6    C     C_R   0.356739 0.394991 0.092796 -0.222646
C7    C     C_R   0.260186 0.365116 0.049759 -0.242000
C8    C     C_R   0.685047 0.474172 0.893366 -0.238512
C9    C     C_R   0.785823 0.486137 0.936024 -0.241807
C10   C     C_R   0.739931 0.489023 0.031861 0.144880
C11   C     C_R   0.590487 0.482020 0.085082 0.073189
C12   C     C_R   0.409933 0.492690 0.675155 0.866792
C13   C     C_R   0.840159 0.500132 0.075742 -0.217719
C14   C     C_R   0.791941 0.501556 0.171707 -0.251326
C15   C     C_R   0.542852 0.516850 0.178495 0.125786
C16   C     C_R   0.438814 0.938212 0.448945 0.073246
C17   C     C_R   0.494508 0.871381 0.504923 -0.128373
C18   C     C_R   0.535193 0.933004 0.571152 -0.231949
C19   C     C_R   0.536760 0.063710 0.573229 0.164824
C20   C     C_R   0.496231 0.128865 0.507394 -0.102080
C21   C     C_R   0.436709 0.065858 0.451602 0.048027
C22   C     C_3   0.468686 0.076064 0.350354 -0.476472
C23   C     C_R   0.499892 0.260621 0.501759 0.890041
C24   C     C_3   0.472037 0.932827 0.346991 -0.028946
C25   C     C_R   0.888691 0.563897 0.567130 0.184325
C26   C     C_R   0.963705 0.426026 0.440197 -0.139812
C27   C     C_R   0.107090 0.425107 0.440798 -0.128803
C28   C     C_R   0.031981 0.567887 0.564808 0.132463
C29   C     C_3   0.018352 0.707767 0.583683 -0.073518
C30   C     C_3   0.861487 0.700484 0.589406 -0.054108
C31   C     C_R   0.589592 0.504455 0.324577 0.865683
C32   C     C_R   0.358160 0.463454 0.773603 -0.079944
C33   C     C_R   0.642794 0.509157 0.223835 -0.085282
C34   C     C_R   0.196362 0.366811 0.913132 -0.227921
C35   C     C_R   0.228875 0.398184 0.820391 0.181868
C36   C     C_R   0.455302 0.485881 0.817710 -0.316589
H1    H     H_    0.157357 0.323898 0.089746 0.144970
H2    H     H_    0.568476 0.879573 0.619079 0.159711
H3    H     H_    0.375579 0.117920 0.336071 0.177253
H4    H     H_    0.574513 0.120766 0.313220 0.199541
H5    H     H_    0.382005 0.892681 0.329645 0.163517
H6    H     H_    0.029762 0.732118 0.650378 0.176343
H7    H     H_    0.836043 0.752261 0.535214 0.203249
H8    H     H_    0.551511 0.537779 0.782205 0.171709
N1    N     N_R   0.856900 0.500860 0.500610 -0.113794
N2    N     N_R   0.142540 0.500820 0.500610 -0.098490
O1    O     O_R   0.385310 0.683210 0.499990 -0.612787
O2    O     O_R   0.614650 0.683240 0.500000 -0.624056
O3    O     O_R   0.319830 0.499970 0.632240 -0.608340
O4    O     O_R   0.549170 0.500000 0.632250 -0.615781
O5    O     O_R   0.385350 0.316760 0.500000 -0.616680
O6    O     O_R   0.614690 0.316790 0.500010 -0.613554
O7    O     O_R   0.450830 0.500000 0.367750 -0.607145
O8    O     O_R   0.680170 0.500030 0.367760 -0.620143
Zn1   Zn    Zn3+2 0.346870 0.499980 0.499990 0.934050
Zn2   Zn    Zn3+2 0.653130 0.500020 0.500010 0.934579
H9    H     H_    0.955216 0.503655 0.036235 0.154202
C37   C     C_3   0.581723 0.130233 0.644191 -0.863623
H10   H     H_    0.496358 0.199742 0.683502 0.233992
H11   H     H_    0.597960 0.063360 0.694175 0.229658
H12   H     H_    0.685423 0.178938 0.609945 0.257930
C38   C     C_3   0.621493 0.875787 0.290552 -0.856361
H13   H     H_    0.707472 0.916818 0.311594 0.251045
H14   H     H_    0.621027 0.772836 0.300626 0.229179
H15   H     H_    0.646931 0.893696 0.216210 0.248541
H16   H     H_    0.939174 0.368366 0.390434 0.142799
H17   H     H_    0.190011 0.366109 0.391853 0.140611
C39   C     C_3   0.400122 0.589950 0.221464 -0.876980
H18   H     H_    0.363428 0.630467 0.167934 0.236717
H19   H     H_    0.313416 0.529651 0.266487 0.246316
H20   H     H_    0.413825 0.671090 0.262545 0.241287
C40   C     C_3   0.108446 0.790930 0.504031 -0.841655
H21   H     H_    0.162402 0.736513 0.438979 0.254188
H22   H     H_    0.041206 0.867373 0.490770 0.221315
H23   H     H_    0.189497 0.838619 0.525148 0.253615
C41   C     C_3   0.751322 0.727536 0.686295 -0.948576
H24   H     H_    0.754727 0.828438 0.703812 0.251249
H25   H     H_    0.640855 0.707445 0.688349 0.258601
H26   H     H_    0.774958 0.670163 0.738608 0.240267
H27   H     H_    0.870955 0.500658 0.204882 0.170822
H28   H     H_    0.899062 0.496478 0.894309 0.161866
H29   H     H_    0.096018 0.320087 0.950801 0.142206
C42   C     C_3   0.129574 0.355093 0.772552 -0.891474
H30   H     H_    0.191075 0.294274 0.712241 0.252496
H31   H     H_    0.038751 0.299293 0.818857 0.230994
H32   H     H_    0.082200 0.437286 0.749337 0.244278
H33   H     H_    0.326877 0.371905 0.164748 0.156568
H34   H     H_    0.726899 0.470711 0.818895 0.150734

loop_
_geom_bond_atom_site_label_1
_geom_bond_atom_site_label_2
_ccdc_geom_bond_type
C8    C9    A    
C16   C21   A    
C29   H6    S    
C19   C20   A    
C41   H26   S    
C4    C8    A    
C14   C33   A    
C12   O3    A    
C25   C28   A    
C28   N2    A    
C26   C27   A    
C29   C30   S    
C32   C36   A    
C28   C29   S    
C41   H25   S    
C5    C11   A    
C3    C7    A    
C5    C6    A    
C13   H9    S    
C22   H3    S    
C37   H11   S    
C34   C35   A    
C38   H14   S    
C26   N1    A    
C39   H18   S    
C11   C15   A    
N1    Zn2   S    
C16   C17   A    
N2    Zn1   S    
C31   C33   S    
C14   H27   S    
C9    C10   A    
C29   C40   S    
C37   H12   S    
C16   C24   S    
C21   C22   S    
C12   C32   S    
C24   H5    S    
C40   H23   S    
O7    Zn1   S    
C19   C37   S    
O8    Zn2   S    
C26   H16   S    
C32   C35   A    
C41   H24   S    
C40   H22   S    
C35   C42   S    
C18   C19   A    
C3    C34   A    
C37   H10   S    
O3    Zn1   S    
O4    Zn2   S    
C6    H33   S    
C8    H34   S    
C2    C4    A    
C38   H13   S    
C30   C41   S    
C23   O5    A    
C42   H30   S    
C20   C23   S    
C22   H4    S    
C17   C18   A    
C7    H1    S    
C31   O7    A    
C27   N2    A    
C42   H31   S    
C22   C24   S    
C30   H7    S    
C36   H8    S    
C25   N1    A    
O1    Zn1   S    
C2    C36   A    
C25   C30   S    
O2    Zn2   S    
C24   C38   S    
C38   H15   S    
C1    O1    A    
C40   H21   S    
C10   C13   A    
C12   O4    A    
C1    O2    A    
C6    C7    A    
C1    C17   S    
C2    C3    A    
C18   H2    S    
C23   O6    A    
C39   H20   S    
C15   C39   S    
O5    Zn1   S    
C31   O8    A    
C27   H17   S    
C10   C11   A    
C4    C5    A    
C42   H32   S    
C20   C21   A    
C39   H19   S    
C34   H29   S    
C13   C14   A    
C15   C33   A    
O6    Zn2   S    
C9    H28   S    
