data_mof_unit_10683.cif
_audit_creation_date              2012-12-10T16:59:22-0500
_audit_creation_method            fapswitch 2.2
_symmetry_space_group_name_H-M    P1
_symmetry_Int_Tables_number       1
_space_group_crystal_system       triclinic
_cell_length_a                    7.820774
_cell_length_b                    8.607412
_cell_length_c                    27.611985
_cell_angle_alpha                 91.916998
_cell_angle_beta                  85.039424
_cell_angle_gamma                 94.935253
_cell_volume                      1844.28447324

loop_
_atom_site_label
_atom_site_type_symbol
_atom_type_description
_atom_site_fract_x
_atom_site_fract_y
_atom_site_fract_z
_atom_type_partial_charge
C1    C     C_R   0.545809 0.794081 0.498654 0.864644
C2    C     C_R   0.462672 0.611426 0.131844 -0.058365
C3    C     C_R   0.500789 0.496109 0.646250 -0.106494
C4    C     C_R   0.484843 0.474934 0.354193 -0.106956
C5    C     C_R   0.507143 0.609683 0.029064 0.090935
C6    C     C_R   0.373268 0.347125 0.975568 0.077841
C7    C     C_R   0.346687 0.352387 0.026838 -0.042382
C8    C     C_R   0.529227 0.606865 0.977716 -0.016778
C9    C     C_R   0.425073 0.478317 0.053264 0.063623
C10   C     C_R   0.457555 0.477524 0.951296 0.066984
C11   C     C_R   0.552082 0.745080 0.056755 -0.251185
C12   C     C_R   0.454148 0.205905 0.501272 0.862749
C13   C     C_R   0.326781 0.211792 0.948027 -0.249301
C14   C     C_R   0.531133 0.747930 0.107357 0.153899
C15   C     C_R   0.352310 0.207657 0.897410 0.271956
C16   C     C_R   0.500955 0.500091 0.593723 0.871689
C17   C     C_R   0.497571 0.495630 0.406284 0.873504
C18   C     C_R   0.628429 0.726089 0.951739 0.022534
C19   C     C_R   0.232714 0.243119 0.052919 0.025770
C20   C     C_2   0.567934 0.957604 0.503340 0.144039
C21   C     C_2   0.431944 0.042427 0.496651 0.144758
C22   C     C_R   0.510646 0.623025 0.826301 0.617021
C23   C     C_R   0.473218 0.478124 0.900130 -0.158869
C24   C     C_R   0.365643 0.329186 0.177685 0.651777
C25   C     C_R   0.461469 0.346158 0.822213 0.553351
C26   C     C_R   0.437693 0.603397 0.182699 0.566622
C27   C     C_R   0.350278 0.426399 0.723485 0.237281
C28   C     C_R   0.600229 0.511516 0.271094 0.235955
C29   C     C_R   0.354466 0.432140 0.673306 -0.238801
C30   C     C_R   0.621955 0.521144 0.320702 -0.225853
C31   C     C_R   0.644484 0.556662 0.669466 -0.260013
C32   C     C_R   0.329325 0.409519 0.338103 -0.276894
C33   C     C_R   0.641578 0.556490 0.719943 0.218077
C34   C     C_R   0.412636 0.476045 0.104400 -0.155972
C35   C     C_R   0.305231 0.397048 0.289002 0.222268
C36   C     C_R   0.493633 0.490253 0.747677 0.175515
C37   C     C_R   0.439288 0.452824 0.254711 0.168245
C38   C     C_3   0.766107 0.967547 0.872836 0.202805
C39   C     C_3   0.800738 0.110908 0.906698 -0.366205
C40   C     C_3   0.862622 0.259771 0.879636 -0.811875
C41   C     C_3   0.183100 0.956764 0.112880 0.148341
C42   C     C_3   0.019293 0.848959 0.109278 -0.309428
C43   C     C_3   0.055489 0.682332 0.094177 -0.851471
C44   C     C_3   0.730491 0.020611 0.566946 0.104572
C45   C     C_R   0.527602 0.618461 0.876359 -0.115603
C46   C     C_3   0.904012 0.095829 0.580990 -0.311117
C47   C     C_3   0.913746 0.098247 0.635984 -0.878025
C48   C     C_3   0.268955 0.975044 0.433339 0.105518
C49   C     C_3   0.100951 0.887233 0.419644 -0.311902
C50   C     C_3   0.093001 0.875412 0.364593 -0.866393
C51   C     C_R   0.344211 0.338890 0.128135 -0.133970
C52   C     C_R   0.602081 0.746394 0.902781 0.478791
C53   C     C_R   0.250144 0.220846 0.102321 0.492977
C54   C     C_R   0.427337 0.341589 0.872929 -0.082756
H1    H     H_    0.757658 0.607402 0.648386 0.172900
H2    H     H_    0.870257 0.887199 0.872647 0.143696
H3    H     H_    0.682764 0.132969 0.930442 0.260931
H4    H     H_    0.901154 0.087160 0.930594 0.253773
H5    H     H_    0.995277 0.251767 0.862866 0.287405
H6    H     H_    0.863635 0.361104 0.905633 0.275391
H7    H     H_    0.777211 0.280153 0.850934 0.276675
H8    H     H_    0.252034 0.911277 0.141986 0.219027
H9    H     H_    0.264157 0.950281 0.077639 0.115402
H10   H     H_    0.946261 0.846504 0.145487 0.280541
H11   H     H_    0.940563 0.893762 0.082261 0.276573
H12   H     H_    0.224377 0.368845 0.364046 0.171725
H13   H     H_    0.141002 0.680459 0.059955 0.278682
H14   H     H_    0.932394 0.612987 0.088079 0.300545
H15   H     H_    0.115072 0.627692 0.123590 0.269784
H16   H     H_    0.714238 0.898410 0.579830 0.127026
H17   H     H_    0.626267 0.087742 0.585263 0.131224
H18   H     H_    0.009052 0.029198 0.563269 0.255015
H19   H     H_    0.923109 0.217445 0.567971 0.243304
H20   H     H_    0.042854 0.149122 0.644857 0.271003
H21   H     H_    0.814760 0.170405 0.654303 0.281783
H22   H     H_    0.893386 0.977883 0.649928 0.278220
H23   H     H_    0.012396 0.381471 0.463454 0.200786
H24   H     H_    0.378852 0.914418 0.415282 0.128241
H25   H     H_    0.275372 0.096325 0.419969 0.129364
H26   H     H_    0.090570 0.767647 0.434209 0.245839
H27   H     H_    0.990022 0.948778 0.436177 0.252586
H28   H     H_    0.102430 0.993667 0.349148 0.282461
H29   H     H_    0.968732 0.812803 0.355960 0.267616
H30   H     H_    0.199741 0.809651 0.347515 0.279916
H31   H     H_    0.987621 0.618589 0.536527 0.201726
H32   H     H_    0.743453 0.569820 0.333085 0.178716
H33   H     H_    0.243495 0.384089 0.655224 0.176900
H34   H     H_    0.599251 0.852632 0.039191 0.197906
H35   H     H_    0.273346 0.106132 0.965701 0.197386
H36   H     H_    0.767890 0.004742 0.834636 0.232968
I1    I     I_    0.866616 0.660507 0.750127 -0.291224
I2    I     I_    0.058395 0.297325 0.272610 -0.238657
I3    I     I_    0.814759 0.595388 0.223450 -0.274970
I4    I     I_    0.120887 0.316853 0.758452 -0.305304
I5    I     I_    0.616012 0.965502 0.140987 -0.226906
I6    I     I_    0.245673 0.001533 0.862542 -0.190273
I7    I     I_    0.885053 0.775527 0.972041 -0.437562
I8    I     I_    0.981341 0.190650 0.029555 -0.373449
N1    N     N_R   0.488552 0.486661 0.799799 -0.352580
N2    N     N_R   0.410879 0.461251 0.204155 -0.351451
N3    N     N_2   0.950320 0.457960 0.486880 -0.179441
N4    N     N_2   0.049680 0.542040 0.513120 -0.181904
O1    O     O_R   0.389250 0.738570 0.503220 -0.579739
O2    O     O_2   0.345468 0.189330 0.198881 -0.465088
O3    O     O_2   0.443295 0.734163 0.210914 -0.491328
O4    O     O_2   0.471331 0.213054 0.795388 -0.478673
O5    O     O_3   0.600114 0.895862 0.885780 -0.594085
O6    O     O_3   0.140846 0.109505 0.127440 -0.562346
O7    O     O_3   0.727501 0.022946 0.515875 -0.626247
O8    O     O_3   0.271973 0.977020 0.484461 -0.628473
O9    O     O_R   0.610750 0.261430 0.496780 -0.578478
O10   O     O_R   0.678390 0.711630 0.494810 -0.610774
O11   O     O_R   0.321610 0.288370 0.505190 -0.611952
O12   O     O_R   0.355440 0.513440 0.575450 -0.613432
O13   O     O_R   0.644560 0.486560 0.424550 -0.612826
O14   O     O_R   0.644590 0.486500 0.567040 -0.632472
O15   O     O_R   0.355410 0.513500 0.432960 -0.635041
O16   O     O_2   0.520086 0.760816 0.803985 -0.458297
Zn1   Zn    Zn3+2 0.306940 0.517990 0.505620 0.954554
Zn2   Zn    Zn3+2 0.693060 0.482010 0.494380 0.957946

loop_
_geom_bond_atom_site_label_1
_geom_bond_atom_site_label_2
_ccdc_geom_bond_type
C48   O8    S    
N3    N4    D    
C40   H6    S    
C41   O6    S    
C27   C29   A    
C41   C42   S    
H23   N3    S    
C21   O8    S    
C50   H30   S    
C17   O13   A    
C34   C51   A    
C23   C45   A    
C37   N2    S    
C48   H25   S    
C35   C37   A    
C47   H22   S    
C5    C11   A    
C33   I1    S    
C1    O10   A    
C38   C39   S    
C11   C14   A    
C48   H24   S    
C39   H3    S    
C33   C36   A    
C44   H17   S    
C22   O16   S    
C49   H27   S    
C38   O5    S    
C3    C29   A    
O11   Zn1   S    
C25   N1    A    
C52   O5    S    
C43   H14   S    
C50   H29   S    
C42   H11   S    
C31   C33   A    
C44   H16   S    
C18   I7    S    
C30   H32   S    
C1    O1    A    
C46   H18   S    
O12   Zn1   S    
C17   O15   A    
C44   O7    S    
C2    C34   A    
C24   C51   A    
C43   H15   S    
C40   H5    S    
C41   H8    S    
C16   O14   A    
C26   O3    S    
C19   I8    S    
C44   C46   S    
C25   O4    S    
C18   C52   A    
C32   C35   A    
C25   C54   A    
C15   I6    S    
O10   Zn2   S    
C45   C52   A    
C39   H4    S    
C12   C21   S    
C8    C18   A    
C40   H7    S    
O14   Zn2   S    
C28   I3    S    
C24   O2    S    
C3    C16   S    
C15   C54   A    
C5    C9    A    
C11   H34   S    
C2    C26   A    
C3    C31   A    
C4    C32   A    
C4    C17   S    
C8    C10   A    
C48   C49   S    
C49   C50   S    
C7    C19   A    
C13   C15   A    
C9    C34   A    
C10   C23   A    
C42   C43   S    
C41   H9    S    
C42   H10   S    
C14   I5    S    
C39   C40   S    
C50   H28   S    
C23   C54   A    
C32   H12   S    
C12   O11   A    
C7    C9    A    
C46   C47   S    
C1    C20   S    
C22   N1    A    
C13   H35   S    
C24   N2    A    
N3    Zn2   S    
O1    Zn1   S    
C47   H20   S    
C16   O12   A    
C6    C10   A    
C5    C8    A    
C6    C7    A    
C27   C36   A    
C38   H36   S    
C49   H26   S    
O15   Zn1   S    
C47   H21   S    
C35   I2    S    
C6    C13   A    
C53   O6    S    
C19   C53   A    
C28   C37   A    
C28   C30   A    
C36   N1    S    
C12   O9    A    
C2    C14   A    
C29   H33   S    
N4    Zn1   S    
C51   C53   A    
C20   O7    S    
C22   C45   A    
C38   H2    S    
C20   C21   D    
C43   H13   S    
O13   Zn2   S    
O9    Zn2   S    
C27   I4    S    
C31   H1    S    
C46   H19   S    
C4    C30   A    
H31   N4    S    
C26   N2    A    
