data_mof_unit_20155.cif
_audit_creation_date              2012-12-11T14:42:23-0500
_audit_creation_method            fapswitch 2.2
_symmetry_space_group_name_H-M    P1
_symmetry_Int_Tables_number       1
_space_group_crystal_system       monoclinic
_cell_length_a                    18.788507
_cell_length_b                    10.938426
_cell_length_c                    18.69143
_cell_angle_alpha                 90.0
_cell_angle_beta                  90.431834
_cell_angle_gamma                 90.0
_cell_volume                      3841.29178449

loop_
_atom_site_label
_atom_site_type_symbol
_atom_type_description
_atom_site_fract_x
_atom_site_fract_y
_atom_site_fract_z
_atom_type_partial_charge
C1    C     C_R   0.728279 0.952993 0.852904 0.533779
C2    C     C_R   0.252611 0.396873 0.919735 0.033863
C3    C     C_R   0.247389 0.896873 0.080265 0.033863
C4    C     C_R   0.752611 0.896873 0.919736 0.033961
C5    C     C_R   0.790273 0.307511 0.048391 -0.122418
C6    C     C_R   0.209729 0.307510 0.951608 -0.122492
C7    C     C_R   0.290271 0.807510 0.048392 -0.122492
C8    C     C_R   0.709727 0.807511 0.951609 -0.122418
C9    C     C_R   0.780184 0.277191 0.977294 -0.127986
C10   C     C_R   0.219817 0.277192 0.022706 -0.128004
C11   C     C_R   0.280183 0.777192 0.977294 -0.128004
C12   C     C_R   0.271721 0.952992 0.147096 0.533276
C13   C     C_R   0.719816 0.777191 0.022706 -0.127986
C14   C     C_R   0.726730 0.334469 0.936978 0.019322
C15   C     C_R   0.273269 0.334472 0.063022 0.019250
C16   C     C_R   0.226731 0.834472 0.936978 0.019250
C17   C     C_R   0.773270 0.834469 0.063022 0.019322
C18   C     C_R   0.484206 0.276979 0.540823 -0.134920
C19   C     C_R   0.487484 0.280111 0.468335 -0.134428
C20   C     C_R   0.012514 0.780111 0.531665 -0.134429
C21   C     C_R   0.015793 0.776980 0.459178 -0.134921
C22   C     C_R   0.491417 0.170820 0.429413 0.022115
C23   C     C_R   0.228279 0.452992 0.852904 0.533276
C24   C     C_R   0.496483 0.166831 0.576317 0.021590
C25   C     C_R   0.003516 0.666831 0.423683 0.021590
C26   C     C_R   0.008582 0.670821 0.570587 0.022116
C27   C     C_R   0.496870 0.058191 0.464557 -0.119568
C28   C     C_R   0.500346 0.056237 0.538467 -0.116977
C29   C     C_R   0.999654 0.556237 0.461533 -0.116977
C30   C     C_R   0.003130 0.558191 0.535443 -0.119568
C31   C     C_R   0.779504 0.271047 0.521983 -0.097492
C32   C     C_R   0.220347 0.271682 0.477987 -0.095297
C33   C     C_R   0.279654 0.771683 0.522014 -0.095298
C34   C     C_R   0.771721 0.452993 0.147096 0.533779
C35   C     C_R   0.720496 0.771047 0.478017 -0.097491
C36   C     C_R   0.787579 0.294445 0.449229 0.014817
C37   C     C_R   0.212325 0.294952 0.550727 0.016747
C38   C     C_R   0.287676 0.794953 0.449274 0.016747
C39   C     C_R   0.712421 0.794445 0.550771 0.014817
C40   C     C_R   0.559291 0.181901 0.858280 0.542307
C41   C     C_R   0.440682 0.181905 0.141724 0.542839
C42   C     C_R   0.059318 0.681905 0.858275 0.542840
C43   C     C_R   0.940709 0.681901 0.141720 0.542307
C44   C     C_R   0.745772 0.388009 0.416627 -0.018634
C45   C     C_R   0.688579 0.443769 0.042599 -0.138493
C46   C     C_R   0.254014 0.388655 0.583303 -0.016468
C47   C     C_R   0.245986 0.888654 0.416697 -0.016467
C48   C     C_R   0.754228 0.888009 0.583373 -0.018634
C49   C     C_R   0.688174 0.437017 0.454418 -0.147403
C50   C     C_R   0.310873 0.439232 0.545203 -0.152436
C51   C     C_R   0.189126 0.939230 0.454796 -0.152436
C52   C     C_R   0.811826 0.937017 0.545582 -0.147403
C53   C     C_R   0.678610 0.407591 0.526306 -0.127514
C54   C     C_R   0.319809 0.411140 0.473136 -0.133583
C55   C     C_R   0.180190 0.911137 0.526863 -0.133580
C56   C     C_R   0.311420 0.443772 0.957401 -0.138591
C57   C     C_R   0.821390 0.907592 0.473693 -0.127515
C58   C     C_R   0.727694 0.331507 0.561585 -0.015199
C59   C     C_R   0.271637 0.333094 0.438241 -0.011935
C60   C     C_R   0.228363 0.833093 0.561759 -0.011936
C61   C     C_R   0.772306 0.831507 0.438415 -0.015199
C62   C     C_R   0.723483 0.311161 0.860036 0.549238
C63   C     C_R   0.276516 0.311163 0.139963 0.549283
C64   C     C_R   0.223483 0.811163 0.860036 0.549283
C65   C     C_R   0.776517 0.811161 0.139963 0.549238
C66   C     C_R   0.729598 0.949542 0.649138 0.526629
C67   C     C_R   0.188579 0.943772 0.042599 -0.138591
C68   C     C_R   0.270413 0.949555 0.350796 0.526703
C69   C     C_R   0.229587 0.449555 0.649204 0.526702
C70   C     C_R   0.770402 0.449541 0.350862 0.526629
C71   C     C_R   0.527503 0.175787 0.646211 0.553543
C72   C     C_R   0.469914 0.176516 0.355850 0.553223
C73   C     C_R   0.030086 0.676516 0.644150 0.553223
C74   C     C_R   0.972496 0.675787 0.353789 0.553543
C75   C     C_R   0.724537 0.309607 0.638891 0.568182
C76   C     C_R   0.275286 0.310113 0.361162 0.566500
C77   C     C_R   0.224713 0.810113 0.638837 0.566500
C78   C     C_R   0.811421 0.943770 0.957401 -0.138493
C79   C     C_R   0.775463 0.809608 0.361109 0.568181
C80   C     C_2   0.537071 0.176989 0.932245 -0.101159
C81   C     C_2   0.462858 0.176999 0.067745 -0.101496
C82   C     C_2   0.037142 0.676999 0.932254 -0.101496
C83   C     C_2   0.962929 0.676990 0.067755 -0.101160
C84   C     C_2   0.486303 0.074193 0.036653 -0.143722
C85   C     C_2   0.513566 0.074199 0.963308 -0.143718
C86   C     C_2   0.986434 0.574198 0.036691 -0.143718
C87   C     C_2   0.013696 0.574193 0.963347 -0.143723
C88   C     C_R   0.678325 0.412921 0.970882 -0.145735
C89   C     C_R   0.747389 0.396873 0.080264 0.033961
C90   C     C_R   0.321673 0.412927 0.029118 -0.145790
C91   C     C_R   0.178327 0.912927 0.970882 -0.145790
C92   C     C_R   0.821675 0.912921 0.029118 -0.145734
C93   C     C_2   0.840235 0.220414 0.409247 0.243414
C94   C     C_2   0.159628 0.220985 0.590650 0.243231
C95   C     C_2   0.340375 0.720987 0.409351 0.243229
C96   C     C_2   0.659765 0.720414 0.590754 0.243415
Cr1   Cr    Cr6+3 0.769270 0.163730 0.750710 1.014852
Cr2   Cr    Cr6+3 0.385840 0.322500 0.252290 1.019371
Cr3   Cr    Cr6+3 0.114160 0.822500 0.747710 1.019372
Cr4   Cr    Cr6+3 0.885840 0.822500 0.252290 1.019659
Cr5   Cr    Cr6+3 0.230730 0.163730 0.249290 1.013497
Cr6   Cr    Cr6+3 0.269270 0.663730 0.750710 1.013497
Cr7   Cr    Cr6+3 0.730730 0.663730 0.249290 1.014852
Cr8   Cr    Cr6+3 0.612620 0.009790 0.748780 1.020761
Cr9   Cr    Cr6+3 0.387380 0.009790 0.251220 1.023061
Cr10  Cr    Cr6+3 0.112620 0.509790 0.748780 1.023061
Cr11  Cr    Cr6+3 0.887380 0.509790 0.251220 1.020761
Cr12  Cr    Cr6+3 0.614160 0.322500 0.747710 1.019660
H1    H     H_    0.485337 0.987538 0.064995 0.155149
H2    H     H_    0.362465 0.454239 0.444075 0.180260
H3    H     H_    0.137533 0.954234 0.555924 0.180262
H4    H     H_    0.865136 0.948467 0.445033 0.187111
H5    H     H_    0.459257 0.262473 0.038649 0.097896
H6    H     H_    0.540699 0.262445 0.961356 0.098003
H7    H     H_    0.959301 0.762445 0.038644 0.098002
H8    H     H_    0.040742 0.762473 0.961351 0.097896
H9    H     H_    0.634817 0.454623 0.941428 0.127252
H10   H     H_    0.365179 0.454632 0.058573 0.127252
H11   H     H_    0.134820 0.954632 0.941427 0.127252
H12   H     H_    0.514498 0.987559 0.934949 0.155155
H13   H     H_    0.865183 0.954623 0.058572 0.127252
H14   H     H_    0.653134 0.509134 0.067182 0.119399
H15   H     H_    0.346865 0.509137 0.932818 0.119304
H16   H     H_    0.153135 0.009137 0.067182 0.119304
H17   H     H_    0.846866 0.009134 0.932818 0.119399
H18   H     H_    0.834847 0.266899 0.076787 0.133943
H19   H     H_    0.165155 0.266896 0.923211 0.133949
H20   H     H_    0.334845 0.766896 0.076789 0.133949
H21   H     H_    0.665153 0.766899 0.923212 0.133943
H22   H     H_    0.816722 0.213623 0.952842 0.124347
H23   H     H_    0.985502 0.487559 0.065051 0.155155
H24   H     H_    0.183279 0.213623 0.047157 0.124359
H25   H     H_    0.316721 0.713623 0.952843 0.124359
H26   H     H_    0.683278 0.713623 0.047158 0.124347
H27   H     H_    0.479680 0.363401 0.568854 0.153621
H28   H     H_    0.482837 0.368936 0.443093 0.157003
H29   H     H_    0.017160 0.868937 0.556907 0.157003
H30   H     H_    0.020318 0.863402 0.431146 0.153621
H31   H     H_    0.497988 0.972823 0.435189 0.165131
H32   H     H_    0.509777 0.970038 0.565474 0.168520
H33   H     H_    0.990224 0.470037 0.434526 0.168520
H34   H     H_    0.014662 0.487539 0.935004 0.155149
H35   H     H_    0.002012 0.472823 0.564811 0.165130
H36   H     H_    0.814074 0.205563 0.548183 0.163094
H37   H     H_    0.186033 0.205775 0.451881 0.161676
H38   H     H_    0.313969 0.705779 0.548120 0.161677
H39   H     H_    0.685926 0.705563 0.451817 0.163095
H40   H     H_    0.832071 0.201496 0.352788 0.133780
H41   H     H_    0.168137 0.200941 0.646929 0.132523
H42   H     H_    0.331865 0.700942 0.353072 0.132523
H43   H     H_    0.667929 0.701496 0.647212 0.133780
H44   H     H_    0.652845 0.502912 0.429598 0.149915
H45   H     H_    0.346029 0.505447 0.569947 0.146050
H46   H     H_    0.153969 0.005444 0.430052 0.146050
H47   H     H_    0.847155 0.002913 0.570402 0.149914
H48   H     H_    0.634864 0.448466 0.554967 0.187112
O1    O     O_R   0.784320 0.290430 0.830510 -0.499111
O2    O     O_R   0.456080 0.282180 0.333210 -0.526579
O3    O     O_R   0.043920 0.782180 0.666790 -0.526579
O4    O     O_R   0.956080 0.782180 0.333210 -0.525476
O5    O     O_R   0.679040 0.374160 0.674430 -0.490882
O6    O     O_R   0.320960 0.374160 0.325570 -0.493421
O7    O     O_R   0.179040 0.874160 0.674430 -0.493419
O8    O     O_R   0.820960 0.874160 0.325570 -0.490883
O9    O     O_3   0.665350 0.165340 0.749070 -0.302681
O10   O     O_3   0.334650 0.165340 0.250930 -0.303210
O11   O     O_3   0.165350 0.665340 0.749070 -0.303210
O12   O     O_R   0.215680 0.290430 0.169490 -0.499152
O13   O     O_3   0.834650 0.665340 0.250930 -0.302681
O14   O     O_R   0.762640 0.040960 0.825200 -0.523663
O15   O     O_R   0.237360 0.040960 0.174800 -0.523929
O16   O     O_R   0.262640 0.540960 0.825200 -0.523929
O17   O     O_R   0.737360 0.540960 0.174800 -0.523663
O18   O     O_R   0.667400 0.923970 0.829950 -0.528885
O19   O     O_R   0.332600 0.923970 0.170050 -0.529097
O20   O     O_R   0.167400 0.423970 0.829950 -0.529096
O21   O     O_R   0.832600 0.423970 0.170050 -0.528886
O22   O     O_R   0.553960 0.081340 0.821780 -0.486799
O23   O     O_R   0.284320 0.790430 0.830510 -0.499152
O24   O     O_R   0.446040 0.081340 0.178220 -0.485704
O25   O     O_R   0.053960 0.581340 0.821780 -0.485704
O26   O     O_R   0.946040 0.581340 0.178220 -0.486799
O27   O     O_R   0.543180 0.283240 0.826740 -0.514570
O28   O     O_R   0.456820 0.283240 0.173260 -0.512814
O29   O     O_R   0.043180 0.783240 0.826740 -0.512814
O30   O     O_R   0.956820 0.783240 0.173260 -0.514569
O31   O     O_R   0.678360 0.375140 0.822710 -0.504384
O32   O     O_R   0.321640 0.375140 0.177290 -0.504327
O33   O     O_R   0.178360 0.875140 0.822710 -0.504327
O34   O     O_R   0.715680 0.790430 0.169490 -0.499111
O35   O     O_R   0.821640 0.875140 0.177290 -0.504384
O36   O     O_R   0.785050 0.289380 0.670560 -0.498924
O37   O     O_R   0.214950 0.289380 0.329440 -0.498458
O38   O     O_R   0.285050 0.789380 0.670560 -0.498459
O39   O     O_R   0.714950 0.789380 0.329440 -0.498924
O40   O     O_R   0.763320 0.039990 0.676930 -0.515577
O41   O     O_R   0.236680 0.039990 0.323070 -0.516449
O42   O     O_R   0.263320 0.539990 0.676930 -0.516448
O43   O     O_R   0.736680 0.539990 0.323070 -0.515577
O44   O     O_R   0.668130 0.922920 0.670000 -0.516906
O45   O     O_R   0.554640 0.080370 0.673500 -0.492653
O46   O     O_R   0.331870 0.922920 0.330000 -0.515252
O47   O     O_R   0.168130 0.422920 0.670000 -0.515253
O48   O     O_R   0.831870 0.422920 0.330000 -0.516905
O49   O     O_2   0.893435 0.180281 0.438939 -0.529944
O50   O     O_2   0.105889 0.182576 0.561153 -0.530024
O51   O     O_2   0.394114 0.682581 0.438849 -0.530022
O52   O     O_2   0.606566 0.680278 0.561061 -0.529945
O53   O     O_R   0.445360 0.080370 0.326500 -0.489381
O54   O     O_R   0.054640 0.580370 0.673500 -0.489381
O55   O     O_R   0.945360 0.580370 0.326500 -0.492653
O56   O     O_R   0.543920 0.282180 0.666790 -0.525476

loop_
_geom_bond_atom_site_label_1
_geom_bond_atom_site_label_2
_ccdc_geom_bond_type
C44   C49   A    
C77   O7    A    
Cr12  O9    S    
C51   H46   S    
Cr6   O11   S    
Cr3   O3    S    
C85   H12   S    
C43   C83   S    
C13   H26   S    
Cr12  O31   S    
C76   O6    A    
C94   O50   D    
Cr8   O18   S    
C79   O8    A    
C4    C8    A    
C93   O49   D    
C67   H16   S    
C64   O33   A    
C72   O2    A    
Cr1   O9    S    
C9    H22   S    
C94   H41   S    
C7    C11   A    
C42   C82   S    
C29   C30   A    
C93   H40   S    
C18   C24   A    
C90   H10   S    
Cr1   O40   S    
C6    H19   S    
C18   C19   A    
C3    C7    A    
C10   C15   A    
C11   H25   S    
C35   C39   A    
Cr5   O41   S    
C86   H23   S    
C96   O52   D    
C57   H4    S    
Cr11  O55   S    
C50   H45   S    
C82   C87   D    
C14   C62   S    
C1    O14   A    
Cr7   O17   S    
C26   C73   S    
C79   O39   A    
Cr9   O10   S    
C54   H2    S    
C25   C29   A    
C25   C74   S    
C31   H36   S    
C46   C69   S    
Cr2   O32   S    
C3    C12   S    
C41   O24   A    
Cr2   O6    S    
Cr10  O47   S    
C36   C93   S    
C71   O56   A    
Cr1   O36   S    
Cr8   O22   S    
C23   O16   A    
Cr2   O2    S    
C28   H32   S    
C5    H18   S    
C40   C80   S    
C41   O28   A    
C44   C70   S    
C7    H20   S    
C45   C89   A    
C49   H44   S    
C40   O27   A    
C46   C50   A    
C56   C90   A    
Cr8   O9    S    
C41   C81   S    
C55   C60   A    
Cr11  O21   S    
C70   O48   A    
Cr6   O23   S    
Cr8   O44   S    
C2    C6    A    
C17   C92   A    
Cr7   O39   S    
C21   H30   S    
Cr6   O38   S    
C22   C72   S    
Cr12  O56   S    
C95   O51   D    
Cr5   O37   S    
C58   C75   S    
C12   O15   A    
Cr3   O11   S    
C54   C59   A    
C42   O25   A    
Cr6   O16   S    
C60   C77   S    
C1    O18   A    
Cr11  O26   S    
C68   O46   A    
C56   H15   S    
C83   H7    S    
C73   O54   A    
C19   C22   A    
C84   C85   S    
Cr4   O8    S    
C76   O37   A    
Cr3   O33   S    
C64   O23   A    
C86   C87   S    
Cr7   O43   S    
C23   O20   A    
C43   O30   A    
C78   C92   A    
C19   H28   S    
C96   H43   S    
C27   H31   S    
Cr1   O14   S    
C68   O41   A    
C52   H47   S    
Cr1   O1    S    
C20   H29   S    
C38   C95   S    
Cr5   O12   S    
Cr4   O30   S    
C9    C14   A    
Cr10  O25   S    
C5    C9    A    
C80   C85   D    
C11   C16   A    
Cr4   O4    S    
C66   O40   A    
C72   O53   A    
C29   H33   S    
C45   C88   A    
C67   C91   A    
C62   O1    A    
C18   H27   S    
C35   C61   A    
Cr7   O34   S    
C35   H39   S    
C32   C37   A    
C65   O34   A    
C38   C47   A    
Cr2   O10   S    
C16   C91   A    
C12   O19   A    
Cr3   O7    S    
C42   O29   A    
C63   O12   A    
C80   H6    S    
C69   O47   A    
C33   C60   A    
C22   C27   A    
C65   O35   A    
C69   O42   A    
C91   H11   S    
C36   C44   A    
Cr4   O35   S    
Cr9   O53   S    
C52   C57   A    
C47   C68   S    
Cr3   O29   S    
C81   C84   D    
C31   C58   A    
Cr7   O13   S    
Cr11  O13   S    
C71   O45   A    
C21   C25   A    
Cr10  O20   S    
Cr12  O27   S    
C55   H3    S    
Cr4   O13   S    
Cr5   O15   S    
C3    C67   A    
C24   C28   A    
C34   O21   A    
C5    C89   A    
C6    C10   A    
C47   C51   A    
C53   C58   A    
C57   C61   A    
C32   H37   S    
C74   O4    A    
C45   H14   S    
C4    C78   A    
Cr12  O5    S    
C73   O3    A    
C43   O26   A    
C17   C65   S    
C84   H1    S    
Cr9   O24   S    
C13   C17   A    
C74   O55   A    
C75   O5    A    
C1    C4    S    
Cr10  O11   S    
Cr6   O42   S    
C75   O36   A    
C37   C46   A    
C34   C89   S    
C14   C88   A    
Cr11  O48   S    
C50   C54   A    
C77   O38   A    
C2    C56   A    
C92   H13   S    
Cr8   O45   S    
C15   C90   A    
Cr9   O46   S    
C40   O22   A    
C20   C26   A    
C61   C79   S    
C49   C53   A    
C37   C94   S    
C95   H42   S    
C51   C55   A    
C87   H34   S    
Cr2   O28   S    
Cr5   O10   S    
C10   H24   S    
C39   C96   S    
C8    H21   S    
C33   H38   S    
C30   H35   S    
C82   H8    S    
C8    C13   A    
C48   C52   A    
C83   C86   D    
C20   C21   A    
C53   H48   S    
C63   O32   A    
Cr9   O19   S    
C81   H5    S    
C2    C23   S    
C34   O17   A    
C70   O43   A    
C15   C63   S    
C31   C36   A    
C39   C48   A    
C33   C38   A    
C16   C64   S    
C32   C59   A    
C48   C66   S    
C88   H9    S    
C78   H17   S    
C59   C76   S    
C66   O44   A    
C24   C71   S    
C62   O31   A    
C27   C28   A    
C26   C30   A    
Cr10  O54   S    
