data_mof_unit_18926.cif
_audit_creation_date              2012-12-10T17:20:55-0500
_audit_creation_method            fapswitch 2.2
_symmetry_space_group_name_H-M    P1
_symmetry_Int_Tables_number       1
_space_group_crystal_system       triclinic
_cell_length_a                    14.345989
_cell_length_b                    10.870274
_cell_length_c                    9.576583
_cell_angle_alpha                 90.093664
_cell_angle_beta                  89.973121
_cell_angle_gamma                 92.386321
_cell_volume                      1492.12141185

loop_
_atom_site_label
_atom_site_type_symbol
_atom_type_description
_atom_site_fract_x
_atom_site_fract_y
_atom_site_fract_z
_atom_type_partial_charge
C1    C     C_R   0.507025 0.262851 0.500779 0.809436
C2    C     C_1   0.771203 0.500643 0.500017 -0.203549
C3    C     C_R   0.549512 0.119229 0.760319 -0.112694
C4    C     C_R   0.532794 0.060347 0.887488 -0.118965
C5    C     C_R   0.486318 0.945862 0.889977 -0.131109
C6    C     C_R   0.465149 0.885087 0.764992 -0.157235
C7    C     C_R   0.491018 0.938274 0.634559 0.080533
C8    C     C_R   0.519314 0.063876 0.632978 0.095551
C9    C     C_R   0.514935 0.128878 0.504522 -0.123514
C10   C     C_R   0.505487 0.063547 0.378912 -0.209426
C11   C     C_R   0.497568 0.936426 0.379493 -0.210773
C12   C     C_R   0.331114 0.499577 0.500058 0.832278
C13   C     C_R   0.490305 0.872073 0.505876 -0.110452
C14   C     C_R   0.620665 0.667679 0.144023 -0.160556
C15   C     C_R   0.676117 0.754076 0.072362 -0.231953
C16   C     C_R   0.675914 0.756239 0.927215 0.111254
C17   C     C_R   0.620665 0.667847 0.856257 -0.157423
C18   C     C_R   0.559235 0.582609 0.925404 0.063799
C19   C     C_R   0.559122 0.582652 0.074843 0.183222
C20   C     C_R   0.443940 0.421085 0.073971 -0.161444
C21   C     C_R   0.443829 0.421070 0.925980 0.672836
C22   C     C_R   0.494615 0.737567 0.501156 0.763172
C23   C     C_R   0.668881 0.500470 0.499971 0.775213
C24   C     C_1   0.228771 0.499824 0.500143 -0.178288
C25   C     C_1   0.143354 0.500069 0.500203 0.004123
C26   C     C_1   0.042691 0.500350 0.500234 0.009014
C27   C     C_1   0.957274 0.500542 0.500211 0.004268
C28   C     C_1   0.856615 0.500667 0.500120 -0.012021
Cu1   Cu    Cu3+1 0.499990 0.499990 0.640660 0.969507
Cu2   Cu    Cu3+1 0.500010 0.500010 0.359340 0.930503
H1    H     H_    0.504463 0.110634 0.279329 0.163073
H2    H     H_    0.628420 0.671033 0.746359 0.196536
H3    H     H_    0.588312 0.206473 0.763565 0.149176
H4    H     H_    0.553990 0.104919 0.984235 0.122931
H5    H     H_    0.468763 0.902541 0.988809 0.136193
H6    H     H_    0.425950 0.798543 0.773201 0.169859
H7    H     H_    0.495804 0.888633 0.280092 0.164941
H8    H     H_    0.398087 0.356500 0.129448 0.168811
H9    H     H_    0.629626 0.672144 0.253850 0.201608
H10   H     H_    0.719990 0.817754 0.132450 0.141865
N1    N     N_R   0.500820 0.501210 0.147910 -0.217975
N2    N     N_R   0.500850 0.501290 0.852040 -0.242889
O1    O     O_R   0.499990 0.319640 0.618810 -0.532111
O2    O     O_R   0.500000 0.319660 0.381240 -0.580748
O3    O     O_R   0.376050 0.499990 0.618810 -0.508849
O4    O     O_R   0.376060 0.500010 0.381240 -0.559112
O5    O     O_R   0.500000 0.680340 0.618760 -0.614200
O6    O     O_R   0.500010 0.680360 0.381190 -0.591815
O7    O     O_R   0.623940 0.499990 0.618760 -0.585757
O8    O     O_R   0.623950 0.500010 0.381190 -0.571033
C29   C     C_3   0.733521 0.849325 0.841716 -0.399969
C30   C     C_3   0.778281 0.957446 0.924809 -0.345978
C31   C     C_3   0.823834 0.053409 0.827476 -0.828805
H11   H     H_    0.878710 0.011427 0.763329 0.257840
H12   H     H_    0.770754 0.092123 0.757459 0.247886
H13   H     H_    0.856465 0.129624 0.890214 0.246136
H14   H     H_    0.724239 0.002562 0.987798 0.219257
H15   H     H_    0.832612 0.923211 0.995932 0.219396
H16   H     H_    0.788996 0.800190 0.786135 0.192774
H17   H     H_    0.687043 0.887818 0.761260 0.204923
F1    F     F_    0.385995 0.340051 0.857171 -0.649271

loop_
_geom_bond_atom_site_label_1
_geom_bond_atom_site_label_2
_ccdc_geom_bond_type
C22   O6    A    
C21   N2    A    
Cu2   N1    S    
Cu1   Cu2   S    
Cu1   N2    S    
C20   H8    S    
C9    C10   A    
C12   C24   S    
C1    O2    A    
C21   F1    S    
C16   C29   S    
Cu2   O4    S    
C31   H12   S    
C17   C18   A    
Cu2   O8    S    
C7    C8    A    
Cu1   O7    S    
C31   H11   S    
C20   C21   A    
C11   C13   A    
Cu2   O2    S    
C26   C27   T    
C6    C7    A    
C30   H15   S    
Cu1   O5    S    
C4    C5    A    
C5    H5    S    
Cu2   O6    S    
C25   C26   S    
C6    H6    S    
C13   C22   S    
C20   N1    A    
C18   N2    A    
C3    C8    A    
C5    C6    A    
C4    H4    S    
C15   H10   S    
C23   O7    A    
C29   H16   S    
C30   H14   S    
C3    H3    S    
C29   C30   S    
C19   N1    A    
C7    C13   A    
C1    C9    S    
C24   C25   T    
C12   O4    A    
C18   C19   A    
C10   C11   A    
C31   H13   S    
Cu1   O3    S    
C2    C23   S    
C11   H7    S    
C17   H2    S    
C14   C15   A    
C8    C9    A    
C23   O8    A    
C2    C28   T    
C29   H17   S    
C14   H9    S    
C14   C19   A    
C1    O1    A    
C22   O5    A    
Cu1   O1    S    
C3    C4    A    
C15   C16   A    
C16   C17   A    
C30   C31   S    
C12   O3    A    
C27   C28   S    
C10   H1    S    
