data_mof_unit_38092.cif
_audit_creation_date              2012-12-10T18:58:44-0500
_audit_creation_method            fapswitch 2.2
_symmetry_space_group_name_H-M    P1
_symmetry_Int_Tables_number       1
_space_group_crystal_system       triclinic
_cell_length_a                    10.621493
_cell_length_b                    9.939406
_cell_length_c                    17.477776
_cell_angle_alpha                 90.012419
_cell_angle_beta                  95.007611
_cell_angle_gamma                 89.9956
_cell_volume                      1838.10929417

loop_
_atom_site_label
_atom_site_type_symbol
_atom_type_description
_atom_site_fract_x
_atom_site_fract_y
_atom_site_fract_z
_atom_type_partial_charge
C1    C     C_R   0.261711 0.500009 0.509952 0.897306
C2    C     C_R   0.738513 0.499984 0.490377 0.893195
C3    C     C_1   0.397520 0.499786 0.960810 -0.050730
C4    C     C_1   0.406683 0.499730 0.029101 -0.052374
C5    C     C_R   0.062312 0.376941 0.517306 0.148135
C6    C     C_R   0.938378 0.623079 0.484316 0.149087
C7    C     C_R   0.938403 0.376798 0.484470 0.149014
C8    C     C_R   0.062260 0.623072 0.517189 0.148047
C9    C     C_R   0.502148 0.499982 0.352899 0.856375
C10   C     C_R   0.493938 0.500005 0.646720 0.864002
C11   C     C_R   0.872450 0.499936 0.478863 -0.170241
C12   C     C_R   0.128191 0.500022 0.522434 -0.166376
C13   C     C_R   0.416018 0.621432 0.842986 -0.226680
C14   C     C_R   0.451744 0.378236 0.147964 -0.207879
C15   C     C_R   0.451540 0.621388 0.147942 -0.207844
C16   C     C_R   0.414508 0.378524 0.842619 -0.226790
C17   C     C_R   0.446659 0.623249 0.767108 0.065936
C18   C     C_R   0.486763 0.376526 0.226757 0.077478
C19   C     C_R   0.486573 0.623254 0.226731 0.077433
C20   C     C_R   0.445282 0.376737 0.766778 0.065781
C21   C     C_R   0.465068 0.499982 0.728126 -0.061227
C22   C     C_R   0.495127 0.499925 0.268023 -0.094532
C23   C     C_R   0.581395 0.071892 0.550788 0.202872
C24   C     C_R   0.418401 0.928117 0.449317 0.196692
C25   C     C_R   0.418416 0.071860 0.449309 0.196660
C26   C     C_R   0.581436 0.928145 0.550763 0.202899
C27   C     C_R   0.402171 0.499959 0.880327 0.120255
C28   C     C_R   0.430712 0.499772 0.109877 0.106503
H1    H     H_    0.407232 0.715508 0.873578 0.134081
H2    H     H_    0.443563 0.284811 0.115847 0.131066
H3    H     H_    0.443194 0.714764 0.115808 0.131055
H4    H     H_    0.404567 0.284404 0.872928 0.134127
N1    N     N_R   0.500000 0.857200 0.500000 -0.112496
N2    N     N_R   0.500000 0.142800 0.500000 -0.112451
O1    O     O_R   0.316770 0.614620 0.500000 -0.618812
O2    O     O_R   0.683230 0.385380 0.500000 -0.619316
O3    O     O_R   0.683230 0.614620 0.500000 -0.619156
O4    O     O_R   0.316770 0.385380 0.500000 -0.618739
O5    O     O_R   0.500010 0.614710 0.389120 -0.604818
O6    O     O_R   0.499990 0.385290 0.610880 -0.600766
O7    O     O_R   0.499990 0.614710 0.610880 -0.600847
O8    O     O_R   0.500010 0.385290 0.389120 -0.604809
Zn1   Zn    Zn3+2 0.500000 0.653120 0.500000 0.931340
Zn2   Zn    Zn3+2 0.500000 0.346880 0.500000 0.931295
N3    N     N_3   0.459221 0.751146 0.730760 -0.431376
H5    H     H_    0.525749 0.807710 0.764674 0.168021
H6    H     H_    0.372420 0.801099 0.729871 0.179402
N4    N     N_3   0.517398 0.250426 0.264109 -0.436140
H7    H     H_    0.499552 0.169826 0.226224 0.162997
H8    H     H_    0.614702 0.250339 0.279711 0.184669
N5    N     N_3   0.517017 0.749450 0.264050 -0.436234
H9    H     H_    0.499059 0.829971 0.226142 0.162982
H10   H     H_    0.614321 0.749705 0.279661 0.184733
N6    N     N_3   0.456517 0.248924 0.730134 -0.431020
H11   H     H_    0.521673 0.190971 0.764247 0.168002
H12   H     H_    0.368850 0.200553 0.728569 0.179286
C29   C     C_3   0.672272 0.143328 0.608779 -0.811104
H13   H     H_    0.671637 0.252254 0.604698 0.296565
H14   H     H_    0.650236 0.117476 0.667761 0.215534
H15   H     H_    0.770851 0.112628 0.601991 0.195022
C30   C     C_3   0.326789 0.856756 0.391696 -0.800329
H16   H     H_    0.328242 0.747770 0.395270 0.298023
H17   H     H_    0.228351 0.886809 0.399423 0.192994
H18   H     H_    0.347240 0.883503 0.332532 0.225948
C31   C     C_3   0.326822 0.143206 0.391684 -0.800399
H19   H     H_    0.328309 0.252191 0.395253 0.298017
H20   H     H_    0.347273 0.116404 0.332520 0.225911
H21   H     H_    0.228376 0.113224 0.399425 0.193041
C32   C     C_3   0.672596 0.856765 0.608595 -0.810819
H22   H     H_    0.671564 0.747807 0.604750 0.296659
H23   H     H_    0.771127 0.887103 0.601397 0.195048
H24   H     H_    0.651251 0.883133 0.667633 0.215269
C33   C     C_3   0.117678 0.248613 0.552963 -0.841188
H25   H     H_    0.201933 0.268617 0.593542 0.249563
H26   H     H_    0.047495 0.199785 0.587473 0.221235
H27   H     H_    0.142426 0.177377 0.508073 0.245398
C34   C     C_3   0.883453 0.751622 0.448687 -0.844338
H28   H     H_    0.799475 0.731985 0.407838 0.243545
H29   H     H_    0.858578 0.822748 0.493593 0.246338
H30   H     H_    0.953984 0.800460 0.414428 0.222001
C35   C     C_3   0.883453 0.248065 0.449072 -0.844254
H31   H     H_    0.799630 0.267541 0.408078 0.243565
H32   H     H_    0.954033 0.198808 0.415013 0.222021
H33   H     H_    0.858330 0.177365 0.494108 0.246434
C36   C     C_3   0.117507 0.751519 0.552782 -0.841024
H34   H     H_    0.201798 0.731696 0.593362 0.249744
H35   H     H_    0.142137 0.822697 0.507860 0.245312
H36   H     H_    0.047282 0.800340 0.587278 0.221196

loop_
_geom_bond_atom_site_label_1
_geom_bond_atom_site_label_2
_ccdc_geom_bond_type
C24   C30   S    
C30   H18   S    
O7    Zn1   S    
C33   H25   S    
C14   C18   A    
C35   H31   S    
C29   H13   S    
C34   H28   S    
C15   C19   A    
C9    O8    A    
C13   H1    S    
C17   N3    S    
C9    C22   S    
C29   H14   S    
C9    O5    A    
C10   O6    A    
C8    C36   S    
N3    H6    S    
C32   H23   S    
C35   H32   S    
C31   H20   S    
O1    Zn1   S    
C16   C20   A    
C25   N2    A    
C23   N2    A    
C16   C27   A    
N4    H8    S    
C10   O7    A    
C33   H26   S    
C30   H16   S    
C1    C12   S    
O8    Zn2   S    
C14   H2    S    
C2    C11   S    
C4    C28   S    
C34   H29   S    
C10   C21   S    
N6    H12   S    
C36   H35   S    
N5    H9    S    
N1    Zn1   S    
C19   C22   A    
C25   C31   S    
C24   C25   A    
C5    C12   A    
C20   N6    S    
C36   H36   S    
C6    C11   A    
C5    C7    A    
C6    C34   S    
O5    Zn1   S    
C36   H34   S    
C17   C21   A    
N5    H10   S    
O3    Zn1   S    
C32   H24   S    
C7    C11   A    
O4    Zn2   S    
C19   N5    S    
C26   N1    A    
C8    C12   A    
C31   H21   S    
C30   H17   S    
N2    Zn2   S    
C1    O4    A    
N4    H7    S    
C7    C35   S    
C33   H27   S    
O2    Zn2   S    
C3    C4    T    
C35   H33   S    
C1    O1    A    
C34   H30   S    
C2    O2    A    
C23   C29   S    
N6    H11   S    
C18   C22   A    
C29   H15   S    
C18   N4    S    
C6    C8    A    
C15   H3    S    
C16   H4    S    
C24   N1    A    
C13   C17   A    
C3    C27   S    
C2    O3    A    
C15   C28   A    
C23   C26   A    
C5    C33   S    
C32   H22   S    
N3    H5    S    
O6    Zn2   S    
C20   C21   A    
C31   H19   S    
C26   C32   S    
C13   C27   A    
C14   C28   A    
