data_mof_unit_42775.cif
_audit_creation_date              2012-12-10T17:41:03-0500
_audit_creation_method            fapswitch 2.2
_symmetry_space_group_name_H-M    P1
_symmetry_Int_Tables_number       1
_space_group_crystal_system       triclinic
_cell_length_a                    14.941163
_cell_length_b                    15.176347
_cell_length_c                    9.936704
_cell_angle_alpha                 89.536803
_cell_angle_beta                  89.988781
_cell_angle_gamma                 89.996253
_cell_volume                      2253.09655416

loop_
_atom_site_label
_atom_site_type_symbol
_atom_type_description
_atom_site_fract_x
_atom_site_fract_y
_atom_site_fract_z
_atom_type_partial_charge
C1    C     C_R   0.382586 0.878128 0.500513 0.855587
C2    C     C_R   0.681033 0.254493 0.421292 -0.202751
C3    C     C_R   0.180818 0.245333 0.578320 -0.202665
C4    C     C_R   0.181239 0.754302 0.420872 -0.202895
C5    C     C_R   0.693229 0.821425 0.501812 -0.098823
C6    C     C_R   0.693375 0.178429 0.498048 -0.099223
C7    C     C_R   0.193301 0.321497 0.501853 -0.099000
C8    C     C_R   0.193437 0.678367 0.498019 -0.099376
C9    C     C_R   0.336411 0.000493 0.139729 -0.144053
C10   C     C_R   0.836410 0.500492 0.139729 -0.143937
C11   C     C_R   0.255828 0.000254 0.069739 -0.193650
C12   C     C_R   0.382550 0.121834 0.499566 0.855672
C13   C     C_R   0.755828 0.500256 0.069739 -0.193638
C14   C     C_R   0.255807 0.999755 0.930489 -0.193341
C15   C     C_R   0.755807 0.499761 0.930488 -0.193336
C16   C     C_R   0.336368 0.999516 0.860404 -0.143907
C17   C     C_R   0.836368 0.499521 0.860403 -0.143787
C18   C     C_R   0.419409 0.999876 0.927811 0.168380
C19   C     C_R   0.919409 0.499878 0.927811 0.168352
C20   C     C_R   0.419442 0.000127 0.072235 0.168481
C21   C     C_R   0.919441 0.500128 0.072235 0.168449
C22   C     C_R   0.577066 0.999964 0.071398 -0.107536
C23   C     C_R   0.882561 0.378152 0.500509 0.855516
C24   C     C_R   0.077066 0.499961 0.071398 -0.107512
C25   C     C_R   0.621874 0.117487 0.499537 0.843363
C26   C     C_R   0.621809 0.882447 0.500388 0.843421
C27   C     C_R   0.121902 0.617459 0.499533 0.843359
C28   C     C_R   0.121840 0.382478 0.500393 0.843403
C29   C     C_R   0.577029 0.000033 0.928437 -0.107335
C30   C     C_R   0.077029 0.500030 0.928438 -0.107306
C31   C     C_R   0.418322 0.286167 0.354872 -0.181997
C32   C     C_R   0.417899 0.714133 0.646654 -0.182410
C33   C     C_R   0.918519 0.786334 0.355529 -0.181788
C34   C     C_R   0.882530 0.621815 0.499572 0.855628
C35   C     C_R   0.918089 0.213977 0.645881 -0.182293
C36   C     C_R   0.433515 0.365990 0.288231 -0.145558
C37   C     C_R   0.432897 0.634460 0.713863 -0.145644
C38   C     C_R   0.933841 0.866265 0.289265 -0.145555
C39   C     C_R   0.933184 0.134221 0.712775 -0.145619
C40   C     C_R   0.869669 0.932590 0.293322 -0.127663
C41   C     C_R   0.869081 0.067852 0.708600 -0.127805
C42   C     C_R   0.369374 0.432337 0.292300 -0.127954
C43   C     C_R   0.368828 0.568067 0.709593 -0.128012
C44   C     C_R   0.789753 0.918954 0.362847 -0.190103
C45   C     C_R   0.244443 0.180846 0.576714 -0.214948
C46   C     C_R   0.789452 0.081270 0.638308 -0.189885
C47   C     C_R   0.289611 0.418831 0.362233 -0.189959
C48   C     C_R   0.289324 0.581380 0.638904 -0.189673
C49   C     C_R   0.772649 0.837715 0.429036 0.093122
C50   C     C_R   0.772537 0.162354 0.571528 0.093377
C51   C     C_R   0.272603 0.337679 0.428749 0.093334
C52   C     C_R   0.272490 0.662390 0.571843 0.093488
C53   C     C_R   0.337768 0.271155 0.426161 0.102973
C54   C     C_R   0.337605 0.728956 0.574590 0.102928
C55   C     C_R   0.837832 0.771210 0.426471 0.102897
C56   C     C_R   0.244801 0.818827 0.422634 -0.214740
C57   C     C_R   0.837671 0.228902 0.574222 0.102969
C58   C     C_R   0.320935 0.192538 0.499013 -0.094175
C59   C     C_R   0.320994 0.807393 0.501105 -0.094452
C60   C     C_R   0.820886 0.692490 0.499025 -0.094029
C61   C     C_R   0.820950 0.307438 0.501097 -0.094307
C62   C     C_R   0.744232 0.680642 0.576342 -0.214947
C63   C     C_R   0.744614 0.319008 0.423023 -0.214841
C64   C     C_R   0.680586 0.745117 0.577903 -0.202465
H1    H     H_    0.233090 0.120694 0.633898 0.141123
H2    H     H_    0.470115 0.763022 0.650377 0.153325
H3    H     H_    0.970758 0.737449 0.352046 0.152604
H4    H     H_    0.970313 0.262863 0.649516 0.153095
H5    H     H_    0.882114 0.995053 0.243407 0.137639
H6    H     H_    0.881364 0.005517 0.759023 0.137556
H7    H     H_    0.381726 0.494720 0.242070 0.137543
H8    H     H_    0.381046 0.505791 0.760245 0.137450
H9    H     H_    0.742857 0.973118 0.366301 0.143156
H10   H     H_    0.742648 0.027045 0.634720 0.143382
H11   H     H_    0.242760 0.473026 0.365734 0.143233
H12   H     H_    0.233620 0.878815 0.364939 0.141391
H13   H     H_    0.242562 0.527124 0.635221 0.143428
H14   H     H_    0.620441 0.734449 0.636308 0.144090
H15   H     H_    0.621148 0.264961 0.362221 0.144406
H16   H     H_    0.120805 0.234778 0.637077 0.144278
H17   H     H_    0.121475 0.764669 0.361462 0.144559
H18   H     H_    0.640132 0.999917 0.124887 0.146738
H19   H     H_    0.140132 0.499913 0.124886 0.146659
H20   H     H_    0.330740 0.001008 0.246339 0.199985
H21   H     H_    0.830739 0.501003 0.246340 0.199970
H22   H     H_    0.192964 0.999582 0.876212 0.142113
H23   H     H_    0.732784 0.620388 0.633252 0.140930
H24   H     H_    0.692964 0.499590 0.876211 0.142129
H25   H     H_    0.495669 0.376718 0.234546 0.130076
H26   H     H_    0.494862 0.623875 0.768127 0.130239
H27   H     H_    0.996115 0.877095 0.235906 0.129957
H28   H     H_    0.995239 0.123558 0.766734 0.130178
H29   H     H_    0.193001 0.000429 0.124093 0.142054
H30   H     H_    0.693001 0.500431 0.124092 0.142077
H31   H     H_    0.733346 0.379087 0.365617 0.141247
H32   H     H_    0.330687 0.999007 0.753787 0.199912
H33   H     H_    0.830686 0.499013 0.753786 0.199898
H34   H     H_    0.640071 0.000078 0.874850 0.146681
H35   H     H_    0.140072 0.500071 0.874851 0.146611
H36   H     H_    0.470562 0.237286 0.351351 0.152815
N1    N     N_R   0.498810 0.000000 0.142780 -0.122859
N2    N     N_R   0.998810 0.500000 0.142780 -0.122842
N3    N     N_R   0.498740 0.000000 0.857170 -0.122869
N4    N     N_R   0.998740 0.500000 0.857170 -0.122850
O1    O     O_R   0.408390 0.908380 0.614690 -0.643839
O2    O     O_R   0.591620 0.908390 0.614640 -0.629100
O3    O     O_R   0.091620 0.591610 0.614640 -0.610842
O4    O     O_R   0.091620 0.408390 0.614640 -0.629124
O5    O     O_R   0.591610 0.091610 0.385310 -0.628984
O6    O     O_R   0.591610 0.908390 0.385310 -0.610781
O7    O     O_R   0.091610 0.591610 0.385310 -0.629013
O8    O     O_R   0.091610 0.408390 0.385310 -0.610806
O9    O     O_R   0.408390 0.091620 0.614690 -0.625908
O10   O     O_R   0.908390 0.408380 0.614690 -0.643736
O11   O     O_R   0.908390 0.591620 0.614690 -0.625889
O12   O     O_R   0.408370 0.908380 0.385360 -0.626065
O13   O     O_R   0.408370 0.091620 0.385360 -0.643645
O14   O     O_R   0.908370 0.408380 0.385360 -0.626042
O15   O     O_R   0.908370 0.591620 0.385360 -0.643556
O16   O     O_R   0.591620 0.091610 0.614640 -0.610814
Zn1   Zn    Zn3+2 0.500010 0.000000 0.653130 0.931724
Zn2   Zn    Zn3+2 0.000010 0.500000 0.653130 0.931757
Zn3   Zn    Zn3+2 0.499980 0.000000 0.346870 0.931863
Zn4   Zn    Zn3+2 0.999980 0.500000 0.346870 0.931885

loop_
_geom_bond_atom_site_label_1
_geom_bond_atom_site_label_2
_ccdc_geom_bond_type
C44   C49   A    
C33   C55   A    
C10   H21   S    
C43   H8    S    
C56   H12   S    
O12   Zn3   S    
C36   C42   A    
C4    C8    A    
C26   O2    A    
C23   O14   A    
C39   C41   A    
C22   C29   A    
O15   Zn4   S    
C28   O8    A    
N1    Zn3   S    
C22   N1    A    
C37   H26   S    
C22   H18   S    
C19   C21   A    
C24   H19   S    
O8    Zn4   S    
C3    C7    A    
C1    C59   S    
C11   C14   A    
C6    C25   S    
N4    Zn2   S    
C63   H31   S    
C29   N3    A    
C60   C62   A    
C61   C63   A    
C62   C64   A    
C2    H15   S    
C4    H17   S    
C41   C46   A    
C1    O12   A    
C43   C48   A    
C8    C52   A    
C40   C44   A    
C24   N2    A    
C25   O5    A    
C18   N3    A    
C12   C58   S    
C11   H29   S    
C27   O7    A    
O11   Zn2   S    
C55   C60   A    
C4    C56   A    
C34   C60   S    
C5    C49   A    
C2    C6    A    
N2    Zn4   S    
C3    H16   S    
C32   C54   A    
C52   C54   A    
C54   C59   A    
C10   C21   A    
C45   C58   A    
C16   H32   S    
C40   H5    S    
C14   H22   S    
O5    Zn3   S    
C47   C51   A    
C20   N1    A    
C34   O11   A    
C31   H36   S    
C30   H35   S    
C3    C45   A    
C6    C50   A    
C7    C28   S    
C12   O13   A    
C5    C64   A    
C51   C53   A    
C48   H13   S    
C37   C43   A    
C35   C39   A    
O6    Zn3   S    
C19   N4    A    
C9    C20   A    
C27   O3    A    
O16   Zn1   S    
O1    Zn1   S    
O14   Zn4   S    
C32   C37   A    
C31   C53   A    
C9    C11   A    
C21   N2    A    
C29   H34   S    
C13   C15   A    
C36   H25   S    
C45   H1    S    
C14   C16   A    
N3    Zn1   S    
C25   O16   A    
C39   H28   S    
C46   H10   S    
C2    C63   A    
C33   H3    S    
C32   H2    S    
C12   O9    A    
C23   C61   S    
C34   O15   A    
C15   C17   A    
C26   O6    A    
O7    Zn4   S    
C50   C57   A    
C64   H14   S    
O4    Zn2   S    
C10   C13   A    
C53   C58   A    
C57   C61   A    
C62   H23   S    
C46   C50   A    
C33   C38   A    
C56   C59   A    
C13   H30   S    
C35   C57   A    
O13   Zn3   S    
C7    C51   A    
C49   C55   A    
C23   O10   A    
C38   C40   A    
C35   H4    S    
C28   O4    A    
C38   H27   S    
O2    Zn1   S    
C42   H7    S    
C17   C19   A    
C18   C20   A    
C42   C47   A    
C44   H9    S    
C24   C30   A    
C9    H20   S    
C47   H11   S    
C5    C26   S    
O10   Zn2   S    
C48   C52   A    
O9    Zn1   S    
C16   C18   A    
C30   N4    A    
C8    C27   S    
C31   C36   A    
C41   H6    S    
O3    Zn2   S    
C17   H33   S    
C1    O1    A    
C15   H24   S    
