data_mof_unit_59906.cif
_audit_creation_date              2012-12-10T17:40:29-0500
_audit_creation_method            fapswitch 2.2
_symmetry_space_group_name_H-M    P1
_symmetry_Int_Tables_number       1
_space_group_crystal_system       triclinic
_cell_length_a                    13.696576
_cell_length_b                    15.077948
_cell_length_c                    15.678287
_cell_angle_alpha                 90.060233
_cell_angle_beta                  69.352501
_cell_angle_gamma                 90.27726
_cell_volume                      3029.81174294

loop_
_atom_site_label
_atom_site_type_symbol
_atom_type_description
_atom_site_fract_x
_atom_site_fract_y
_atom_site_fract_z
_atom_type_partial_charge
C1    C     C_R   0.499038 0.671154 0.502994 0.847905
C2    C     C_R   0.500729 0.328879 0.497555 0.855423
C3    C     C_R   0.360936 0.459439 0.104956 0.474145
C4    C     C_R   0.602999 0.404441 0.911248 0.490044
C5    C     C_R   0.290773 0.471992 0.059890 -0.254347
C6    C     C_R   0.675191 0.398434 0.955042 -0.244685
C7    C     C_R   0.540590 0.187726 0.552176 -0.233877
C8    C     C_R   0.455568 0.812441 0.451499 -0.235728
C9    C     C_R   0.501451 0.232348 0.493768 -0.102522
C10   C     C_R   0.497114 0.767721 0.508246 -0.101416
C11   C     C_R   0.459986 0.185541 0.436018 -0.053506
C12   C     C_R   0.537511 0.814698 0.566760 -0.066381
C13   C     C_R   0.455920 0.091210 0.439612 -0.048583
C14   C     C_R   0.535700 0.909108 0.566821 -0.051853
C15   C     C_R   0.495738 0.046912 0.500913 -0.000864
C16   C     C_R   0.495619 0.953390 0.505750 0.003936
C17   C     C_R   0.537261 0.095997 0.556783 0.070119
C18   C     C_R   0.455761 0.904254 0.448892 0.068971
C19   C     C_R   0.414941 0.039224 0.384047 0.478783
C20   C     C_R   0.569972 0.961350 0.626643 0.456608
C21   C     C_R   0.417384 0.946824 0.388538 -0.266208
C22   C     C_R   0.573624 0.053413 0.618456 -0.265707
C23   C     C_R   0.435865 0.501906 0.673543 0.830274
C24   C     C_R   0.564011 0.498092 0.326384 0.820365
C25   C     C_R   0.232760 0.546878 0.435546 0.069304
C26   C     C_R   0.767731 0.451068 0.562961 0.057220
C27   C     C_R   0.181132 0.452306 0.564629 -0.006230
C28   C     C_R   0.818721 0.548600 0.436260 0.006255
C29   C     C_R   0.076580 0.449196 0.566612 -0.082405
C30   C     C_R   0.924179 0.548169 0.431756 -0.083296
C31   C     C_R   0.052004 0.498172 0.499631 0.079897
C32   C     C_R   0.948805 0.498879 0.498476 0.089463
C33   C     C_R   0.130798 0.546942 0.433782 -0.038671
C34   C     C_R   0.869887 0.450347 0.564411 -0.042040
C35   C     C_R   0.995913 0.400031 0.632870 -0.015306
C36   C     C_R   0.005255 0.595555 0.364194 -0.012755
C37   C     C_R   0.893833 0.401719 0.630484 -0.172969
C38   C     C_R   0.107126 0.594583 0.366969 -0.153114
C39   C     C_R   0.394431 0.498983 0.774728 -0.160689
C40   C     C_R   0.602592 0.483371 0.226146 -0.159987
C41   C     C_R   0.254380 0.499161 0.922648 -0.122660
C42   C     C_R   0.726743 0.425391 0.084787 -0.112065
C43   C     C_R   0.287296 0.510967 0.828011 -0.007246
C44   C     C_R   0.704879 0.453674 0.174832 0.004005
C45   C     C_R   0.464829 0.478943 0.818704 -0.159514
C46   C     C_R   0.528383 0.488264 0.183360 -0.141555
C47   C     C_R   0.431565 0.463584 0.913150 0.084365
C48   C     C_R   0.547672 0.454414 0.095377 0.100774
C49   C     C_R   0.325360 0.477625 0.965231 0.022430
C50   C     C_R   0.649865 0.425863 0.045082 0.016372
C51   C     C_R   0.502209 0.440652 0.957966 -0.104577
C52   C     C_R   0.469922 0.452552 0.054200 -0.105494
Cu1   Cu    Cu3+1 0.402580 0.500010 0.499990 0.954531
Cu2   Cu    Cu3+1 0.597420 0.499990 0.500010 0.971485
H1    H     H_    0.208588 0.479395 0.099974 0.178996
H2    H     H_    0.752307 0.372869 0.917449 0.207610
H3    H     H_    0.293770 0.584526 0.385387 0.125793
H4    H     H_    0.706822 0.412776 0.612535 0.141637
H5    H     H_    0.204628 0.417474 0.614047 0.122007
H6    H     H_    0.794240 0.588138 0.390359 0.102009
H7    H     H_    0.832115 0.364248 0.680360 0.208839
H8    H     H_    0.169285 0.630461 0.315802 0.183388
H9    H     H_    0.456068 0.521309 0.219604 0.196663
H10   H     H_    0.546738 0.479349 0.778292 0.215332
H11   H     H_    0.173212 0.510130 0.964067 0.183033
H12   H     H_    0.804995 0.403851 0.044648 0.185366
H13   H     H_    0.571325 0.225205 0.596384 0.136925
H14   H     H_    0.425385 0.775003 0.406892 0.141627
H15   H     H_    0.390046 0.907877 0.343179 0.158127
H16   H     H_    0.603990 0.091898 0.662161 0.154322
N1    N     N_R   0.256170 0.500070 0.500040 -0.187775
N2    N     N_R   0.743830 0.499930 0.499960 -0.180546
O1    O     O_R   0.417730 0.629750 0.499970 -0.590796
O2    O     O_R   0.582270 0.370250 0.500030 -0.576773
O3    O     O_R   0.582270 0.629730 0.499980 -0.576516
O4    O     O_R   0.417730 0.370270 0.500020 -0.588987
O5    O     O_R   0.371590 0.500020 0.629830 -0.611497
O6    O     O_R   0.628410 0.499980 0.370170 -0.605147
O7    O     O_R   0.536130 0.499990 0.629840 -0.563008
O8    O     O_R   0.463870 0.500010 0.370160 -0.563262
C53   C     C_2   0.014845 0.345615 0.704797 0.408662
H17   H     H_    0.092725 0.330714 0.702742 0.057681
O9    O     O_2   0.942004 0.315285 0.768322 -0.540697
C54   C     C_2   0.987562 0.644615 0.288539 0.371962
H18   H     H_    0.917548 0.634983 0.272709 0.047014
O10   O     O_2   0.053007 0.696425 0.241036 -0.536336
C55   C     C_2   0.791808 0.453987 0.210500 0.394977
H19   H     H_    0.796311 0.503731 0.258616 0.064323
O11   O     O_2   0.862091 0.399827 0.183711 -0.533659
C56   C     C_2   0.209076 0.541987 0.789065 0.360556
H20   H     H_    0.231913 0.583758 0.728975 0.109191
O12   O     O_2   0.116859 0.522943 0.825462 -0.541318
O13   O     O_3   0.319918 0.451096 0.198710 -0.605354
C57   C     C_3   0.303206 0.360367 0.220818 -0.267539
H21   H     H_    0.377403 0.322397 0.195223 0.198177
H22   H     H_    0.244895 0.331273 0.194052 0.159484
H23   H     H_    0.271417 0.353821 0.296127 0.189523
O14   O     O_3   0.632254 0.371055 0.823695 -0.609248
C58   C     C_3   0.592390 0.284145 0.827846 -0.340250
H24   H     H_    0.505580 0.283335 0.856048 0.167738
H25   H     H_    0.624204 0.239829 0.868395 0.188523
H26   H     H_    0.617019 0.257180 0.757580 0.178986
C59   C     C_2   0.424626 0.236672 0.371538 0.472724
H27   H     H_    0.344477 0.231832 0.374682 0.064716
O15   O     O_2   0.485163 0.285602 0.315222 -0.548714
C60   C     C_2   0.581189 0.764264 0.626243 0.447248
H28   H     H_    0.659877 0.777772 0.624119 0.117425
O16   O     O_2   0.529056 0.707642 0.678383 -0.563456
O17   O     O_3   0.381033 0.077460 0.319256 -0.580919
C61   C     C_3   0.272182 0.064949 0.344758 -0.356923
H29   H     H_    0.229716 0.085418 0.416639 0.149424
H30   H     H_    0.252903 0.995111 0.334126 0.185359
H31   H     H_    0.243832 0.107278 0.300579 0.195992
O18   O     O_3   0.603948 0.923898 0.691573 -0.599518
C62   C     C_3   0.522721 0.929036 0.777112 -0.281586
H32   H     H_    0.450388 0.895800 0.775926 0.174139
H33   H     H_    0.506242 0.999039 0.799968 0.153771
H34   H     H_    0.547643 0.893966 0.828103 0.204135

loop_
_geom_bond_atom_site_label_1
_geom_bond_atom_site_label_2
_ccdc_geom_bond_type
C12   C60   S    
C55   H19   S    
O13   C57   S    
C4    O14   S    
C27   C29   A    
C34   C37   A    
C26   N2    A    
C53   H17   S    
C35   C53   S    
C2    O4    A    
C47   C49   A    
Cu1   Cu2   S    
C40   C46   A    
C25   H3    S    
C35   C37   A    
C54   O10   D    
C60   H28   S    
C15   C16   A    
C18   C21   A    
C7    C9    A    
C45   C47   A    
C61   H29   S    
Cu2   O2    S    
C56   O12   D    
C26   C34   A    
C31   C32   A    
C62   H33   S    
C31   C33   A    
C25   N1    A    
C30   C32   A    
C44   C55   S    
C2    O2    A    
C39   C45   A    
C48   C50   A    
C41   C43   A    
C5    C49   A    
C28   N2    A    
C42   C44   A    
C41   C49   A    
C53   O9    D    
C24   O8    A    
O18   C62   S    
C28   H6    S    
C46   C48   A    
C43   C56   S    
C13   C19   A    
C4    C51   A    
C51   C52   A    
C1    O3    A    
C14   C20   A    
Cu1   O8    S    
C54   H18   S    
C59   O15   D    
C39   C43   A    
C57   H23   S    
C7    C17   A    
C38   H8    S    
C8    C18   A    
C21   H15   S    
C32   C34   A    
Cu1   O5    S    
C26   H4    S    
C37   H7    S    
C58   H24   S    
C40   C44   A    
C62   H34   S    
C3    O13   S    
C16   C18   A    
C23   O5    A    
C57   H22   S    
C9    C11   A    
C61   H31   S    
C10   C12   A    
C42   C50   A    
C24   O6    A    
C58   H25   S    
C12   C14   A    
C8    H14   S    
C13   C15   A    
C14   C16   A    
C4    C6    A    
C20   C22   A    
Cu1   N1    S    
C27   N1    A    
Cu2   O7    S    
C15   C17   A    
C6    C50   A    
C19   C21   A    
C5    H1    S    
Cu1   O1    S    
C1    C10   S    
C33   C38   A    
C6    H2    S    
C3    C5    A    
C47   C51   A    
C3    C52   A    
C29   C35   A    
C45   H10   S    
C17   C22   A    
C30   C36   A    
C46   H9    S    
C1    O1    A    
C36   C38   A    
C29   C31   A    
C27   H5    S    
O17   C61   S    
C20   O18   S    
C11   C13   A    
C56   H20   S    
C19   O17   S    
C60   O16   D    
C36   C54   S    
C23   C39   S    
C28   C30   A    
C24   C40   S    
C41   H11   S    
C57   H21   S    
C61   H30   S    
C7    H13   S    
Cu2   O3    S    
Cu1   O4    S    
C48   C52   A    
C58   H26   S    
Cu2   N2    S    
C8    C10   A    
O14   C58   S    
C59   H27   S    
C42   H12   S    
C55   O11   D    
C11   C59   S    
C23   O7    A    
C2    C9    S    
C22   H16   S    
C62   H32   S    
C25   C33   A    
Cu2   O6    S    
