data_mof_unit_50262.cif
_audit_creation_date              2012-12-10T18:31:59-0500
_audit_creation_method            fapswitch 2.2
_symmetry_space_group_name_H-M    P1
_symmetry_Int_Tables_number       1
_space_group_crystal_system       triclinic
_cell_length_a                    10.644043
_cell_length_b                    14.970299
_cell_length_c                    15.395495
_cell_angle_alpha                 81.760545
_cell_angle_beta                  90.705884
_cell_angle_gamma                 103.536987
_cell_volume                      2359.84233493

loop_
_atom_site_label
_atom_site_type_symbol
_atom_type_description
_atom_site_fract_x
_atom_site_fract_y
_atom_site_fract_z
_atom_type_partial_charge
Br1   Br    Br    0.562308 0.788340 0.273905 -0.513607
Br2   Br    Br    0.603783 0.232901 0.576002 -0.550921
Br3   Br    Br    0.248648 0.983403 0.258129 -0.509526
Br4   Br    Br    0.076411 0.312077 0.611105 -0.505796
C1    C     C_R   0.476486 0.441587 0.662114 0.886186
C2    C     C_R   0.390158 0.437970 0.897893 0.094021
C3    C     C_R   0.382975 0.343686 0.932057 0.162862
C4    C     C_R   0.741725 0.499433 0.501985 0.843906
C5    C     C_R   0.386537 0.503225 0.955581 0.074225
C6    C     C_R   0.395890 0.475608 0.046770 0.082424
C7    C     C_R   0.374583 0.379693 0.079003 -0.228452
C8    C     C_R   0.366761 0.314661 0.022081 -0.209742
C9    C     C_R   0.381454 0.596179 0.925347 -0.232755
C10   C     C_R   0.403577 0.662634 0.981611 -0.201009
C11   C     C_R   0.433988 0.638893 0.068792 0.111231
C12   C     C_3   0.121321 0.497324 0.504274 0.060417
C13   C     C_R   0.430186 0.545223 0.102032 0.095219
C14   C     C_R   0.471779 0.708201 0.122412 -0.212897
C15   C     C_R   0.506261 0.686096 0.209286 0.279871
C16   C     C_R   0.515395 0.558478 0.337177 0.868331
C17   C     C_R   0.469607 0.524704 0.187877 -0.313723
C18   C     C_R   0.639811 0.834873 0.658609 -0.282881
C19   C     C_R   0.644988 0.754211 0.625198 0.306206
C20   C     C_R   0.506727 0.790419 0.508730 -0.044597
C21   C     C_R   0.504061 0.875118 0.538299 0.007719
C22   C     C_R   0.564193 0.891993 0.618699 0.116348
C23   C     C_3   0.092907 0.555472 0.417720 -0.455054
C24   C     C_R   0.445751 0.944102 0.492110 0.028667
C25   C     C_R   0.451587 0.027060 0.528471 0.094663
C26   C     C_R   0.481097 0.027601 0.617507 -0.145684
C27   C     C_R   0.544695 0.964299 0.660359 -0.176900
C28   C     C_R   0.258038 0.498401 0.503098 0.868853
C29   C     C_R   0.384834 0.934835 0.411098 -0.233853
C30   C     C_R   0.335455 0.006387 0.365845 0.289378
C31   C     C_R   0.356905 0.092911 0.396639 0.063484
C32   C     C_R   0.423539 0.105533 0.476004 -0.088706
C33   C     C_R   0.316891 0.168068 0.348828 -0.255732
C34   C     C_3   0.086829 0.541578 0.583460 -0.377259
C35   C     C_R   0.349588 0.254577 0.376893 -0.033547
C36   C     C_R   0.466846 0.197769 0.495895 0.348344
C37   C     C_3   0.894855 0.397554 0.512552 -0.355773
C38   C     C_3   0.037343 0.396103 0.509701 0.108491
C39   C     C_3   0.948890 0.558817 0.416125 0.006979
C40   C     C_3   0.942751 0.542014 0.582312 -0.472815
C41   C     C_3   0.878650 0.499128 0.501610 0.071854
C42   C     C_3   0.729430 0.694754 0.672019 -0.397273
C43   C     C_3   0.699924 0.670074 0.770868 -0.876377
C44   C     C_3   0.882113 0.542613 0.326766 -0.372211
C45   C     C_R   0.440988 0.405187 0.753968 -0.050025
C46   C     C_3   0.909595 0.464022 0.281602 -0.819250
C47   C     C_R   0.502057 0.592483 0.243447 -0.139702
C48   C     C_R   0.397096 0.280393 0.875995 -0.182863
C49   C     C_R   0.428063 0.311336 0.787395 -0.142004
C50   C     C_R   0.414667 0.465963 0.807957 -0.261576
H1    H     H_    0.842699 0.357845 0.462265 0.199818
H2    H     H_    0.419503 0.536270 0.778757 0.155374
H3    H     H_    0.850801 0.360939 0.576813 0.240694
H4    H     H_    0.363599 0.352992 0.148117 0.146160
H5    H     H_    0.359978 0.619588 0.858503 0.143604
H6    H     H_    0.475945 0.780092 0.096375 0.179666
H7    H     H_    0.578332 0.971770 0.726284 0.153634
H8    H     H_    0.317278 0.312176 0.340594 0.141245
H9    H     H_    0.692236 0.852196 0.717054 0.164907
H10   H     H_    0.451224 0.767481 0.453816 0.166518
H11   H     H_    0.457582 0.078072 0.654157 0.177555
H12   H     H_    0.144674 0.614365 0.580117 0.188049
H13   H     H_    0.372772 0.872239 0.381811 0.191991
H14   H     H_    0.261639 0.161272 0.289740 0.196279
H15   H     H_    0.055982 0.366452 0.450121 0.141900
H16   H     H_    0.121946 0.525909 0.361259 0.181265
H17   H     H_    0.933302 0.614821 0.579759 0.185232
H18   H     H_    0.894367 0.502165 0.644427 0.191185
H19   H     H_    0.109610 0.502691 0.646465 0.206945
H20   H     H_    0.594613 0.654643 0.784509 0.264407
H21   H     H_    0.736796 0.608324 0.797509 0.258185
H22   H     H_    0.748088 0.728391 0.805787 0.255938
H23   H     H_    0.946946 0.631921 0.421946 0.149256
H24   H     H_    0.719747 0.629729 0.645863 0.262410
H25   H     H_    0.832292 0.732823 0.661743 0.187221
H26   H     H_    0.003925 0.486894 0.245527 0.246311
H27   H     H_    0.909548 0.400674 0.327914 0.252285
H28   H     H_    0.834179 0.445899 0.232406 0.252584
H29   H     H_    0.776030 0.531900 0.334317 0.201209
H30   H     H_    0.913247 0.607781 0.279769 0.217423
H31   H     H_    0.153718 0.627667 0.412310 0.178116
H32   H     H_    0.355488 0.242163 0.048991 0.169540
H33   H     H_    0.478200 0.455371 0.212279 0.176974
H34   H     H_    0.402286 0.733688 0.955778 0.152374
H35   H     H_    0.390156 0.208015 0.901441 0.150540
H36   H     H_    0.443909 0.262457 0.745632 0.185281
N1    N     N_R   0.573860 0.731700 0.552730 -0.122360
N2    N     N_R   0.426060 0.268290 0.447230 -0.103642
O1    O     O_R   0.462770 0.383110 0.605620 -0.561651
O2    O     O_R   0.510160 0.531900 0.639510 -0.634632
O3    O     O_R   0.661510 0.425600 0.483070 -0.575985
O4    O     O_R   0.708900 0.574390 0.516960 -0.651413
O5    O     O_R   0.489840 0.468100 0.360490 -0.634300
O6    O     O_R   0.537230 0.616890 0.394380 -0.564999
O7    O     O_R   0.291100 0.425610 0.483040 -0.600030
O8    O     O_R   0.338490 0.574400 0.516930 -0.636070
Zn1   Zn    Zn3+2 0.468350 0.400660 0.477370 0.996785
Zn2   Zn    Zn3+2 0.531650 0.599340 0.522630 0.949055

loop_
_geom_bond_atom_site_label_1
_geom_bond_atom_site_label_2
_ccdc_geom_bond_type
C11   C14   A    
C17   H33   S    
O4    Zn2   S    
C37   C38   S    
C27   H7    S    
C31   C32   A    
C4    O4    A    
C2    C5    A    
C1    O2    A    
C48   C49   A    
C21   C24   A    
C44   H30   S    
C25   C32   A    
C46   H28   S    
C24   C25   A    
C31   C33   A    
C43   H22   S    
C14   C15   A    
C16   C47   S    
C26   C27   A    
C6    C13   A    
C45   C50   A    
C33   H14   S    
C40   H17   S    
C30   C31   A    
C23   H31   S    
C5    C9    A    
C4    C41   S    
C37   H1    S    
C18   H9    S    
C16   O5    A    
C34   H12   S    
C7    H4    S    
C5    C6    A    
C12   C23   S    
C44   C46   S    
C22   C27   A    
C20   H10   S    
C19   C42   S    
C9    C10   A    
C1    C45   S    
C48   H35   S    
C4    O3    A    
C2    C50   A    
C3    C8    A    
C50   H2    S    
Br1   C15   S    
C32   C36   A    
C20   C21   A    
O1    Zn1   S    
C42   H24   S    
C10   H34   S    
Br3   C30   S    
C21   C22   A    
O6    Zn2   S    
C38   H15   S    
C13   C17   A    
C28   O8    A    
C34   C40   S    
C25   C26   A    
C23   C39   S    
O8    Zn2   S    
C29   C30   A    
C36   N2    A    
C39   C41   S    
C23   H16   S    
N2    Zn1   S    
C14   H6    S    
O7    Zn1   S    
C24   C29   A    
C19   N1    A    
C12   C28   S    
N1    Zn2   S    
C20   N1    A    
C12   C38   S    
C35   N2    A    
C17   C47   A    
C40   C41   S    
C29   H13   S    
C39   C44   S    
C11   C13   A    
C35   H8    S    
C42   C43   S    
C10   C11   A    
C43   H20   S    
C46   H26   S    
C3    C48   A    
C1    O1    A    
C7    C8    A    
C28   O7    A    
C2    C3    A    
C9    H5    S    
C39   H23   S    
C44   H29   S    
C8    H32   S    
C37   H3    S    
C33   C35   A    
C42   H25   S    
Br4   C38   S    
C15   C47   A    
C45   C49   A    
C40   H18   S    
C26   H11   S    
C6    C7    A    
C43   H21   S    
Br2   C36   S    
C16   O6    A    
O2    Zn2   S    
C18   C22   A    
C49   H36   S    
C37   C41   S    
C18   C19   A    
O5    Zn1   S    
O3    Zn1   S    
C46   H27   S    
C12   C34   S    
C34   H19   S    
