data_mof_unit_51862.cif
_audit_creation_date              2013-03-05T15:41:46-0500
_audit_creation_method            fapswitch 2.2
_symmetry_space_group_name_H-M    P1
_symmetry_Int_Tables_number       1
_space_group_crystal_system       triclinic
_cell_length_a                    11.228703
_cell_length_b                    12.758802
_cell_length_c                    23.588622
_cell_angle_alpha                 91.476926
_cell_angle_beta                  97.028553
_cell_angle_gamma                 68.802716
_cell_volume                      3126.47073851

loop_
_atom_site_label
_atom_site_type_symbol
_atom_site_description
_atom_site_fract_x
_atom_site_fract_y
_atom_site_fract_z
_atom_type_partial_charge
O1    O     O_R   0.196340 0.303200 0.448500 -0.464236
O2    O     O_R   0.199310 0.519670 0.454880 -0.465361
C1    C     C_R   0.149756 0.616743 0.429752 0.554698
O3    O     O_R   0.045660 0.691380 0.441680 -0.490987
O4    O     O_R   0.811930 0.659460 0.430950 -0.459806
C2    C     C_R   0.748250 0.603728 0.403874 0.571631
O5    O     O_R   0.757900 0.507620 0.421760 -0.449774
O6    O     O_R   0.988630 0.322990 0.439840 -0.496396
C3    C     C_R   0.100512 0.282114 0.423412 0.544637
O7    O     O_R   0.196380 0.301720 0.573850 -0.501591
O8    O     O_R   0.199350 0.518300 0.571080 -0.456827
C4    C     C_R   0.151097 0.619100 0.589965 0.576153
O9    O     O_R   0.045700 0.689900 0.567030 -0.520311
O10   O     O_R   0.811960 0.658090 0.547150 -0.499083
C5    C     C_R   0.749638 0.602239 0.565748 0.561131
O11   O     O_R   0.757930 0.506140 0.547110 -0.434606
O12   O     O_R   0.988670 0.321620 0.556040 -0.464006
C6    C     C_R   0.094643 0.290197 0.587736 0.518319
Cr1   Cr    Cr6+3 0.189770 0.415650 0.511620 1.152761
Cr2   Cr    Cr6+3 0.930400 0.667320 0.496770 1.105008
Cr3   Cr    Cr6+3 0.879870 0.417010 0.491650 1.163521
O13   O     O_3   0.000020 0.499990 0.500010 -0.315501
C7    C     C_R   0.672195 0.751447 0.138665 -0.012399
C8    C     C_R   0.691025 0.633793 0.343735 -0.002311
C9    C     C_R   0.668832 0.551985 0.250277 -0.031697
C10   C     C_R   0.664215 0.551134 0.309418 0.180773
C11   C     C_R   0.684745 0.733728 0.317891 0.200045
C12   C     C_R   0.693243 0.735893 0.258326 0.037802
C13   C     C_R   0.693012 0.640791 0.224463 -0.029044
C14   C     C_R   0.701913 0.644754 0.164878 0.012125
C15   C     C_R   0.677374 0.841919 0.171875 -0.097024
C16   C     C_R   0.698190 0.832240 0.231266 0.263680
H1    H     H_    0.663254 0.921309 0.151485 0.142817
C17   C     C_1   0.245050 0.158909 0.124359 -0.017889
C18   C     C_2   0.211188 0.220259 0.231357 0.230072
C19   C     C_2   0.126773 0.189452 0.257549 -0.006097
C20   C     C_1   0.117581 0.210255 0.317889 0.041085
C21   C     C_1   0.230943 0.190118 0.172608 -0.023024
C22   C     C_1   0.110593 0.236173 0.367266 0.075386
C23   C     C_1   0.184420 0.764663 0.127615 0.024564
C24   C     C_2   0.219854 0.729217 0.239410 0.139397
C25   C     C_2   0.160620 0.670076 0.264444 0.205199
C26   C     C_1   0.182719 0.646624 0.324909 0.127364
C27   C     C_1   0.195589 0.747587 0.178173 0.012588
C28   C     C_1   0.181867 0.630189 0.374650 0.113673
C29   C     C_1   0.529664 0.792693 0.851925 0.014177
C30   C     C_2   0.557455 0.766823 0.741901 0.230022
C31   C     C_2   0.643976 0.667658 0.725361 0.011903
C32   C     C_1   0.667512 0.650234 0.666341 0.140896
C33   C     C_1   0.542116 0.784482 0.801864 -0.000722
C34   C     C_1   0.697402 0.632942 0.618681 0.144536
C35   C     C_R   0.208897 0.173906 0.854280 -0.053777
C36   C     C_R   0.091311 0.258209 0.646013 -0.039356
C37   C     C_R   0.993615 0.205345 0.721698 -0.000762
C38   C     C_R   0.982501 0.245104 0.665526 0.165971
C39   C     C_R   0.188168 0.267761 0.685731 -0.106771
C40   C     C_R   0.195047 0.240547 0.742412 -0.041551
C41   C     C_R   0.107478 0.193939 0.758271 -0.031129
C42   C     C_R   0.138053 0.137814 0.810779 0.095835
C43   C     C_R   0.280811 0.239900 0.841250 0.174167
C44   C     C_R   0.286626 0.259629 0.783616 0.195013
H2    H     H_    0.252483 0.304968 0.672233 0.216137
C45   C     C_R   0.128685 0.743621 0.850964 -0.019379
C46   C     C_R   0.197685 0.650179 0.646674 -0.005516
C47   C     C_R   0.324865 0.592473 0.738104 -0.088832
C48   C     C_R   0.312269 0.581256 0.678801 0.159309
C49   C     C_R   0.109824 0.741510 0.673317 0.014216
C50   C     C_R   0.108945 0.733958 0.732550 -0.045749
C51   C     C_R   0.221284 0.662741 0.765329 -0.081804
C52   C     C_R   0.227084 0.663320 0.824708 0.147479
C53   C     C_R   0.006936 0.795329 0.819253 0.136874
C54   C     C_R   0.995719 0.785931 0.759129 0.208855
H3    H     H_    0.414845 0.545216 0.762851 0.207672
O14   O     O_R   0.113660 0.883270 0.047820 -0.505502
O15   O     O_R   0.186930 0.068530 0.043990 -0.504190
C55   C     C_R   0.267200 0.109744 0.069515 0.550148
O16   O     O_R   0.377770 0.089040 0.054220 -0.496722
O17   O     O_R   0.562800 0.872960 0.056970 -0.501428
C56   C     C_R   0.601343 0.774283 0.080838 0.554206
O18   O     O_R   0.555390 0.700940 0.062700 -0.518523
O19   O     O_R   0.295020 0.731920 0.049950 -0.502239
C57   C     C_R   0.190655 0.789304 0.069756 0.551704
O20   O     O_R   0.094290 0.884230 0.921550 -0.482631
O21   O     O_R   0.168980 0.069410 0.926940 -0.495955
C58   C     C_R   0.242976 0.113816 0.908227 0.581311
O22   O     O_R   0.358400 0.089990 0.927950 -0.458747
O23   O     O_R   0.544850 0.873850 0.939920 -0.481457
C59   C     C_R   0.511422 0.798225 0.910976 0.563611
O24   O     O_R   0.536020 0.701900 0.936430 -0.472361
O25   O     O_R   0.277070 0.732810 0.932890 -0.462739
C60   C     C_R   0.164176 0.785879 0.906853 0.568250
Cr4   Cr    Cr6+3 0.149500 0.973980 0.985330 1.037272
Cr5   Cr    Cr6+3 0.457000 0.976510 0.994660 1.084433
Cr6   Cr    Cr6+3 0.411170 0.724270 0.995270 1.088170
O26   O     O_3   0.339220 0.891590 0.991750 -0.299984
C61   C     C_R   0.758115 0.541028 0.130366 0.042471
C62   C     C_R   0.888974 0.504500 0.122415 -0.078515
C63   C     C_R   0.941004 0.418775 0.084371 -0.130933
C64   C     C_R   0.863521 0.366869 0.054071 -0.121195
C65   C     C_R   0.733838 0.401091 0.061541 -0.114666
C66   C     C_R   0.681247 0.488216 0.098641 -0.054971
H4    H     H_    0.950720 0.544216 0.144080 0.212004
H5    H     H_    0.041578 0.392641 0.078344 0.124790
H6    H     H_    0.903825 0.300367 0.024805 0.117650
H7    H     H_    0.672964 0.362003 0.037632 0.134371
H8    H     H_    0.578946 0.517314 0.100399 0.142824
N1    N     N_R   0.311358 0.772581 0.270472 0.048735
O27   O     O_R   0.365804 0.826253 0.242655 -0.330376
O28   O     O_R   0.339177 0.762394 0.325823 -0.310433
C67   C     C_R   0.734561 0.580927 0.767980 0.028672
C68   C     C_R   0.868671 0.541478 0.765795 -0.047708
C69   C     C_R   0.954209 0.476136 0.810697 -0.104479
C70   C     C_R   0.907190 0.447336 0.857695 -0.115675
C71   C     C_R   0.774628 0.478076 0.858239 -0.082408
C72   C     C_R   0.689135 0.542525 0.813168 -0.054623
H9    H     H_    0.908360 0.563420 0.730515 0.156244
H10   H     H_    0.057046 0.449089 0.809414 0.142683
H11   H     H_    0.973569 0.397923 0.892711 0.129497
H12   H     H_    0.737838 0.452671 0.893680 0.155428
H13   H     H_    0.587225 0.566723 0.814661 0.150311
N2    N     N_R   0.484616 0.859486 0.702520 0.083147
O29   O     O_R   0.426377 0.958812 0.722506 -0.329246
O30   O     O_R   0.472216 0.846678 0.647452 -0.357581
N3    N     N_R   0.120275 0.032551 0.817610 -0.248094
O31   O     O_R   0.096665 0.976285 0.773906 -0.000759
O32   O     O_R   0.096610 0.976107 0.773773 -0.000758
N4    N     N_R   0.363510 0.268587 0.885654 0.162004
O33   O     O_R   0.487738 0.225369 0.885440 -0.306246
O34   O     O_R   0.318858 0.309862 0.933126 -0.301779
C73   C     C_R   0.883541 0.183378 0.742507 0.078544
C74   C     C_R   0.816087 0.127156 0.707718 -0.038453
C75   C     C_R   0.720540 0.098477 0.728151 0.005534
C76   C     C_R   0.695543 0.119700 0.784713 0.034898
C77   C     C_R   0.759348 0.177558 0.819498 -0.058381
C78   C     C_R   0.851122 0.210784 0.798278 -0.062405
H14   H     H_    0.839358 0.102721 0.665229 0.154466
H15   H     H_    0.667486 0.057691 0.700237 0.204632
H16   H     H_    0.624989 0.093039 0.801180 0.198268
H17   H     H_    0.738679 0.195871 0.863060 0.153202
H18   H     H_    0.900730 0.253181 0.826492 0.111068
N5    N     N_R   0.386014 0.294630 0.766988 0.077170
O35   O     O_R   0.425018 0.364790 0.797444 -0.262608
O36   O     O_R   0.449953 0.244663 0.725465 -0.327064
N6    N     N_R   0.856119 0.294831 0.634589 0.087690
O37   O     O_R   0.819980 0.247583 0.589643 -0.327075
O38   O     O_R   0.770662 0.378757 0.656734 -0.295753
N7    N     N_R   0.310541 0.566809 0.857705 0.109281
O39   O     O_R   0.258759 0.502924 0.880016 -0.284350
O40   O     O_R   0.429266 0.554722 0.875227 -0.326938
N8    N     N_R   0.894553 0.853092 0.846868 -0.181494
O41   O     O_R   0.879348 0.817825 0.895794 -0.000470
O42   O     O_R   0.879458 0.817888 0.895706 -0.000470
N9    N     N_R   0.871575 0.809170 0.726375 0.054468
O43   O     O_R   0.862075 0.747214 0.682779 -0.422603
O44   O     O_R   0.766277 0.867826 0.747534 -0.343610
N10   N     N_R   0.418425 0.506464 0.651783 0.092077
O45   O     O_R   0.508159 0.424257 0.680964 -0.233307
O46   O     O_R   0.436978 0.530806 0.601138 -0.297576
C79   C     C_R   0.062904 0.853974 0.643565 0.035711
C80   C     C_R   0.153187 0.905659 0.640400 -0.080571
C81   C     C_R   0.129398 0.992699 0.600911 -0.093773
C82   C     C_R   0.013995 0.030240 0.564505 -0.073695
C83   C     C_R   0.919615 0.984980 0.569548 -0.097090
C84   C     C_R   0.942900 0.898337 0.609301 -0.051907
H19   H     H_    0.245057 0.873973 0.666539 0.188785
H20   H     H_    0.202036 0.028745 0.597514 0.168610
H21   H     H_    0.997244 0.094769 0.532708 0.164416
H22   H     H_    0.829365 0.014823 0.541740 0.164997
H23   H     H_    0.870870 0.860976 0.608745 0.203739
C85   C     C_R   0.619589 0.473361 0.216797 0.045779
C86   C     C_R   0.696210 0.359307 0.213610 -0.036411
C87   C     C_R   0.642761 0.284027 0.187496 -0.052103
C88   C     C_R   0.513881 0.322137 0.163742 -0.047511
C89   C     C_R   0.436680 0.435178 0.167671 -0.087207
C90   C     C_R   0.489385 0.510170 0.194492 -0.078378
H24   H     H_    0.795698 0.328912 0.232567 0.139615
H25   H     H_    0.700063 0.195756 0.186594 0.163380
H26   H     H_    0.473264 0.263526 0.143453 0.147862
H27   H     H_    0.336146 0.464555 0.150235 0.130507
H28   H     H_    0.430434 0.597329 0.197182 0.140009
N11   N     N_R   0.723377 0.921113 0.263103 0.106673
O47   O     O_R   0.664804 0.025206 0.245831 -0.295889
O48   O     O_R   0.819260 0.897091 0.303675 -0.303490
N12   N     N_R   0.618998 0.472562 0.334192 0.115201
O49   O     O_R   0.686003 0.365321 0.335125 -0.284044
O50   O     O_R   0.519461 0.509590 0.362212 -0.264101
N13   N     N_R   0.636132 0.837052 0.348286 0.125738
O51   O     O_R   0.523474 0.910875 0.330409 -0.212402
O52   O     O_R   0.703629 0.860047 0.392311 -0.252584
C91   C     C_R   0.047163 0.129271 0.226750 -0.000478
C92   C     C_R   0.042791 0.031451 0.250740 -0.037759
C93   C     C_R   0.976978 0.970087 0.219747 -0.041481
C94   C     C_R   0.916567 0.004243 0.164490 -0.078121
C95   C     C_R   0.917803 0.102695 0.140747 -0.113137
C96   C     C_R   0.979557 0.166431 0.172355 -0.119629
H29   H     H_    0.093169 0.000829 0.292638 0.161156
H30   H     H_    0.976018 0.894063 0.238026 0.190186
H31   H     H_    0.868254 0.954887 0.140283 0.136084
H32   H     H_    0.868909 0.130808 0.098368 0.116771
H33   H     H_    0.976222 0.244208 0.154256 0.123990
N14   N     N_R   0.293729 0.271185 0.262698 0.100640
O53   O     O_R   0.415953 0.233451 0.257426 -0.243657
O54   O     O_R   0.247832 0.355575 0.295917 -0.289758
N15   N     N_R   0.061716 0.637593 0.232591 0.040572
O55   O     O_R   0.035435 0.554234 0.251229 -0.342427
O56   O     O_R   0.980607 0.704488 0.193180 -0.432746

loop_
_geom_bond_atom_site_label_1
_geom_bond_atom_site_label_2
_geom_bond_distance
_ccdc_geom_bond_type
C9    C85   1.479581 S    
C87   H25   1.077458 S    
C31   C67   1.504297 S    
O23   C59   1.305096 A    
C91   C92   1.402783 A    
N1    O28   1.303373 A    
N14   O53   1.300632 A    
C25   N15   1.443014 S    
N7    O39   1.311171 A    
C8    C11   1.402447 A    
C86   C87   1.399312 A    
C89   H27   1.082734 S    
N4    O34   1.303357 A    
C62   C63   1.399478 A    
O25   C60   1.285612 A    
O4    Cr2   1.942483 S    
C88   C89   1.396007 A    
C39   C40   1.376031 A    
O20   Cr4   2.038468 S    
O8    Cr1   1.914253 S    
C65   H7    1.082459 S    
C96   H33   1.076791 S    
C19   C91   1.491697 S    
Cr3   O13   1.984185 S    
C12   C13   1.436024 A    
N7    O40   1.300626 A    
C8    C10   1.408582 A    
C82   C83   1.395587 A    
O2    C1    1.285954 A    
N5    O36   1.300064 A    
C58   O22   1.250381 A    
C69   H10   1.083155 S    
C4    C46   1.473664 S    
C30   N2    1.449499 S    
C53   N8    1.436593 S    
C85   C86   1.402943 A    
O17   Cr5   1.963390 S    
C94   H31   1.081476 S    
O23   Cr5   1.909493 S    
C3    C22   1.434969 S    
C47   H3    1.076295 S    
N12   O49   1.300674 A    
C24   C25   1.357395 D    
O14   Cr4   2.060145 S    
O24   Cr6   2.034607 S    
C67   C68   1.411816 A    
C35   C42   1.392324 A    
C14   C61   1.509516 S    
C35   C43   1.421705 A    
C6    C36   1.452678 S    
C89   C90   1.397363 A    
C15   C16   1.392990 A    
C75   C76   1.396527 A    
C32   C34   1.204673 T    
C30   C31   1.369411 D    
N1    O27   1.302832 A    
C15   H1    1.082972 S    
N4    O33   1.302000 A    
C68   H9    1.078209 S    
C54   N9    1.441307 S    
C5    C34   1.429816 S    
N9    O44   1.300930 A    
C81   H20   1.082756 S    
O9    Cr2   2.055706 S    
C59   O24   1.303531 A    
N11   O48   1.301282 A    
C95   C96   1.395718 A    
C76   H16   1.082236 S    
Cr5   O26   1.984403 S    
C61   C66   1.412647 A    
N14   O54   1.301144 A    
C84   H23   1.075855 S    
Cr6   O26   1.990594 S    
O14   C57   1.274939 A    
C69   C70   1.395468 A    
O25   Cr6   1.947250 S    
C30   C33   1.447821 S    
C29   C59   1.428808 S    
C85   C90   1.401009 A    
C36   C38   1.421943 A    
C9    C13   1.423656 A    
C78   H18   1.074451 S    
C37   C73   1.501080 S    
O1    Cr1   2.030017 S    
N2    O30   1.301809 A    
C5    O11   1.266877 A    
C49   C50   1.404503 A    
C7    C14   1.418144 A    
C23   C57   1.424033 S    
C16   N11   1.437267 S    
C12   C16   1.421327 A    
Cr1   O13   1.996741 S    
O1    C3    1.275037 A    
O21   C58   1.284244 A    
N6    O38   1.300387 A    
C74   H14   1.076585 S    
C77   H17   1.082187 S    
O17   C56   1.293150 A    
O6    C3    1.278803 A    
C9    C10   1.402803 A    
N11   O47   1.301181 A    
C4    O9    1.266769 A    
C1    C28   1.421177 S    
Cr4   O26   1.993989 S    
O19   C57   1.274168 A    
C70   H11   1.082415 S    
C43   C44   1.402547 A    
C18   C19   1.363796 D    
C7    C15   1.392948 A    
O15   C55   1.282595 A    
C46   C49   1.417311 A    
C13   C14   1.424710 A    
O22   Cr5   2.080903 S    
O10   Cr2   1.924087 S    
C79   C80   1.404503 A    
C79   C84   1.412394 A    
C45   C52   1.403641 A    
O7    Cr1   2.068475 S    
C50   C54   1.418876 A    
C2    C8    1.482956 S    
C61   C62   1.406834 A    
C18   C21   1.450390 S    
O12   C6    1.260327 A    
C11   N13   1.441032 S    
C93   H30   1.075705 S    
C55   O16   1.268446 A    
C40   C44   1.409122 A    
C26   C28   1.199022 T    
N2    O29   1.304319 A    
C77   C78   1.394726 A    
O15   Cr4   1.919595 S    
C91   C96   1.407168 A    
C44   N5    1.440576 S    
C31   C32   1.445369 S    
C73   C78   1.409579 A    
C45   C53   1.409482 A    
C63   C64   1.395169 A    
C76   C77   1.392431 A    
C24   C27   1.445916 S    
C39   H2    1.077153 S    
C56   O18   1.264711 A    
C17   C55   1.432846 S    
C25   C26   1.437722 S    
Cr2   O13   1.990413 S    
O18   Cr6   2.070378 S    
C1    O3    1.270431 A    
C66   H8    1.077743 S    
C87   C88   1.396923 A    
O16   Cr5   2.026055 S    
N3    O32   1.300492 A    
C70   C71   1.397086 A    
C37   C41   1.414955 A    
C36   C39   1.384202 A    
C42   N3    1.443072 S    
C37   C38   1.406050 A    
C35   C58   1.439631 S    
C38   N6    1.438141 S    
C24   N1    1.450733 S    
C68   C69   1.398891 A    
O2    Cr1   1.947737 S    
C17   C21   1.205870 T    
C50   C51   1.408308 A    
C43   N4    1.442693 S    
C18   N14   1.439032 S    
C92   H29   1.082903 S    
N15   O56   1.301428 A    
N6    O37   1.300321 A    
O6    Cr3   1.911614 S    
O8    C4    1.292924 A    
C72   H13   1.076954 S    
O11   Cr3   2.028573 S    
C71   C72   1.397324 A    
C2    O5    1.269951 A    
O20   C60   1.281668 A    
C86   H24   1.082462 S    
C29   C33   1.203511 T    
N8    O41   1.301575 A    
C64   C65   1.393252 A    
C7    C56   1.471647 S    
C80   C81   1.396494 A    
C80   H19   1.078597 S    
C73   C74   1.404327 A    
C41   C42   1.388751 A    
C83   H22   1.083223 S    
N13   O51   1.301349 A    
C20   C22   1.206591 T    
O5    Cr3   2.081062 S    
C74   C75   1.391691 A    
C93   C94   1.395752 A    
C48   N10   1.438622 S    
O19   Cr6   1.920232 S    
C40   C41   1.408809 A    
O4    C2    1.287379 A    
C71   H12   1.081635 S    
C81   C82   1.395024 A    
C88   H26   1.082145 S    
O7    C6    1.284299 A    
C47   C51   1.402859 A    
C67   C72   1.406091 A    
N10   O46   1.301482 A    
C65   C66   1.397096 A    
N12   O50   1.300806 A    
C64   H6    1.081613 S    
N8    O42   1.298902 A    
C47   C48   1.397571 A    
C51   C52   1.394143 A    
C92   C93   1.396519 A    
O12   Cr3   1.961292 S    
N13   O52   1.300544 A    
C83   C84   1.397909 A    
C90   H28   1.073859 S    
C82   H21   1.077550 S    
O3    Cr2   2.043868 S    
C95   H32   1.082187 S    
C23   C27   1.201051 T    
N10   O45   1.300921 A    
N15   O55   1.301675 A    
C19   C20   1.450398 S    
C94   C95   1.393742 A    
C45   C60   1.475712 S    
C11   C12   1.421539 A    
O10   C5    1.281340 A    
C49   C79   1.497923 S    
C52   N7    1.427122 S    
O21   Cr4   1.944264 S    
C53   C54   1.414225 A    
C75   H15   1.081574 S    
N5    O35   1.297153 A    
C62   H4    1.073616 S    
C63   H5    1.082267 S    
C46   C48   1.407323 A    
N3    O31   1.296548 A    
N9    O43   1.298477 A    
C10   N12   1.440541 S    
