data_mof_unit_25150.cif
_audit_creation_date              2012-12-10T18:46:19-0500
_audit_creation_method            fapswitch 2.2
_symmetry_space_group_name_H-M    P1
_symmetry_Int_Tables_number       1
_space_group_crystal_system       triclinic
_cell_length_a                    9.897363
_cell_length_b                    10.713729
_cell_length_c                    13.106539
_cell_angle_alpha                 91.195596
_cell_angle_beta                  69.452043
_cell_angle_gamma                 90.043694
_cell_volume                      1301.05152475

loop_
_atom_site_label
_atom_site_type_symbol
_atom_type_description
_atom_site_fract_x
_atom_site_fract_y
_atom_site_fract_z
_atom_type_partial_charge
C1    C     C_R   0.499870 0.739964 0.500412 0.875471
C2    C     C_R   0.365489 0.485120 0.822825 -0.125650
C3    C     C_R   0.610021 0.936752 0.522197 -0.173095
C4    C     C_R   0.419337 0.494212 0.704292 0.861638
C5    C     C_R   0.610006 0.064644 0.522095 -0.177253
C6    C     C_R   0.499507 0.127535 0.500718 -0.018608
C7    C     C_R   0.388613 0.063289 0.480040 -0.173920
C8    C     C_R   0.388593 0.935443 0.480191 -0.175534
C9    C     C_R   0.499512 0.872516 0.500965 -0.027915
C10   C     C_R   0.959960 0.426794 0.428098 -0.079492
C11   C     C_R   0.104059 0.426143 0.426657 0.029895
C12   C     C_R   0.427782 0.472397 0.985559 0.097307
C13   C     C_R   0.036488 0.573566 0.573492 0.025025
C14   C     C_R   0.893397 0.572844 0.572294 -0.033945
C15   C     C_R   0.499893 0.260044 0.500057 0.863050
C16   C     C_R   0.581242 0.498061 0.294957 0.871538
C17   C     C_R   0.773050 0.364831 0.011659 -0.156507
C18   C     C_R   0.631932 0.479110 0.176257 -0.167034
C19   C     C_R   0.232348 0.540097 0.883915 -0.181964
C20   C     C_R   0.193854 0.556416 0.995948 -0.099269
C21   C     C_R   0.291576 0.526074 0.046495 -0.126964
C22   C     C_2   0.880158 0.392441 0.155591 0.405784
C23   C     C_R   0.455569 0.437559 0.875839 0.091260
C24   C     C_2   0.208765 0.343087 0.344712 0.374372
C25   C     C_2   0.067383 0.655205 0.655138 0.357600
C26   C     C_R   0.538358 0.453475 0.028949 0.097114
C27   C     C_R   0.663011 0.382797 0.969295 0.128383
C28   C     C_R   0.676873 0.331753 0.867487 -0.220714
C29   C     C_R   0.574363 0.358639 0.821155 -0.175820
C30   C     C_R   0.530347 0.506860 0.128488 -0.226259
C31   C     C_R   0.759533 0.412493 0.115275 -0.033450
H1    H     H_    0.695644 0.113857 0.539200 0.159965
H2    H     H_    0.256597 0.542948 0.133381 0.141661
H3    H     H_    0.090565 0.598086 0.043107 0.137481
H4    H     H_    0.588947 0.316823 0.742092 0.165782
H5    H     H_    0.695677 0.888609 0.539338 0.164205
H6    H     H_    0.900141 0.458230 0.212316 0.084236
H7    H     H_    0.309241 0.315925 0.351849 0.137536
H8    H     H_    0.175064 0.668064 0.654549 0.142851
H9    H     H_    0.302810 0.111318 0.463046 0.153429
H10   H     H_    0.302789 0.886291 0.463265 0.162425
H11   H     H_    0.928922 0.367415 0.372391 0.182113
H12   H     H_    0.810258 0.630907 0.629244 0.183945
H13   H     H_    0.769115 0.273898 0.822209 0.153221
H14   H     H_    0.869547 0.313291 0.963725 0.177654
H15   H     H_    0.442068 0.568359 0.172884 0.154191
H16   H     H_    0.160287 0.574276 0.844707 0.167457
N1    N     N_R   0.142790 0.500030 0.500030 -0.168238
N2    N     N_R   0.857180 0.499940 0.500010 -0.127658
O1    O     O_R   0.385370 0.683250 0.500010 -0.650185
O2    O     O_2   0.182582 0.301672 0.266147 -0.565159
O3    O     O_2   0.970322 0.711060 0.725820 -0.600151
O4    O     O_R   0.614700 0.683220 0.500010 -0.614656
O5    O     O_R   0.328400 0.499990 0.653620 -0.635700
O6    O     O_R   0.557730 0.499960 0.653620 -0.610323
O7    O     O_R   0.385300 0.316780 0.499990 -0.650165
O8    O     O_R   0.614630 0.316750 0.499990 -0.624727
O9    O     O_R   0.442270 0.500040 0.346380 -0.628651
O10   O     O_R   0.671600 0.500010 0.346380 -0.628516
O11   O     O_2   0.962516 0.303719 0.122567 -0.525177
Zn1   Zn    Zn3+2 0.346870 0.500020 0.500000 0.916542
Zn2   Zn    Zn3+2 0.653130 0.499980 0.500000 0.939570

loop_
_geom_bond_atom_site_label_1
_geom_bond_atom_site_label_2
_ccdc_geom_bond_type
C13   N1    A    
C2    C4    S    
C7    H9    S    
C6    C7    A    
C3    C9    A    
O5    Zn1   S    
C10   H11   S    
O4    Zn2   S    
C29   H4    S    
C24   H7    S    
C19   C20   A    
C5    H1    S    
C20   H3    S    
C15   O7    A    
O9    Zn1   S    
C26   C27   A    
C25   O3    D    
C7    C8    A    
C16   O9    A    
C13   C14   A    
C20   C21   A    
C15   O8    A    
C12   C23   A    
C13   C25   S    
C11   N1    A    
C10   N2    A    
C22   C31   S    
C3    H5    S    
C24   O2    D    
C18   C30   A    
C23   C29   A    
C28   C29   A    
C12   C26   A    
C30   H15   S    
C26   C30   A    
C4    O6    A    
C22   O11   D    
C5    C6    A    
C17   C31   A    
C19   H16   S    
N2    Zn2   S    
C14   N2    A    
C21   H2    S    
C10   C11   A    
C17   C27   A    
O6    Zn2   S    
C3    C5    A    
C11   C24   S    
O8    Zn2   S    
C1    C9    S    
C8    H10   S    
C16   C18   S    
C1    O1    A    
N1    Zn1   S    
C2    C23   A    
O1    Zn1   S    
C1    O4    A    
O7    Zn1   S    
C8    C9    A    
O10   Zn2   S    
C18   C31   A    
C4    O5    A    
C6    C15   S    
C2    C19   A    
C22   H6    S    
C12   C21   A    
C28   H13   S    
C25   H8    S    
C17   H14   S    
C14   H12   S    
C27   C28   A    
C16   O10   A    
