data_mof_unit_9550.cif
_audit_creation_date              2012-12-11T15:50:27-0500
_audit_creation_method            fapswitch 2.2
_symmetry_space_group_name_H-M    P1
_symmetry_Int_Tables_number       1
_space_group_crystal_system       triclinic
_cell_length_a                    18.913277
_cell_length_b                    11.023685
_cell_length_c                    18.682741
_cell_angle_alpha                 90.313453
_cell_angle_beta                  90.812131
_cell_angle_gamma                 89.140454
_cell_volume                      3894.35612309

loop_
_atom_site_label
_atom_site_type_symbol
_atom_type_description
_atom_site_fract_x
_atom_site_fract_y
_atom_site_fract_z
_atom_type_partial_charge
C1    C     C_R   0.271469 0.043851 0.852934 0.537067
C2    C     C_R   0.725540 0.037180 0.144028 0.546856
C3    C     C_R   0.771460 0.543867 0.853012 0.537875
C4    C     C_R   0.212381 0.503843 0.138408 0.545145
C5    C     C_3   0.526791 0.758186 0.967007 -0.125090
C6    C     C_3   0.480987 0.716383 0.029472 -0.139569
C7    C     C_3   0.026852 0.258932 0.966304 -0.125934
C8    C     C_3   0.982064 0.215816 0.028932 -0.140492
C9    C     C_R   0.225308 0.531411 0.063680 0.009585
C10   C     C_R   0.745322 0.601965 0.918266 0.014900
C11   C     C_R   0.735227 0.056946 0.067812 0.008830
C12   C     C_R   0.245750 0.101438 0.918348 0.016684
C13   C     C_R   0.282880 0.481928 0.027399 0.012343
C14   C     C_R   0.687913 0.557542 0.956312 0.002452
C15   C     C_R   0.788259 0.995628 0.030647 0.014325
C16   C     C_R   0.187576 0.058723 0.955942 0.001535
C17   C     C_R   0.290559 0.497378 0.954307 0.014827
C18   C     C_R   0.678271 0.588438 0.027885 0.017368
C19   C     C_R   0.793082 0.003561 0.956873 0.014897
C20   C     C_R   0.178060 0.089194 0.027603 0.014668
C21   C     C_R   0.179229 0.606201 0.950466 -0.167141
C22   C     C_R   0.779995 0.715322 0.023933 -0.170985
C23   C     C_R   0.682432 0.113550 0.953461 -0.171521
C24   C     C_R   0.282571 0.209671 0.024878 -0.174283
C25   C     C_R   0.171909 0.590133 0.023507 -0.179384
C26   C     C_R   0.786828 0.691182 0.951291 -0.157841
C27   C     C_R   0.679290 0.109092 0.027518 -0.176467
C28   C     C_R   0.288750 0.187639 0.952122 -0.155557
C29   C     C_3   0.360041 0.495880 0.041716 -0.279165
C30   C     C_3   0.665091 0.430312 0.967559 -0.270383
C31   C     C_3   0.865956 0.998789 0.041775 -0.289070
C32   C     C_3   0.162769 0.932372 0.966414 -0.268895
C33   C     C_3   0.369144 0.500937 0.960941 -0.278701
C34   C     C_3   0.653957 0.463882 0.045508 -0.266146
C35   C     C_3   0.872013 0.000597 0.960408 -0.276027
C36   C     C_3   0.151885 0.965439 0.044479 -0.262811
C37   C     C_R   0.242282 0.570948 0.916277 0.019452
C38   C     C_R   0.727807 0.660430 0.064144 0.000947
C39   C     C_R   0.743996 0.074571 0.918056 0.017895
C40   C     C_R   0.228752 0.158074 0.064376 -0.001876
C41   C     C_R   0.496623 0.838507 0.421098 0.007438
C42   C     C_R   0.482138 0.827035 0.570023 0.014223
C43   C     C_R   0.013299 0.331836 0.428546 0.013495
C44   C     C_R   0.002242 0.322871 0.577670 0.010240
C45   C     C_R   0.439934 0.818631 0.862371 0.557418
C46   C     C_R   0.530229 0.821684 0.144641 0.543238
C47   C     C_R   0.939641 0.318563 0.862267 0.556888
C48   C     C_R   0.030530 0.321576 0.144391 0.538061
C49   C     C_R   0.462085 0.742732 0.452252 0.015634
C50   C     C_R   0.452794 0.738437 0.524725 0.034523
C51   C     C_R   0.003471 0.222940 0.463260 0.038474
C52   C     C_R   0.999627 0.216583 0.535999 0.033215
C53   C     C_R   0.508517 0.932083 0.538818 -0.179780
C54   C     C_R   0.513396 0.938997 0.464339 -0.172717
C55   C     C_R   0.022733 0.430699 0.545096 -0.161531
C56   C     C_R   0.027190 0.435346 0.470289 -0.165038
C57   C     C_3   0.468183 0.608373 0.444015 -0.129944
C58   C     C_3   0.454136 0.601688 0.524242 -0.113702
C59   C     C_3   0.950052 0.127495 0.449226 -0.132689
C60   C     C_3   0.945858 0.116857 0.530358 -0.103187
C61   C     C_R   0.215345 0.510154 0.437740 0.008635
C62   C     C_R   0.764370 0.558275 0.567977 0.025206
C63   C     C_R   0.713038 0.003847 0.438426 0.005175
C64   C     C_R   0.250286 0.097855 0.579368 0.024663
C65   C     C_R   0.167962 0.585954 0.473066 0.016382
C66   C     C_R   0.824808 0.568646 0.526496 0.042680
C67   C     C_R   0.664740 0.076905 0.474604 0.015819
C68   C     C_R   0.300673 0.162061 0.541538 0.025694
C69   C     C_R   0.177728 0.613139 0.543616 0.031100
C70   C     C_R   0.821117 0.570304 0.453338 0.012122
C71   C     C_R   0.674764 0.103934 0.545524 0.028993
C72   C     C_R   0.298969 0.159760 0.469190 0.020202
C73   C     C_R   0.277452 0.474837 0.550869 -0.172093
C74   C     C_R   0.696293 0.530559 0.459342 -0.168506
C75   C     C_R   0.778302 0.974401 0.550557 -0.172230
C76   C     C_R   0.186730 0.061420 0.468310 -0.161500
C77   C     C_R   0.267102 0.447191 0.478182 -0.169728
C78   C     C_R   0.701305 0.527077 0.533624 -0.185533
C79   C     C_R   0.765682 0.942205 0.478712 -0.168478
C80   C     C_R   0.189418 0.057560 0.543080 -0.167725
C81   C     C_3   0.141705 0.711050 0.454892 -0.272399
C82   C     C_3   0.884240 0.655528 0.530263 -0.266562
C83   C     C_3   0.636798 0.201322 0.457170 -0.272240
C84   C     C_3   0.380405 0.158293 0.541195 -0.265373
C85   C     C_3   0.151870 0.741317 0.532985 -0.268885
C86   C     C_3   0.883708 0.651982 0.449123 -0.276618
C87   C     C_3   0.646050 0.230092 0.535416 -0.271781
C88   C     C_3   0.376698 0.155479 0.460342 -0.284043
C89   C     C_R   0.259699 0.633601 0.850406 0.535528
C90   C     C_R   0.725470 0.684416 0.141189 0.561455
C91   C     C_R   0.759867 0.133709 0.850580 0.536921
C92   C     C_R   0.225752 0.183482 0.141116 0.547398
C93   C     C_R   0.237086 0.568512 0.581358 0.019589
C94   C     C_R   0.754779 0.568408 0.419651 0.019270
C95   C     C_R   0.736466 0.065344 0.581842 0.015582
C96   C     C_R   0.245233 0.105118 0.430710 0.018230
C97   C     C_R   0.270955 0.047212 0.647033 0.547750
C98   C     C_R   0.707665 0.994134 0.360974 0.573163
C99   C     C_R   0.773654 0.540366 0.643578 0.548419
C100  C     C_R   0.208282 0.495715 0.361160 0.574533
C101  C     C_R   0.467185 0.822093 0.645459 0.556067
C102  C     C_R   0.529349 0.824680 0.352207 0.545309
C103  C     C_R   0.970588 0.321852 0.647621 0.552659
C104  C     C_R   0.031885 0.324217 0.353986 0.538279
C105  C     C_R   0.258338 0.633395 0.645295 0.548181
C106  C     C_R   0.741272 0.633244 0.354245 0.554409
C107  C     C_R   0.758323 0.133285 0.645055 0.541845
C108  C     C_R   0.239561 0.138253 0.356855 0.549248
C109  C     C_3   0.439807 0.901631 0.042491 0.000923
C110  C     C_3   0.485089 0.943195 0.979751 0.033073
C111  C     C_3   0.939476 0.400121 0.042487 0.001577
C112  C     C_3   0.984260 0.442972 0.979653 0.034631
C113  C     C_3   0.416445 0.789235 0.999464 -0.156307
C114  C     C_3   0.549379 0.871453 0.010097 -0.112623
C115  C     C_3   0.916665 0.287419 0.999389 -0.155714
C116  C     C_3   0.049040 0.371856 0.009542 -0.115873
C117  C     C_3   0.462766 0.829964 0.937259 0.051080
C118  C     C_3   0.502831 0.829425 0.071890 0.059563
C119  C     C_3   0.962289 0.329705 0.937109 0.052250
C120  C     C_3   0.003168 0.328957 0.071502 0.057861
Cr1   Cr    Cr6+3 0.229640 0.835880 0.747370 0.999952
Cr2   Cr    Cr6+3 0.770360 0.835880 0.252630 0.993004
Cr3   Cr    Cr6+3 0.729640 0.335880 0.747370 0.999986
Cr4   Cr    Cr6+3 0.270360 0.335880 0.252630 0.990115
Cr5   Cr    Cr6+3 0.387390 0.989720 0.750850 0.998244
Cr6   Cr    Cr6+3 0.612610 0.989720 0.249150 0.996800
Cr7   Cr    Cr6+3 0.887390 0.489720 0.750850 1.000937
Cr8   Cr    Cr6+3 0.112610 0.489720 0.249150 0.994202
Cr9   Cr    Cr6+3 0.385770 0.677220 0.749340 0.997274
Cr10  Cr    Cr6+3 0.614230 0.677220 0.250660 0.993927
Cr11  Cr    Cr6+3 0.885770 0.177220 0.749340 0.994087
Cr12  Cr    Cr6+3 0.114230 0.177220 0.250660 0.998019
H1    H     H_    0.360306 0.761920 0.994630 0.102439
H2    H     H_    0.604602 0.902350 0.015996 0.125115
H3    H     H_    0.860758 0.258830 0.994538 0.103782
H4    H     H_    0.105036 0.396354 0.014827 0.115308
H5    H     H_    0.525735 0.007648 0.571671 0.129289
H6    H     H_    0.534978 0.018785 0.440895 0.142619
H7    H     H_    0.031153 0.511819 0.576722 0.122756
H8    H     H_    0.039923 0.519436 0.444908 0.131352
H9    H     H_    0.973040 0.046863 0.421416 0.153859
H10   H     H_    0.893586 0.143064 0.552551 0.174744
H11   H     H_    0.521995 0.576366 0.429063 0.167527
H12   H     H_    0.402054 0.564713 0.537054 0.155620
H13   H     H_    0.320859 0.432825 0.580409 0.119856
H14   H     H_    0.644975 0.517194 0.434458 0.133300
H15   H     H_    0.823701 0.937636 0.579111 0.120659
H16   H     H_    0.140157 0.028518 0.440421 0.137253
H17   H     H_    0.303663 0.386825 0.452013 0.144778
H18   H     H_    0.656505 0.500798 0.564429 0.121452
H19   H     H_    0.801328 0.880345 0.452827 0.135170
H20   H     H_    0.147670 0.013518 0.571613 0.124947
H21   H     H_    0.085309 0.713927 0.437463 0.126610
H22   H     H_    0.932433 0.616573 0.555230 0.148674
H23   H     H_    0.580578 0.203921 0.439386 0.126211
H24   H     H_    0.402708 0.073431 0.563705 0.181621
H25   H     H_    0.194187 0.808562 0.542306 0.163597
H26   H     H_    0.874695 0.741679 0.424733 0.153662
H27   H     H_    0.687296 0.298185 0.545423 0.167983
H28   H     H_    0.397516 0.238585 0.435353 0.134310
H29   H     H_    0.101386 0.760380 0.560992 0.130284
H30   H     H_    0.929850 0.603492 0.426322 0.132791
H31   H     H_    0.595320 0.245587 0.563646 0.130224
H32   H     H_    0.394657 0.068386 0.436182 0.148145
H33   H     H_    0.562262 0.699271 0.934708 0.141662
H34   H     H_    0.483914 0.622755 0.050681 0.128191
H35   H     H_    0.062545 0.200981 0.933659 0.141483
H36   H     H_    0.988524 0.122189 0.049433 0.128517
H37   H     H_    0.138297 0.658048 0.922845 0.137585
H38   H     H_    0.819887 0.767602 0.050309 0.143752
H39   H     H_    0.640214 0.161776 0.925524 0.136763
H40   H     H_    0.323845 0.258483 0.051635 0.141815
H41   H     H_    0.124095 0.623912 0.048393 0.142880
H42   H     H_    0.830433 0.731385 0.923667 0.134051
H43   H     H_    0.633058 0.148255 0.052842 0.144986
H44   H     H_    0.332992 0.226771 0.924967 0.134591
H45   H     H_    0.889741 0.916664 0.066779 0.128213
H46   H     H_    0.205577 0.863568 0.958581 0.155662
H47   H     H_    0.387006 0.416744 0.066880 0.126307
H48   H     H_    0.709046 0.363687 0.959859 0.154848
H49   H     H_    0.369457 0.582363 0.070544 0.147276
H50   H     H_    0.615107 0.409757 0.938245 0.134565
H51   H     H_    0.878883 0.083191 0.070861 0.140418
H52   H     H_    0.112535 0.914571 0.936867 0.134158
H53   H     H_    0.391977 0.584583 0.940064 0.167508
H54   H     H_    0.597434 0.463595 0.061026 0.136462
H55   H     H_    0.896408 0.081693 0.937817 0.170715
H56   H     H_    0.095318 0.967250 0.059847 0.136040
H57   H     H_    0.394372 0.417330 0.938941 0.123138
H58   H     H_    0.690717 0.415037 0.082794 0.148090
H59   H     H_    0.894177 0.914470 0.938519 0.122255
H60   H     H_    0.187820 0.914605 0.081649 0.153642
O1    O     O_R   0.214300 0.709080 0.827500 -0.531632
O2    O     O_R   0.785700 0.709080 0.172500 -0.528933
O3    O     O_R   0.714300 0.209080 0.827500 -0.530018
O4    O     O_R   0.285700 0.209080 0.172500 -0.530171
O5    O     O_R   0.445900 0.919370 0.676500 -0.506386
O6    O     O_R   0.554100 0.919370 0.323500 -0.524070
O7    O     O_R   0.945900 0.419370 0.676500 -0.500543
O8    O     O_R   0.054100 0.419370 0.323500 -0.523741
O9    O     O_R   0.456660 0.717710 0.669820 -0.517811
O10   O     O_R   0.543340 0.717710 0.330180 -0.527285
O11   O     O_R   0.956660 0.217710 0.669820 -0.522911
O12   O     O_R   0.043340 0.217710 0.330180 -0.517785
O13   O     O_R   0.320590 0.625770 0.672930 -0.508777
O14   O     O_R   0.679410 0.625770 0.327070 -0.507421
O15   O     O_R   0.820590 0.125770 0.672930 -0.513550
O16   O     O_R   0.179410 0.125770 0.327070 -0.503631
O17   O     O_3   0.334270 0.834280 0.749190 -0.263975
O18   O     O_3   0.665730 0.834280 0.250810 -0.288850
O19   O     O_3   0.834270 0.334280 0.749190 -0.264994
O20   O     O_3   0.165730 0.334280 0.250810 -0.302646
O21   O     O_R   0.236190 0.958390 0.823150 -0.501108
O22   O     O_R   0.763810 0.958390 0.176850 -0.507037
O23   O     O_R   0.736190 0.458390 0.823150 -0.499414
O24   O     O_R   0.263810 0.458390 0.176850 -0.502089
O25   O     O_R   0.332090 0.075280 0.831290 -0.538720
O26   O     O_R   0.667910 0.075280 0.168710 -0.523718
O27   O     O_R   0.832090 0.575280 0.831290 -0.538598
O28   O     O_R   0.167910 0.575280 0.168710 -0.514236
O29   O     O_R   0.446280 0.918040 0.826620 -0.498639
O30   O     O_R   0.553720 0.918040 0.173380 -0.507489
O31   O     O_R   0.946280 0.418040 0.826620 -0.500426
O32   O     O_R   0.053720 0.418040 0.173380 -0.518705
O33   O     O_R   0.457080 0.716270 0.831760 -0.527179
O34   O     O_R   0.542920 0.716270 0.168240 -0.530743
O35   O     O_R   0.957080 0.216270 0.831760 -0.528483
O36   O     O_R   0.042920 0.216270 0.168240 -0.529605
O37   O     O_R   0.320980 0.624440 0.823040 -0.518679
O38   O     O_R   0.679020 0.624440 0.176960 -0.496938
O39   O     O_R   0.820980 0.124440 0.823040 -0.518062
O40   O     O_R   0.179020 0.124440 0.176960 -0.492979
O41   O     O_R   0.213880 0.710510 0.665560 -0.521568
O42   O     O_R   0.786120 0.710510 0.334440 -0.534640
O43   O     O_R   0.713880 0.210510 0.665560 -0.521447
O44   O     O_R   0.286120 0.210510 0.334440 -0.526671
O45   O     O_R   0.235800 0.959720 0.673040 -0.508905
O46   O     O_R   0.764200 0.959720 0.326960 -0.513358
O47   O     O_R   0.735800 0.459720 0.673040 -0.509513
O48   O     O_R   0.264200 0.459720 0.326960 -0.510081
O49   O     O_R   0.331670 0.076720 0.669350 -0.526587
O50   O     O_R   0.668330 0.076720 0.330650 -0.520618
O51   O     O_R   0.831670 0.576720 0.669350 -0.518378
O52   O     O_R   0.168330 0.576720 0.330650 -0.515571
C121  C     C_3   0.409915 0.557928 0.395682 -0.390870
H61   H     H_    0.357703 0.598321 0.409400 0.161556
H62   H     H_    0.421045 0.579674 0.339044 0.165011
H63   H     H_    0.408746 0.457904 0.401100 0.122683
C122  C     C_3   0.514583 0.542357 0.567124 -0.406156
H64   H     H_    0.558862 0.606387 0.573658 0.151733
H65   H     H_    0.495983 0.516156 0.620828 0.160675
H66   H     H_    0.532955 0.458192 0.539741 0.105661
C123  C     C_3   0.882340 0.177529 0.413386 -0.409436
H67   H     H_    0.860639 0.257333 0.442931 0.137500
H68   H     H_    0.893301 0.204606 0.357549 0.154996
H69   H     H_    0.842290 0.106075 0.411387 0.164842
C124  C     C_3   0.974862 0.995117 0.558091 -0.411256
H70   H     H_    0.029210 0.976932 0.538687 0.122561
H71   H     H_    0.975575 0.994744 0.617471 0.163452
H72   H     H_    0.940827 0.920778 0.538407 0.111474
H73   H     H_    0.178293 0.761155 0.419963 0.160508
H74   H     H_    0.867454 0.744395 0.552762 0.126295
H75   H     H_    0.673055 0.253800 0.423108 0.161550
H76   H     H_    0.403834 0.242913 0.563070 0.123592
C125  C     C_3   0.389894 0.977847 0.087578 -0.382239
H77   H     H_    0.341037 0.995396 0.055977 0.146660
H78   H     H_    0.375962 0.927389 0.136520 0.141078
H79   H     H_    0.415121 0.064621 0.102901 0.147104
C126  C     C_3   0.488373 0.072517 0.952435 -0.383198
H80   H     H_    0.507577 0.133314 0.995813 0.105261
H81   H     H_    0.524728 0.076350 0.906502 0.143865
H82   H     H_    0.434995 0.103023 0.934835 0.153272
C127  C     C_3   0.889350 0.476177 0.087507 -0.384645
H83   H     H_    0.842051 0.499210 0.054624 0.145261
H84   H     H_    0.872677 0.423377 0.134606 0.137713
H85   H     H_    0.915756 0.560261 0.105826 0.149217
C128  C     C_3   0.985740 0.572677 0.952641 -0.382881
H86   H     H_    0.003951 0.634068 0.996132 0.103876
H87   H     H_    0.021908 0.578418 0.906662 0.143819
H88   H     H_    0.931914 0.601137 0.935232 0.154908

loop_
_geom_bond_atom_site_label_1
_geom_bond_atom_site_label_2
_ccdc_geom_bond_type
C73   C93   A    
Cr8   O32   S    
C108  O44   A    
C75   C95   A    
C48   C120  S    
C53   H5    S    
C104  O12   A    
C16   C20   A    
C63   C98   S    
C69   C93   A    
C5    C6    S    
C20   C40   A    
C71   C95   A    
C92   O40   A    
C3    O23   A    
C22   C38   A    
C29   C33   S    
C127  H85   S    
C55   H7    S    
C33   H57   S    
C34   H54   S    
C9    C13   A    
C8    H36   S    
C11   C15   A    
C12   C16   A    
C107  O15   A    
Cr10  O10   S    
C96   C108  S    
C59   C60   S    
C113  H1    S    
C121  H61   S    
C30   H50   S    
C32   H46   S    
Cr2   O2    S    
C41   C49   A    
C109  C118  S    
C9    C25   A    
C51   C52   A    
C7    C119  S    
C30   C34   S    
C36   H56   S    
Cr1   O21   S    
C66   C82   S    
C91   O3    A    
C11   C27   A    
C68   C72   A    
C89   O1    A    
C45   O33   A    
C22   H38   S    
C98   O46   A    
C64   C97   S    
Cr2   O42   S    
C2    O22   A    
C126  H81   S    
Cr8   O52   S    
Cr9   O17   S    
C47   O31   A    
C84   C88   S    
C92   O4    A    
C106  O14   A    
C97   O45   A    
C38   C90   S    
C46   O30   A    
C18   C38   A    
C101  O9    A    
C76   C96   A    
C84   H24   S    
C44   C55   A    
C66   C70   A    
C56   H8    S    
C87   H27   S    
C88   H28   S    
C98   O50   A    
C62   C99   S    
C72   C96   A    
C61   C65   A    
C23   H39   S    
C76   H16   S    
C29   H47   S    
C121  H63   S    
C91   O39   A    
C2    O26   A    
C26   H42   S    
C84   H76   S    
C19   C35   S    
C75   C79   A    
Cr6   O26   S    
C81   H73   S    
C4    O24   A    
C59   C123  S    
C83   H75   S    
C111  C112  S    
C108  O16   A    
Cr11  O15   S    
C7    C8    S    
C53   C54   A    
C122  H64   S    
C64   C68   A    
C42   C53   A    
C123  H67   S    
C48   O36   A    
C101  O5    A    
C83   H23   S    
C81   H21   S    
C41   C102  S    
C124  H70   S    
C43   C104  S    
C52   C60   S    
C61   C77   A    
Cr6   O50   S    
Cr2   O18   S    
Cr8   O28   S    
C100  O52   A    
C107  O43   A    
Cr9   O9    S    
Cr6   O6    S    
C128  H86   S    
C104  O8    A    
C1    C12   S    
C2    C11   S    
C44   C103  S    
Cr3   O47   S    
C62   C66   A    
C34   H58   S    
Cr7   O51   S    
C109  C125  S    
C10   C14   A    
Cr5   O17   S    
C103  O7    A    
C48   O32   A    
C88   H32   S    
C116  C120  S    
C73   H13   S    
Cr4   O44   S    
C7    C116  S    
Cr10  O14   S    
C25   H41   S    
C86   H26   S    
Cr4   O4    S    
C114  H2    S    
C30   H48   S    
C125  H78   S    
Cr10  O34   S    
C42   C50   A    
C113  C117  S    
C35   H55   S    
C115  C119  S    
Cr11  O19   S    
C61   C100  S    
C42   C101  S    
C112  C116  S    
C69   C85   S    
Cr11  O39   S    
C7    H35   S    
C122  H66   S    
C35   H59   S    
C106  O42   A    
C36   H60   S    
C62   C78   A    
C76   C80   A    
Cr7   O7    S    
C123  H69   S    
C1    O25   A    
C15   C31   S    
Cr5   O29   S    
C16   C32   S    
C13   C17   A    
C124  H72   S    
C45   O29   A    
C57   C58   S    
Cr2   O46   S    
C115  H3    S    
C21   H37   S    
C127  H84   S    
C100  O48   A    
C24   H40   S    
C58   H12   S    
C47   O35   A    
C59   H9    S    
C49   C50   A    
C128  H88   S    
Cr9   O33   S    
C90   O38   A    
C58   C122  S    
C4    C9    S    
C81   C85   S    
C83   C87   S    
C55   C56   A    
C6    H34   S    
Cr3   O23   S    
C85   H29   S    
C74   C94   A    
Cr7   O27   S    
C15   C19   A    
C78   H18   S    
C85   H25   S    
C12   C28   A    
C13   C29   S    
C70   C94   A    
Cr12  O36   S    
Cr4   O48   S    
Cr10  O38   S    
C45   C117  S    
C46   C118  S    
C39   C91   S    
C73   C77   A    
C21   C25   A    
C60   H10   S    
C4    O28   A    
C82   H74   S    
Cr11  O11   S    
C99   O47   A    
C126  H80   S    
C64   C80   A    
Cr3   O3    S    
C17   C33   S    
C110  C117  S    
Cr1   O1    S    
Cr12  O12   S    
C68   C84   S    
C24   C28   A    
C77   H17   S    
C28   H44   S    
Cr4   O20   S    
C75   H15   S    
C82   C86   S    
Cr2   O22   S    
C50   C58   S    
C60   C124  S    
Cr8   O8    S    
Cr9   O13   S    
C65   C81   S    
C90   O2    A    
C95   C107  S    
C71   C87   S    
Cr1   O41   S    
C121  H62   S    
C1    O21   A    
C31   C35   S    
C27   H43   S    
C32   C36   S    
C74   H14   S    
C112  C119  S    
C105  O13   A    
C116  H4    S    
C37   C89   S    
C102  O10   A    
C109  C110  S    
Cr8   O20   S    
C43   C51   A    
C65   C69   A    
C67   C71   A    
C99   O51   A    
C97   O49   A    
C20   C36   S    
Cr11  O35   S    
C21   C37   A    
C3    O27   A    
C22   C26   A    
C126  H82   S    
C33   H53   S    
Cr5   O25   S    
C87   H31   S    
C5    C114  S    
C14   C18   A    
Cr12  O20   S    
C49   C57   S    
C63   C79   A    
C29   H49   S    
C31   H45   S    
C102  O6    A    
Cr1   O45   S    
Cr9   O37   S    
C112  C128  S    
C8    C115  S    
C93   C105  S    
Cr3   O19   S    
Cr5   O49   S    
C86   H30   S    
C23   C27   A    
C125  H77   S    
C74   C78   A    
Cr7   O31   S    
C10   C26   A    
C47   C119  S    
Cr5   O5    S    
C14   C30   S    
Cr12  O40   S    
C72   C88   S    
C63   C67   A    
C122  H65   S    
C57   H11   S    
Cr1   O17   S    
C57   C121  S    
Cr6   O18   S    
C123  H68   S    
C5    C117  S    
C111  C120  S    
C124  H71   S    
C6    C113  S    
C127  H83   S    
C46   O34   A    
C17   C37   A    
C67   C83   S    
C40   C92   S    
C18   C34   S    
C114  C118  S    
C19   C39   A    
Cr7   O19   S    
Cr12  O16   S    
C5    H33   S    
C128  H87   S    
Cr3   O43   S    
Cr10  O18   S    
C51   C59   S    
C70   C86   S    
C8    C120  S    
C79   H19   S    
Cr4   O24   S    
C80   H20   S    
C110  C114  S    
C94   C106  S    
C31   H51   S    
C105  O41   A    
C32   H52   S    
C110  C126  S    
Cr6   O30   S    
C109  C113  S    
C3    C10   S    
C44   C52   A    
C54   H6    S    
C23   C39   A    
C24   C40   A    
C111  C127  S    
C125  H79   S    
C103  O11   A    
C41   C54   A    
C82   H22   S    
C43   C56   A    
C111  C115  S    
C89   O37   A    
C6    C118  S    
