data_mof_unit_56780.cif
_audit_creation_date              2012-12-11T14:08:36-0500
_audit_creation_method            fapswitch 2.2
_symmetry_space_group_name_H-M    P1
_symmetry_Int_Tables_number       1
_space_group_crystal_system       triclinic
_cell_length_a                    28.186395
_cell_length_b                    7.196692
_cell_length_c                    17.196723
_cell_angle_alpha                 90.028009
_cell_angle_beta                  101.891632
_cell_angle_gamma                 89.972056
_cell_volume                      3413.4711737

loop_
_atom_site_label
_atom_site_type_symbol
_atom_type_description
_atom_site_fract_x
_atom_site_fract_y
_atom_site_fract_z
_atom_type_partial_charge
O1    O     O_R   0.000700 0.436510 0.857920 -0.533576
O2    O     O_R   0.999300 0.563490 0.142080 -0.533589
O3    O     O_R   0.999300 0.936510 0.642080 -0.533593
O4    O     O_R   0.000700 0.063490 0.357920 -0.533590
O5    O     O_R   0.930080 0.766380 0.721890 -0.542928
O6    O     O_R   0.069920 0.233620 0.278110 -0.542947
O7    O     O_R   0.069920 0.266380 0.778110 -0.543021
O8    O     O_R   0.930080 0.733620 0.221890 -0.542984
C1    C     C_R   0.910575 0.597650 0.709049 0.719046
C2    C     C_R   0.089429 0.402373 0.290841 0.718977
C3    C     C_R   0.089430 0.097609 0.791008 0.718335
C4    C     C_R   0.910565 0.902407 0.209086 0.718461
O9    O     O_R   0.996180 0.766230 0.862310 -0.543171
O10   O     O_R   0.003820 0.233770 0.137690 -0.543183
O11   O     O_R   0.003820 0.266230 0.637690 -0.543188
O12   O     O_R   0.996180 0.733770 0.362310 -0.543175
O13   O     O_R   0.065870 0.936460 0.783500 -0.538701
O14   O     O_R   0.934130 0.063540 0.216500 -0.538678
O15   O     O_R   0.934130 0.436460 0.716500 -0.538722
O16   O     O_R   0.065870 0.563540 0.283500 -0.538725
C5    C     C_R   0.998485 0.596466 0.894486 0.760128
C6    C     C_R   0.001516 0.403534 0.105515 0.760053
C7    C     C_R   0.001515 0.096425 0.605527 0.760379
C8    C     C_R   0.998484 0.903575 0.394473 0.760366
O17   O     O_3   0.022790 0.603020 0.723980 -0.379229
O18   O     O_3   0.977210 0.396980 0.276020 -0.379196
O19   O     O_3   0.977210 0.103020 0.776020 -0.379129
O20   O     O_3   0.022790 0.896980 0.223980 -0.379193
V1    V     V_3+5 0.995770 0.877900 0.754830 1.406044
V2    V     V_3+5 0.004230 0.122100 0.245170 1.405958
V3    V     V_3+5 0.004230 0.377900 0.745170 1.405709
V4    V     V_3+5 0.995770 0.622100 0.254830 1.405759
C9    C     C_2   0.001705 0.082606 0.519582 -0.332468
C10   C     C_2   0.998293 0.917394 0.480417 -0.332426
C11   C     C_2   0.998297 0.582635 0.980444 -0.332304
C12   C     C_2   0.001705 0.417365 0.019557 -0.332275
H1    H     H_    0.004496 0.211392 0.487924 0.153629
H2    H     H_    0.995503 0.788609 0.512076 0.153623
H3    H     H_    0.995509 0.711431 0.012154 0.153624
H4    H     H_    0.004493 0.288569 0.987847 0.153621
C13   C     C_R   0.684263 0.006530 0.030549 0.637009
C14   C     C_R   0.315666 0.996765 0.971099 0.636095
C15   C     C_R   0.315661 0.525461 0.465732 0.641840
C16   C     C_R   0.684434 0.480117 0.531844 0.641363
O21   O     O_2   0.714472 0.055462 0.982537 -0.517270
O22   O     O_2   0.285462 0.950108 0.019448 -0.517733
O23   O     O_2   0.285368 0.590358 0.510846 -0.515904
O24   O     O_2   0.714730 0.418660 0.486056 -0.516196
N1    N     N_R   0.702965 0.942968 0.105638 -0.538367
N2    N     N_R   0.296955 0.057689 0.895599 -0.538158
N3    N     N_R   0.297059 0.444626 0.393798 -0.539219
N4    N     N_R   0.703036 0.556817 0.604634 -0.539194
C17   C     C_R   0.673111 0.891185 0.155331 0.564279
C18   C     C_R   0.326792 0.107144 0.845542 0.564782
C19   C     C_R   0.327068 0.375930 0.347358 0.563978
C20   C     C_R   0.673048 0.621901 0.651838 0.562009
C21   C     C_R   0.781700 0.094461 0.158326 0.496667
C22   C     C_R   0.218315 0.905848 0.842627 0.496301
C23   C     C_R   0.218140 0.594949 0.340522 0.499605
C24   C     C_R   0.781832 0.405595 0.657806 0.498792
C25   C     C_R   0.832466 0.084043 0.182015 -0.275829
C26   C     C_R   0.167560 0.916129 0.818579 -0.276291
C27   C     C_R   0.167396 0.584103 0.317088 -0.276552
C28   C     C_R   0.832550 0.416111 0.681766 -0.275708
C29   C     C_R   0.829143 0.751127 0.160811 -0.191286
C30   C     C_R   0.170764 0.249021 0.839855 -0.191524
C31   C     C_R   0.170943 0.251530 0.339047 -0.192436
C32   C     C_R   0.829171 0.748954 0.660504 -0.191705
C33   C     C_R   0.778773 0.761958 0.135051 -0.170691
C34   C     C_R   0.221106 0.238315 0.865986 -0.171475
C35   C     C_R   0.221322 0.262768 0.364600 -0.166519
C36   C     C_R   0.778822 0.738057 0.634513 -0.166603
C37   C     C_R   0.754834 0.933056 0.133098 0.299883
C38   C     C_R   0.245094 0.067315 0.868061 0.300986
C39   C     C_R   0.245171 0.434036 0.366207 0.293563
C40   C     C_R   0.754907 0.566865 0.632350 0.294370
C41   C     C_R   0.602273 0.970101 0.053371 -0.042383
C42   C     C_R   0.397645 0.031042 0.947953 -0.042290
C43   C     C_R   0.397758 0.471515 0.446262 -0.043837
C44   C     C_R   0.602347 0.530653 0.552026 -0.043451
C45   C     C_R   0.633712 0.020946 0.003071 -0.046850
C46   C     C_R   0.366223 0.982615 0.998629 -0.046302
C47   C     C_R   0.366189 0.540838 0.493077 -0.049478
C48   C     C_R   0.633899 0.465346 0.504360 -0.048959
C49   C     C_R   0.614156 0.085356 0.926607 -0.128152
C50   C     C_R   0.385810 0.921153 0.075551 -0.127930
C51   C     C_R   0.385592 0.624377 0.565986 -0.128552
C52   C     C_R   0.614466 0.386975 0.430362 -0.128304
C53   C     C_R   0.622345 0.904164 0.130233 -0.027154
C54   C     C_R   0.377554 0.094384 0.870680 -0.027010
C55   C     C_R   0.377829 0.387574 0.372784 -0.027304
C56   C     C_R   0.622293 0.610355 0.626402 -0.026935
C57   C     C_R   0.856765 0.912331 0.184028 -0.111153
C58   C     C_R   0.143213 0.087776 0.816388 -0.110811
C59   C     C_R   0.143216 0.412411 0.315647 -0.112084
C60   C     C_R   0.856803 0.587797 0.683831 -0.112382
H5    H     H_    0.846457 0.616673 0.161203 0.155933
H6    H     H_    0.153410 0.383417 0.839368 0.155740
H7    H     H_    0.153704 0.117068 0.338980 0.156537
H8    H     H_    0.846462 0.883412 0.660993 0.156471
H9    H     H_    0.758258 0.637316 0.115722 0.184671
H10   H     H_    0.241567 0.363001 0.885445 0.184331
H11   H     H_    0.241906 0.138297 0.384080 0.187467
H12   H     H_    0.758309 0.862740 0.615157 0.186924
H13   H     H_    0.637477 0.125201 0.886603 0.168452
H14   H     H_    0.362514 0.884042 0.115978 0.168438
H15   H     H_    0.362162 0.679449 0.603119 0.169135
H16   H     H_    0.637872 0.336656 0.392227 0.168974
C61   C     C_R   0.480091 0.065734 0.922317 0.036004
C62   C     C_R   0.519819 0.934543 0.078869 0.035791
C63   C     C_R   0.519768 0.584007 0.574281 0.034870
C64   C     C_R   0.480345 0.416551 0.424356 0.034588
C65   C     C_R   0.468530 0.951377 0.052679 0.034956
C66   C     C_R   0.531401 0.051076 0.948847 0.034731
C67   C     C_R   0.531625 0.433639 0.450400 0.033600
C68   C     C_R   0.468468 0.570736 0.547428 0.033501
C69   C     C_R   0.448983 0.016022 0.974438 0.066796
C70   C     C_R   0.550937 0.985278 0.026909 0.066783
C71   C     C_R   0.551020 0.516083 0.525443 0.066176
C72   C     C_R   0.449084 0.486293 0.472805 0.066044
C73   C     C_R   0.458469 0.128781 0.845029 -0.182594
C74   C     C_R   0.541403 0.867842 0.155578 -0.182783
C75   C     C_R   0.541238 0.662945 0.648778 -0.181677
C76   C     C_R   0.458913 0.331178 0.351231 -0.181262
C77   C     C_R   0.408415 0.142722 0.820027 -0.139806
C78   C     C_R   0.591456 0.853188 0.180471 -0.139694
C79   C     C_R   0.591293 0.675666 0.674033 -0.138223
C80   C     C_R   0.408857 0.317556 0.326156 -0.137399
O25   O     O_2   0.307431 0.167224 0.771478 -0.537816
O26   O     O_2   0.692455 0.828685 0.229014 -0.537552
O27   O     O_2   0.692239 0.695932 0.723514 -0.538194
O28   O     O_2   0.307900 0.298314 0.276411 -0.538112
C81   C     C_R   0.564241 0.100058 0.899940 -0.179406
C82   C     C_R   0.435727 0.906067 0.102156 -0.179662
C83   C     C_R   0.435493 0.639378 0.592641 -0.177572
C84   C     C_R   0.564561 0.371491 0.403816 -0.178474
H17   H     H_    0.147430 0.789283 0.801538 0.147182
H18   H     H_    0.852637 0.210859 0.198929 0.147332
H19   H     H_    0.852704 0.289345 0.698968 0.148013
H20   H     H_    0.147151 0.710636 0.299817 0.147824
H21   H     H_    0.393973 0.191673 0.760250 0.167115
H22   H     H_    0.605872 0.801455 0.239808 0.167217
H23   H     H_    0.605620 0.737230 0.731603 0.166297
H24   H     H_    0.394554 0.251209 0.269603 0.165758
H25   H     H_    0.479049 0.168710 0.801573 0.120598
H26   H     H_    0.520776 0.824451 0.198470 0.121032
H27   H     H_    0.520534 0.716051 0.689917 0.120648
H28   H     H_    0.479666 0.271738 0.311473 0.120659
H29   H     H_    0.552827 0.151291 0.840272 0.121083
H30   H     H_    0.447192 0.858523 0.162387 0.120643
H31   H     H_    0.446794 0.707024 0.649205 0.121945
H32   H     H_    0.553204 0.310500 0.345854 0.122110
O29   O     O_3   0.241785 0.736503 0.846168 -0.559067
C85   C     C_3   0.244564 0.682620 0.768390 -0.236217
H33   H     H_    0.262515 0.790973 0.738270 0.170812
H34   H     H_    0.208065 0.649122 0.732404 0.139599
H35   H     H_    0.266946 0.554902 0.771875 0.199157
O30   O     O_3   0.758304 0.263923 0.154956 -0.558925
C86   C     C_3   0.755431 0.317104 0.232775 -0.235584
H36   H     H_    0.791924 0.349711 0.269003 0.139876
H37   H     H_    0.737276 0.208711 0.262543 0.170060
H38   H     H_    0.733196 0.445175 0.229441 0.200179
O31   O     O_3   0.758560 0.236080 0.654888 -0.557497
C87   C     C_3   0.754421 0.187220 0.732588 -0.233984
H39   H     H_    0.735373 0.296958 0.760187 0.164881
H40   H     H_    0.790567 0.157278 0.770623 0.140866
H41   H     H_    0.732439 0.058685 0.729526 0.206139
O32   O     O_3   0.241382 0.764443 0.342786 -0.556835
C88   C     C_3   0.244231 0.814431 0.264624 -0.232312
H42   H     H_    0.207725 0.846308 0.228249 0.139619
H43   H     H_    0.262356 0.704524 0.235521 0.163456
H44   H     H_    0.266474 0.942141 0.267120 0.208369

loop_
_geom_bond_atom_site_label_1
_geom_bond_atom_site_label_2
_ccdc_geom_bond_type
O17   V3    S    
C47   C51   A    
C21   O30   S    
N1    C17   A    
O1    C5    A    
O19   V1    S    
O13   V1    S    
C88   H42   S    
O3    C7    A    
C11   C12   D    
C14   C46   A    
C27   H20   S    
C44   C48   A    
O4    V2    S    
O15   V3    S    
C62   C70   A    
C61   C69   A    
C68   C83   A    
C42   C54   A    
O7    C3    A    
C76   H28   S    
C41   C53   A    
C32   C60   A    
C63   C71   A    
C87   H39   S    
N3    C39   S    
C18   C54   A    
N2    C38   S    
C52   H16   S    
C25   C57   A    
C25   H18   S    
C31   C35   A    
C67   C84   A    
C82   H30   S    
C27   C59   A    
O1    V3    S    
C24   O31   S    
C15   C47   A    
O2    V4    S    
C14   O22   S    
C21   C37   A    
O3    V1    S    
C34   C38   A    
C19   C55   A    
C73   C77   A    
C1    O15   A    
O31   C87   S    
C2    O16   A    
C7    C9    S    
O2    C6    A    
C86   H37   S    
C33   C37   A    
C63   C68   A    
O14   V2    S    
C85   H34   S    
C31   H7    S    
C76   C80   A    
C16   N4    A    
O11   C7    A    
C44   C71   A    
O12   C8    A    
C31   C59   A    
C88   H43   S    
C50   H14   S    
O10   V2    S    
C49   H13   S    
C13   N1    A    
C84   H32   S    
C50   C82   A    
O5    V1    S    
C53   C78   A    
O7    V3    S    
C55   C80   A    
C63   C75   A    
O8    V4    S    
C51   C83   A    
C12   H4    S    
C42   C69   A    
C81   H29   S    
C52   C84   A    
C85   H35   S    
C41   C70   A    
C77   H21   S    
C64   C72   A    
C73   H25   S    
O18   V4    S    
C36   H12   S    
N4    C40   S    
C46   C50   A    
O11   V3    S    
C24   C40   A    
C8    C10   S    
C68   C72   A    
C32   C36   A    
C74   C78   A    
C11   H3    S    
C32   H8    S    
O5    C1    A    
C22   O29   S    
C54   C77   A    
C42   C46   A    
C75   C79   A    
C86   H36   S    
C1    C60   S    
C41   C45   A    
O8    C4    A    
C13   C45   A    
C43   C72   A    
C9    C10   D    
C86   H38   S    
O9    C5    A    
C36   C40   A    
C79   H23   S    
C21   C25   A    
C44   C56   A    
C80   H24   S    
C62   C65   A    
C28   C60   A    
C85   H33   S    
C66   C70   A    
C22   C26   A    
C14   N2    A    
C65   C69   A    
C61   C66   A    
C3    C58   S    
O32   C88   S    
O6    V2    S    
C75   H27   S    
C67   C71   A    
C65   C82   A    
C26   C58   A    
C17   C53   A    
O30   C86   S    
C88   H44   S    
N1    C37   S    
C4    C57   S    
O10   C6    A    
C56   C79   A    
C23   C39   A    
C22   C38   A    
O16   V4    S    
O9    V1    S    
C83   H31   S    
C18   O25   S    
C35   H11   S    
C3    O13   A    
C10   H2    S    
C43   C55   A    
C87   H41   S    
C48   C52   A    
C17   O26   S    
C16   C48   A    
O6    C2    A    
C34   H10   S    
C64   C76   A    
C5    C11   S    
C33   H9    S    
O12   V4    S    
C6    C12   S    
C23   C27   A    
C30   C58   A    
C24   C28   A    
C30   H6    S    
C87   H40   S    
C29   H5    S    
N2    C18   A    
C62   C74   A    
C35   C39   A    
C15   N3    A    
C30   C34   A    
C2    C59   S    
O4    C8    A    
C29   C33   A    
O20   V2    S    
C29   C57   A    
C66   C81   A    
C78   H22   S    
N3    C19   A    
C74   H26   S    
C26   H17   S    
C9    H1    S    
C20   O27   S    
C43   C47   A    
N4    C20   A    
C20   C56   A    
C51   H15   S    
C19   O28   S    
C4    O14   A    
C13   O21   S    
C61   C73   A    
O29   C85   S    
C15   O23   S    
C64   C67   A    
C45   C49   A    
C23   O32   S    
C16   O24   S    
C49   C81   A    
C28   H19   S    
