data_mof_unit_29072.cif
_audit_creation_date              2013-03-05T15:40:25-0500
_audit_creation_method            fapswitch 2.2
_symmetry_space_group_name_H-M    P1
_symmetry_Int_Tables_number       1
_space_group_crystal_system       triclinic
_cell_length_a                    7.821396
_cell_length_b                    8.556414
_cell_length_c                    10.593896
_cell_angle_alpha                 91.375691
_cell_angle_beta                  85.236455
_cell_angle_gamma                 93.657082
_cell_volume                      704.963986803

loop_
_atom_site_label
_atom_site_type_symbol
_atom_site_description
_atom_site_fract_x
_atom_site_fract_y
_atom_site_fract_z
_atom_type_partial_charge
O1    O     O_R   0.389250 0.738570 0.508280 -0.605027
O2    O     O_R   0.678390 0.711630 0.486650 -0.569276
C1    C     C_R   0.545637 0.794529 0.497093 0.926591
O3    O     O_R   0.355400 0.513470 0.694050 -0.610359
O4    O     O_R   0.644540 0.486530 0.672420 -0.577393
C2    C     C_R   0.501836 0.504034 0.739142 0.849782
Zn1   Zn    Zn3+2 0.306930 0.517990 0.514440 1.017842
Zn2   Zn    Zn3+2 0.693070 0.482010 0.485560 1.022619
O5    O     O_R   0.321610 0.288370 0.513350 -0.634157
O6    O     O_R   0.610750 0.261430 0.491720 -0.622507
O7    O     O_R   0.355460 0.513470 0.327580 -0.636699
O8    O     O_R   0.644600 0.486530 0.305950 -0.613122
C3    C     C_R   0.454466 0.205504 0.503330 0.940612
C4    C     C_R   0.499454 0.503068 0.260808 0.837727
H1    H     H_    0.591839 0.279213 0.875390 0.151519
C5    C     C_R   0.419172 0.788235 0.878688 -0.119251
H2    H     H_    0.423452 0.794633 0.776643 0.146653
C6    C     C_R   0.376240 0.921597 0.949713 -0.119489
H3    H     H_    0.346823 0.026284 0.902491 0.144007
C7    C     C_R   0.372737 0.920619 0.081287 -0.135609
H4    H     H_    0.340573 0.024547 0.136260 0.140324
C8    C     C_R   0.412151 0.786280 0.142239 -0.161305
H5    H     H_    0.410503 0.791199 0.244346 0.150933
C9    C     C_R   0.455113 0.649800 0.071562 0.088017
C10   C     C_R   0.458664 0.650825 0.939194 0.093902
C11   C     C_R   0.506035 0.514371 0.871322 -0.059176
C12   C     C_R   0.554844 0.382497 0.929804 -0.192441
H6    H     H_    0.587115 0.277755 0.104843 0.150247
C13   C     C_R   0.551469 0.381479 0.058863 -0.207495
C14   C     C_R   0.499461 0.512379 0.128583 -0.074832
C15   C     C_2   0.569680 0.958156 0.495434 -0.361932
H7    H     H_    0.701010 0.009113 0.485721 0.212066
C16   C     C_2   0.430763 0.041925 0.505508 -0.395199
H8    H     H_    0.299628 0.991067 0.515290 0.231262
N1    N     N_2   0.950330 0.457950 0.466250 -0.150501
H9    H     H_    0.009397 0.368293 0.417074 0.163784
N2    N     N_2   0.049670 0.542050 0.533750 0.038719
N3    N     N_R   0.981477 0.675276 0.588564 0.335317
O9    O     O_R   0.011502 0.807448 0.530319 -0.416122
O10   O     O_R   0.939286 0.678463 0.709864 -0.380032

loop_
_geom_bond_atom_site_label_1
_geom_bond_atom_site_label_2
_geom_bond_distance
_ccdc_geom_bond_type
O4    Zn2   1.984361 S    
N3    O10   1.300006 A    
C15   C16   1.334943 D    
C3    C16   1.400591 S    
C13   C14   1.390677 A    
C12   C13   1.365529 A    
H1    C12   1.085121 S    
N1    H9    1.029265 S    
Zn2   O8    1.972551 S    
O2    C1    1.290182 A    
Zn1   N2    2.028635 S    
C5    C6    1.395242 A    
C9    C10   1.400493 A    
C1    C15   1.401030 S    
C11   C12   1.389457 A    
C2    C11   1.403948 S    
C4    C14   1.404950 S    
O3    Zn1   1.972551 S    
C8    C9    1.415458 A    
O3    C2    1.284918 A    
H6    C13   1.085148 S    
N1    N2    1.276365 D    
N2    N3    1.384003 S    
O8    C4    1.285072 A    
Zn1   O7    1.984361 S    
C6    C7    1.392096 A    
O4    C2    1.285710 A    
O7    C4    1.286140 A    
C9    C14   1.410220 A    
C16   H8    1.086118 S    
C7    H4    1.082842 S    
Zn2   O6    1.955736 S    
C6    H3    1.082812 S    
C5    C10   1.415644 A    
Zn1   O5    1.975077 S    
O5    C3    1.290673 A    
C8    H5    1.080557 S    
C10   C11   1.410002 A    
O1    Zn1   1.955736 S    
Zn2   N1    2.028635 S    
O2    Zn2   1.975077 S    
C15   H7    1.087782 S    
C7    C8    1.395402 A    
C5    H2    1.081378 S    
O1    C1    1.281940 A    
O6    C3    1.281214 A    
N3    O9    1.300163 A    
