data_mof_unit_5290.cif
_audit_creation_date              2012-12-10T17:04:36-0500
_audit_creation_method            fapswitch 2.2
_symmetry_space_group_name_H-M    P1
_symmetry_Int_Tables_number       1
_space_group_crystal_system       triclinic
_cell_length_a                    14.964881
_cell_length_b                    10.651406
_cell_length_c                    10.130209
_cell_angle_alpha                 88.385682
_cell_angle_beta                  89.671289
_cell_angle_gamma                 91.811131
_cell_volume                      1613.24245868

loop_
_atom_site_label
_atom_site_type_symbol
_atom_type_description
_atom_site_fract_x
_atom_site_fract_y
_atom_site_fract_z
_atom_type_partial_charge
C1    C     C_R   0.490614 0.262032 0.501526 0.863424
C2    C     C_R   0.182371 0.400141 0.447851 -0.059639
C3    C     C_R   0.230736 0.501571 0.501627 -0.168987
C4    C     C_R   0.327100 0.500096 0.500256 0.858293
C5    C     C_R   0.187309 0.600607 0.562464 0.091260
C6    C     C_2   0.440744 0.925360 0.413034 -0.146571
C7    C     C_2   0.501370 0.870317 0.489510 -0.320632
C8    C     C_2   0.441075 0.062361 0.398848 0.083539
C9    C     C_2   0.460202 0.130303 0.508444 -0.260105
C10   C     C_2   0.518214 0.597025 0.926086 -0.080192
C11   C     C_2   0.540490 0.585932 0.070723 0.131313
C12   C     C_R   0.906991 0.588509 0.587977 0.025926
C13   C     C_R   0.501658 0.737378 0.497840 0.906620
C14   C     C_R   0.672489 0.503928 0.499856 0.881692
C15   C     C_R   0.815681 0.605843 0.561557 0.143591
C16   C     C_R   0.767832 0.507474 0.501203 -0.065086
C17   C     C_R   0.809590 0.405343 0.449922 -0.246865
C18   C     C_R   0.901991 0.400305 0.450831 0.075020
C19   C     C_R   0.951280 0.493161 0.520035 0.045739
C20   C     C_3   0.771856 0.732370 0.579123 -0.387730
C21   C     C_3   0.746034 0.793046 0.446957 -0.871937
C22   C     C_3   0.433041 0.119406 0.259044 -0.344369
C23   C     C_R   0.946120 0.302954 0.388002 -0.130733
C24   C     C_3   0.377040 0.041049 0.163545 -0.798005
C25   C     C_2   0.442362 0.075829 0.644437 0.985033
C26   C     C_2   0.515536 0.724436 0.868017 1.007668
C27   C     C_2   0.519467 0.378484 0.901605 1.030853
C28   C     C_3   0.611611 0.675945 0.122764 -0.307419
C29   C     C_3   0.577029 0.807226 0.146118 -0.815000
C30   C     C_2   0.898611 0.203132 0.313068 0.949214
C31   C     C_2   0.229061 0.296217 0.386835 0.874981
C32   C     C_3   0.238064 0.723372 0.592716 -0.358715
C33   C     C_3   0.207419 0.830268 0.501451 -0.813482
C34   C     C_R   0.038809 0.301995 0.390983 -0.232120
C35   C     C_2   0.915304 0.719388 0.794804 0.910034
C36   C     C_R   0.088964 0.397486 0.452467 0.054765
C37   C     C_R   0.044943 0.492287 0.519307 0.035474
C38   C     C_R   0.094206 0.588845 0.581891 0.087702
C39   C     C_R   0.049399 0.668507 0.666196 -0.250146
C40   C     C_R   0.956542 0.662961 0.677194 -0.067424
H1    H     H_    0.551827 0.922531 0.543816 0.141510
H2    H     H_    0.712023 0.720344 0.643824 0.269819
H3    H     H_    0.816994 0.802810 0.624070 0.226606
H4    H     H_    0.412033 0.955818 0.135853 0.256022
H5    H     H_    0.310887 0.013989 0.207656 0.250127
H6    H     H_    0.365897 0.097274 0.071423 0.296982
H7    H     H_    0.398695 0.209424 0.262677 0.270571
H8    H     H_    0.500968 0.137066 0.216221 0.230348
H9    H     H_    0.357248 0.978826 0.767390 0.377069
H10   H     H_    0.584735 0.872831 0.786573 0.355747
H11   H     H_    0.608130 0.261790 0.984538 0.353031
H12   H     H_    0.447377 0.452724 0.108491 0.171083
H13   H     H_    0.584439 0.868687 0.056482 0.273123
H14   H     H_    0.505703 0.801142 0.175310 0.269252
H15   H     H_    0.615864 0.853024 0.225436 0.254717
H16   H     H_    0.639601 0.639194 0.214686 0.245730
H17   H     H_    0.668693 0.683266 0.052146 0.217619
H18   H     H_    0.958214 0.061604 0.412421 0.309372
H19   H     H_    0.263449 0.115726 0.403977 0.340438
H20   H     H_    0.217509 0.806005 0.396573 0.248435
H21   H     H_    0.135960 0.849998 0.517862 0.272168
H22   H     H_    0.247136 0.917049 0.520475 0.304167
H23   H     H_    0.768634 0.330918 0.408331 0.178465
H24   H     H_    0.230006 0.747535 0.697765 0.228242
H25   H     H_    0.311084 0.718041 0.577595 0.222458
H26   H     H_    0.815438 0.711943 0.929691 0.355352
H27   H     H_    0.071392 0.228067 0.339606 0.174003
H28   H     H_    0.086447 0.730549 0.729985 0.196081
H29   H     H_    0.393330 0.868794 0.357393 0.171609
H30   H     H_    0.804186 0.797724 0.378050 0.297092
H31   H     H_    0.690161 0.739742 0.401994 0.244130
H32   H     H_    0.723720 0.890066 0.462502 0.264697
N1    N     N_2   0.500970 0.501330 0.852150 -0.219363
N2    N     N_2   0.500990 0.501360 0.147810 -0.199176
O1    O     O_R   0.499990 0.319060 0.613040 -0.569953
O2    O     O_R   0.362407 0.008702 0.671709 -0.776633
O3    O     O_2   0.444471 0.777651 0.861765 -0.643086
O4    O     O_R   0.594599 0.784711 0.822589 -0.819512
O5    O     O_2   0.461774 0.295151 0.895913 -0.601326
O6    O     O_R   0.603694 0.352573 0.953074 -0.780240
O7    O     O_2   0.845846 0.231879 0.226703 -0.549822
O8    O     O_R   0.915744 0.076129 0.336349 -0.762015
O9    O     O_2   0.251740 0.305472 0.270820 -0.619364
O10   O     O_R   0.239913 0.184729 0.459765 -0.794018
O11   O     O_2   0.950845 0.811170 0.845132 -0.600727
O12   O     O_R   0.500010 0.319100 0.386900 -0.625823
O13   O     O_R   0.836782 0.665406 0.850100 -0.775511
O14   O     O_R   0.367830 0.499950 0.613080 -0.606565
O15   O     O_R   0.367860 0.499990 0.386940 -0.597297
O16   O     O_R   0.499990 0.680900 0.613100 -0.601051
O17   O     O_R   0.500010 0.680940 0.386960 -0.624408
O18   O     O_R   0.632140 0.500010 0.613060 -0.594039
O19   O     O_R   0.632170 0.500050 0.386920 -0.628669
O20   O     O_2   0.497769 0.089728 0.731515 -0.599472
Zn1   Zn    Zn3+2 0.499980 0.499970 0.650990 1.043297
Zn2   Zn    Zn3+2 0.500020 0.500030 0.349010 0.961723

loop_
_geom_bond_atom_site_label_1
_geom_bond_atom_site_label_2
_ccdc_geom_bond_type
C6    H29   S    
C22   H8    S    
C12   C40   A    
C13   O16   A    
C39   H28   S    
C28   H16   S    
O1    Zn1   S    
O16   Zn1   S    
C28   H17   S    
C26   O4    S    
C21   H31   S    
C24   H5    S    
C22   C24   S    
C36   C37   A    
C33   H22   S    
H12   N2    S    
H18   O8    S    
C38   C39   A    
C10   N1    D    
C29   H14   S    
C15   C16   A    
C31   O9    D    
C18   C19   A    
H11   O6    S    
C19   C37   A    
O17   Zn2   S    
C35   O13   S    
C8    C9    D    
C8    C22   S    
C14   O19   A    
C5    C32   S    
C10   C26   S    
C22   H7    S    
O14   Zn1   S    
C25   O20   D    
C5    C38   A    
C13   O17   A    
H10   O4    S    
C15   C20   S    
C26   O3    D    
C21   H32   S    
C9    C25   S    
C18   C23   A    
C1    O1    A    
C23   C30   S    
N2    Zn2   S    
C1    C9    S    
H19   O10   S    
C32   H24   S    
C27   O6    S    
H26   O13   S    
C16   C17   A    
C6    C8    S    
C29   H15   S    
O18   Zn1   S    
C31   O10   S    
C2    C31   S    
C30   O8    S    
C37   C38   A    
C12   C15   A    
C23   C34   A    
C17   C18   A    
H9    O2    S    
C14   O18   A    
O12   Zn2   S    
C33   H20   S    
C24   H4    S    
C14   C16   S    
N1    Zn1   S    
C3    C4    S    
C39   C40   A    
C20   H3    S    
C4    O15   A    
C2    C36   A    
C1    O12   A    
C28   C29   S    
C3    C5    A    
C11   N2    D    
C34   H27   S    
C20   H2    S    
C6    C7    D    
C4    O14   A    
O19   Zn2   S    
C27   O5    D    
C21   H30   S    
C25   O2    S    
C24   H6    S    
C32   C33   S    
C30   O7    D    
C35   C40   S    
C17   H23   S    
C35   O11   D    
C29   H13   S    
C11   C28   S    
O15   Zn2   S    
C12   C19   A    
C2    C3    A    
C34   C36   A    
C7    H1    S    
C10   C11   S    
C7    C13   S    
C20   C21   S    
C33   H21   S    
C27   N1    S    
C32   H25   S    
