data_mof_unit_48445.cif
_audit_creation_date              2012-12-10T17:49:44-0500
_audit_creation_method            fapswitch 2.2
_symmetry_space_group_name_H-M    P1
_symmetry_Int_Tables_number       1
_space_group_crystal_system       triclinic
_cell_length_a                    10.499229
_cell_length_b                    10.634808
_cell_length_c                    9.938915
_cell_angle_alpha                 89.783901
_cell_angle_beta                  90.318476
_cell_angle_gamma                 91.294137
_cell_volume                      1109.44467326

loop_
_atom_site_label
_atom_site_type_symbol
_atom_type_description
_atom_site_fract_x
_atom_site_fract_y
_atom_site_fract_z
_atom_type_partial_charge
C1    C     C_R   0.504418 0.260779 0.500314 0.851040
C2    C     C_R   0.610447 0.067802 0.574103 0.105765
C3    C     C_R   0.514037 0.128573 0.500414 -0.078882
C4    C     C_R   0.257489 0.499421 0.499551 0.847391
C5    C     C_R   0.423879 0.062796 0.423558 -0.215929
C6    C     C_R   0.424081 0.934448 0.422890 -0.203602
C7    C     C_R   0.514596 0.871900 0.498863 -0.096076
C8    C     C_R   0.333815 0.335413 0.139345 -0.177468
C9    C     C_R   0.253412 0.252999 0.069021 -0.180658
C10   C     C_R   0.254572 0.252256 0.929774 -0.170962
C11   C     C_R   0.335116 0.334434 0.859951 -0.167534
C12   C     C_3   0.959598 0.601663 0.434882 -0.181016
C13   C     C_R   0.418546 0.418635 0.927629 0.173373
C14   C     C_R   0.418275 0.418873 0.072052 0.174258
C15   C     C_R   0.578262 0.577614 0.071548 -0.106778
C16   C     C_R   0.504468 0.739357 0.499746 0.867769
C17   C     C_R   0.578183 0.577638 0.928599 -0.114913
C18   C     C_R   0.742496 0.499808 0.500524 0.835111
C19   C     C_3   0.040422 0.396245 0.565652 -0.200232
C20   C     C_3   0.954711 0.394581 0.438860 -0.179391
C21   C     C_3   0.877650 0.499090 0.501737 0.029849
C22   C     C_3   0.960583 0.500666 0.628760 -0.145829
C23   C     C_3   0.039323 0.497189 0.371744 -0.133600
C24   C     C_3   0.045160 0.603289 0.561708 -0.166931
C25   C     C_2   0.893864 0.142551 0.801201 0.345505
C26   C     C_3   0.122291 0.498904 0.498710 0.037964
C27   C     C_R   0.706881 0.134466 0.646280 -0.299927
C28   C     C_R   0.799297 0.070601 0.720135 0.080175
C29   C     C_R   0.800152 0.939151 0.716464 -0.123520
C30   C     C_R   0.708526 0.872567 0.642075 -0.255866
C31   C     C_R   0.610938 0.936028 0.572725 0.106429
H1    H     H_    0.912951 0.309657 0.389367 0.142729
H2    H     H_    0.642151 0.641185 0.875162 0.145461
H3    H     H_    0.078449 0.312829 0.618567 0.128723
H4    H     H_    0.924473 0.502030 0.733527 0.141962
H5    H     H_    0.086640 0.688193 0.611488 0.140045
H6    H     H_    0.921818 0.685238 0.382064 0.137670
H7    H     H_    0.075442 0.495565 0.266975 0.150956
H8    H     H_    0.351106 0.111046 0.366744 0.143059
H9    H     H_    0.711758 0.236091 0.646042 0.155453
H10   H     H_    0.896654 0.244600 0.797099 0.062665
H11   H     H_    0.872349 0.887593 0.770283 0.171368
H12   H     H_    0.716000 0.771416 0.639002 0.155524
H13   H     H_    0.351363 0.883503 0.365827 0.158082
H14   H     H_    0.642304 0.641127 0.125145 0.149476
H15   H     H_    0.327109 0.330753 0.245986 0.199921
H16   H     H_    0.189937 0.189272 0.123045 0.165749
H17   H     H_    0.192916 0.187632 0.874955 0.200597
H18   H     H_    0.329222 0.328908 0.753285 0.203673
N1    N     N_R   0.498800 0.498800 0.142780 -0.121375
N2    N     N_R   0.498760 0.498720 0.857170 -0.121638
O1    O     O_R   0.500000 0.316780 0.614690 -0.640878
O2    O     O_R   0.499990 0.316750 0.385360 -0.628955
O3    O     O_R   0.313960 0.499980 0.614650 -0.631236
O4    O     O_R   0.313940 0.499960 0.385310 -0.644758
O5    O     O_R   0.500010 0.683250 0.614640 -0.612498
O6    O     O_R   0.500000 0.683220 0.385310 -0.612525
O7    O     O_R   0.686060 0.500040 0.614690 -0.642361
O8    O     O_R   0.686040 0.500020 0.385350 -0.611452
O9    O     O_2   0.968385 0.088850 0.875210 -0.606222
Zn1   Zn    Zn3+2 0.500010 0.500020 0.653130 0.927665
Zn2   Zn    Zn3+2 0.499990 0.499980 0.346870 0.937607

loop_
_geom_bond_atom_site_label_1
_geom_bond_atom_site_label_2
_ccdc_geom_bond_type
C8    C9    A    
C4    C26   S    
C16   O5    A    
C6    C7    A    
C11   H18   S    
O3    Zn1   S    
C29   H11   S    
C18   C21   S    
C9    C10   A    
C12   C24   S    
C19   C20   S    
N2    Zn1   S    
C20   C23   S    
C27   H9    S    
O1    Zn1   S    
C2    C27   A    
C17   N2    A    
O7    Zn1   S    
C2    C3    A    
O6    Zn2   S    
O5    Zn1   S    
C6    H13   S    
C13   C14   A    
C25   C28   S    
C22   H4    S    
C11   C13   A    
C12   C23   S    
C24   H5    S    
C17   H2    S    
C20   H1    S    
C13   N2    A    
C7    C16   S    
C25   O9    D    
C24   C26   S    
C9    H16   S    
C22   C24   S    
C16   O6    A    
C5    H8    S    
C4    O4    A    
C10   H17   S    
C5    C6    A    
N1    Zn2   S    
C1    O1    A    
C8    H15   S    
C30   H12   S    
C15   N1    A    
C7    C31   A    
C10   C11   A    
C14   N1    A    
C29   C30   A    
C23   H7    S    
O4    Zn2   S    
C3    C5    A    
C18   O8    A    
C27   C28   A    
C19   C22   S    
C20   C21   S    
O2    Zn2   S    
C23   C26   S    
C25   H10   S    
C12   H6    S    
C15   C17   A    
C19   C26   S    
C15   H14   S    
C30   C31   A    
C28   C29   A    
O8    Zn2   S    
C1    O2    A    
C8    C14   A    
C4    O3    A    
C21   C22   S    
C12   C21   S    
C18   O7    A    
C2    C31   A    
C1    C3    S    
C19   H3    S    
