data_mof_unit_9936.cif
_audit_creation_date              2012-12-10T16:56:32-0500
_audit_creation_method            fapswitch 2.2
_symmetry_space_group_name_H-M    P1
_symmetry_Int_Tables_number       1
_space_group_crystal_system       triclinic
_cell_length_a                    7.773294
_cell_length_b                    8.62849
_cell_length_c                    15.754007
_cell_angle_alpha                 91.034071
_cell_angle_beta                  85.767457
_cell_angle_gamma                 93.562712
_cell_volume                      1051.63495099

loop_
_atom_site_label
_atom_site_type_symbol
_atom_type_description
_atom_site_fract_x
_atom_site_fract_y
_atom_site_fract_z
_atom_type_partial_charge
C1    C     C_R   0.545317 0.794289 0.497835 0.876754
C2    C     C_R   0.454683 0.205711 0.502165 0.876752
C3    C     C_R   0.501956 0.499941 0.661771 0.881588
C4    C     C_R   0.498044 0.500059 0.338229 0.881591
C5    C     C_2   0.569548 0.956691 0.496726 0.284488
C6    C     C_2   0.430452 0.043309 0.503274 0.284490
C7    C     C_3   0.473070 0.644678 0.029749 0.672213
C8    C     C_3   0.526931 0.355320 0.970251 0.672206
C9    C     C_3   0.626480 0.598354 0.969079 -0.032647
C10   C     C_3   0.373521 0.401643 0.030920 -0.032665
C11   C     C_1   0.505529 0.498920 0.750152 -0.128290
C12   C     C_1   0.494470 0.501080 0.249848 -0.128301
C13   C     C_3   0.349641 0.543385 0.976609 -0.087019
C14   C     C_3   0.650359 0.456612 0.023391 -0.087008
C15   C     C_3   0.502846 0.498418 0.915723 -0.092924
C16   C     C_3   0.497155 0.501580 0.084277 -0.092947
C17   C     C_1   0.505502 0.498357 0.825163 0.088012
C18   C     C_1   0.494498 0.501642 0.174837 0.087954
H1    H     H_    0.013634 0.382170 0.436586 0.219431
H2    H     H_    0.986366 0.617830 0.563414 0.219433
N1    N     N_2   0.950320 0.457950 0.477300 -0.144083
N2    N     N_2   0.049680 0.542050 0.522700 -0.144082
O1    O     O_R   0.389250 0.738570 0.505570 -0.572440
O2    O     O_R   0.610750 0.261430 0.494430 -0.572440
O3    O     O_R   0.678390 0.711630 0.491020 -0.583052
O4    O     O_R   0.321610 0.288370 0.508980 -0.583052
O5    O     O_R   0.355460 0.513480 0.630490 -0.610298
O6    O     O_R   0.644540 0.486520 0.369510 -0.610308
O7    O     O_R   0.644600 0.486540 0.615950 -0.622601
O8    O     O_R   0.355400 0.513460 0.384050 -0.622599
Zn1   Zn    Zn3+2 0.306940 0.517990 0.509710 1.040337
Zn2   Zn    Zn3+2 0.693060 0.482010 0.490290 1.040332
N3    N     N_3   0.764018 0.705978 0.934017 -0.376861
H3    H     H_    0.830678 0.751569 0.984942 0.225271
H4    H     H_    0.850089 0.641128 0.896191 0.198764
N4    N     N_3   0.235985 0.294017 0.065983 -0.376861
H5    H     H_    0.169326 0.248424 0.015058 0.225265
H6    H     H_    0.149913 0.358865 0.103809 0.198743
F1    F     F_    0.445520 0.792850 0.060528 -0.617150
F2    F     F_    0.554481 0.207148 0.939472 -0.617154
N5    N     N_3   0.815124 0.410867 0.049746 -0.444955
H7    H     H_    0.887811 0.377753 0.994708 0.214019
H8    H     H_    0.790024 0.311195 0.086429 0.228370
N6    N     N_3   0.184879 0.589131 0.950251 -0.444930
H9    H     H_    0.112091 0.622011 0.005291 0.213983
H10   H     H_    0.209942 0.688927 0.913687 0.228419
F3    F     F_    0.736498 0.016775 0.489012 -0.616876
F4    F     F_    0.263502 0.983225 0.510988 -0.616875

loop_
_geom_bond_atom_site_label_1
_geom_bond_atom_site_label_2
_ccdc_geom_bond_type
C9    N3    S    
C9    C14   S    
O2    Zn2   S    
C4    C12   S    
C5    F3    S    
N5    H7    S    
C7    C13   S    
O3    Zn2   S    
C3    O5    A    
N3    H3    S    
C9    C15   S    
C4    O8    A    
O4    Zn1   S    
C2    O4    A    
C10   C16   S    
N1    N2    D    
C13   N6    S    
C1    O3    A    
N5    H8    S    
C2    C6    S    
C6    F4    S    
C14   N5    S    
C1    C5    S    
C5    C6    D    
C16   C18   S    
C7    C16   S    
H1    N1    S    
N6    H10   S    
C1    O1    A    
C8    C15   S    
C13   C15   S    
C2    O2    A    
O8    Zn1   S    
N3    H4    S    
N1    Zn2   S    
C14   C16   S    
C3    C11   S    
N2    Zn1   S    
O5    Zn1   S    
N4    H6    S    
C7    C9    S    
O6    Zn2   S    
N6    H9    S    
C15   C17   S    
C12   C18   T    
C3    O7    A    
C7    F1    S    
N4    H5    S    
C8    C14   S    
C8    F2    S    
O7    Zn2   S    
C4    O6    A    
C8    C10   S    
C11   C17   T    
H2    N2    S    
C10   N4    S    
C10   C13   S    
O1    Zn1   S    
