data_mof_unit_46694.cif
_audit_creation_date              2012-12-10T19:04:16-0500
_audit_creation_method            fapswitch 2.2
_symmetry_space_group_name_H-M    P1
_symmetry_Int_Tables_number       1
_space_group_crystal_system       triclinic
_cell_length_a                    10.646109
_cell_length_b                    10.857846
_cell_length_c                    9.54874
_cell_angle_alpha                 90.040813
_cell_angle_beta                  89.507995
_cell_angle_gamma                 90.266679
_cell_volume                      1103.72235658

loop_
_atom_site_label
_atom_site_type_symbol
_atom_type_description
_atom_site_fract_x
_atom_site_fract_y
_atom_site_fract_z
_atom_type_partial_charge
C1    C     C_R   0.500094 0.262726 0.499802 0.834047
C2    C     C_3   0.960623 0.503881 0.366756 -0.218138
C3    C     C_3   0.044012 0.401336 0.429829 -0.255270
C4    C     C_3   0.122981 0.501354 0.501900 0.004646
C5    C     C_R   0.498294 0.062123 0.620857 0.156062
C6    C     C_R   0.501164 0.130116 0.498019 -0.086664
C7    C     C_R   0.505250 0.064510 0.370321 -0.226127
C8    C     C_R   0.505467 0.935327 0.370392 -0.183769
C9    C     C_R   0.501597 0.869912 0.498170 -0.089505
C10   C     C_R   0.498638 0.938138 0.620971 0.119856
C11   C     C_3   0.492027 0.929509 0.776599 -0.474166
C12   C     C_R   0.259505 0.500569 0.500623 0.840442
C13   C     C_3   0.491539 0.071350 0.776390 -0.458571
C14   C     C_R   0.560380 0.591279 0.073081 0.272338
C15   C     C_R   0.430407 0.417168 0.075024 -0.069435
C16   C     C_R   0.430300 0.417241 0.926148 -0.073142
C17   C     C_R   0.560657 0.591070 0.925703 0.260282
C18   C     C_3   0.697421 0.620998 0.918712 -0.504003
C19   C     C_3   0.696974 0.621476 0.077552 -0.523618
C20   C     C_R   0.500459 0.737281 0.499861 0.835811
C21   C     C_R   0.740542 0.499302 0.499508 0.843574
C22   C     C_3   0.039729 0.495745 0.634350 -0.223962
C23   C     C_3   0.959061 0.397103 0.561208 0.065707
C24   C     C_3   0.877157 0.498331 0.498947 0.001373
C25   C     C_3   0.956159 0.598302 0.571322 -0.260322
C26   C     C_3   0.041077 0.602574 0.439902 0.067666
Cu1   Cu    Cu3+1 0.499990 0.499980 0.640670 0.964687
Cu2   Cu    Cu3+1 0.500010 0.500020 0.359330 0.966345
H1    H     H_    0.578579 0.889597 0.821767 0.193802
H2    H     H_    0.401350 0.111488 0.813549 0.180948
H3    H     H_    0.375991 0.348588 0.131277 0.132725
H4    H     H_    0.375659 0.348869 0.870816 0.127865
H5    H     H_    0.753291 0.545541 0.122077 0.215723
H6    H     H_    0.714991 0.713967 0.123351 0.189292
H7    H     H_    0.073705 0.491862 0.743871 0.146816
H8    H     H_    0.917940 0.679130 0.628557 0.137032
H9    H     H_    0.082092 0.320410 0.372685 0.136399
H10   H     H_    0.507974 0.112198 0.270738 0.166574
H11   H     H_    0.508342 0.887481 0.270840 0.169012
N1    N     N_R   0.500800 0.500930 0.147930 -0.184881
N2    N     N_R   0.500800 0.500890 0.852020 -0.183653
O1    O     O_R   0.500000 0.319640 0.618810 -0.567827
O2    O     O_R   0.500010 0.319680 0.381230 -0.601820
O3    O     O_R   0.316850 0.499950 0.618770 -0.602791
O4    O     O_R   0.316860 0.499990 0.381190 -0.559095
O5    O     O_R   0.499990 0.680320 0.618770 -0.591060
O6    O     O_R   0.500000 0.680360 0.381190 -0.571070
O7    O     O_R   0.683140 0.500010 0.618810 -0.562615
O8    O     O_R   0.683150 0.500050 0.381230 -0.600928
C27   C     C_2   0.916846 0.279648 0.629494 0.311835
H12   H     H_    0.986253 0.217062 0.671159 0.060790
O9    O     O_2   0.805513 0.253457 0.638414 -0.551149
H13   H     H_    0.577759 0.113204 0.821353 0.225718
H14   H     H_    0.754675 0.545127 0.873529 0.231027
H15   H     H_    0.715938 0.713203 0.872402 0.183610
C28   C     C_2   0.082950 0.720142 0.371644 0.320348
H16   H     H_    0.013389 0.782218 0.329329 0.061647
O10   O     O_2   0.194159 0.747004 0.363512 -0.545483
H17   H     H_    0.928918 0.507193 0.256646 0.138624
H18   H     H_    0.402255 0.887902 0.814057 0.206440

loop_
_geom_bond_atom_site_label_1
_geom_bond_atom_site_label_2
_ccdc_geom_bond_type
Cu1   O7    S    
C4    C26   S    
C23   C24   S    
Cu2   O6    S    
C15   H3    S    
C6    C7    A    
C8    H11   S    
C16   H4    S    
C4    C22   S    
C9    C10   A    
Cu1   N2    S    
Cu2   O2    S    
C5    C13   S    
Cu1   O1    S    
C21   O7    A    
C16   N2    A    
C21   O8    A    
C17   C18   S    
C5    C10   A    
C2    C26   S    
C24   C25   S    
C22   H7    S    
C11   C13   S    
C14   C17   A    
C11   H1    S    
C26   C28   S    
C18   H15   S    
Cu1   O3    S    
Cu1   O5    S    
C7    H10   S    
C28   O10   D    
C2    C3    S    
C13   H13   S    
C2    C24   S    
C5    C6    A    
C15   N1    A    
C17   N2    A    
Cu2   O4    S    
C20   O6    A    
C4    C12   S    
C10   C11   S    
Cu2   N1    S    
C25   H8    S    
C14   N1    A    
C15   C16   A    
C13   H2    S    
C7    C8    A    
C1    O1    A    
C28   H16   S    
C3    H9    S    
C12   O3    A    
C18   C19   S    
Cu2   O8    S    
C21   C24   S    
C27   O9    D    
C18   H14   S    
C2    H17   S    
C12   O4    A    
C23   C27   S    
C9    C20   S    
C27   H12   S    
C25   C26   S    
C22   C23   S    
C22   C25   S    
C3    C23   S    
C14   C19   S    
C1    O2    A    
C20   O5    A    
C3    C4    S    
C11   H18   S    
C19   H5    S    
C8    C9    A    
Cu1   Cu2   S    
C19   H6    S    
C1    C6    S    
