data_mof_unit_20009.cif
_audit_creation_date              2012-12-10T18:47:48-0500
_audit_creation_method            fapswitch 2.2
_symmetry_space_group_name_H-M    P1
_symmetry_Int_Tables_number       1
_space_group_crystal_system       triclinic
_cell_length_a                    9.851227
_cell_length_b                    10.721415
_cell_length_c                    15.534136
_cell_angle_alpha                 90.196677
_cell_angle_beta                  67.576939
_cell_angle_gamma                 90.175526
_cell_volume                      1516.64049376

loop_
_atom_site_label
_atom_site_type_symbol
_atom_type_description
_atom_site_fract_x
_atom_site_fract_y
_atom_site_fract_z
_atom_type_partial_charge
C1    C     C_R   0.500238 0.740114 0.499886 0.869452
C2    C     C_R   0.384822 0.935692 0.487719 -0.212693
C3    C     C_R   0.500329 0.127421 0.499224 -0.016717
C4    C     C_R   0.500633 0.872574 0.499314 -0.014335
C5    C     C_R   0.957504 0.413357 0.450022 -0.335893
C6    C     C_R   0.042595 0.586688 0.550149 -0.354188
C7    C     C_R   0.103238 0.414110 0.448289 0.552149
C8    C     C_R   0.895997 0.586868 0.551562 0.562972
C9    C     C_R   0.408141 0.500082 0.675999 0.869158
C10   C     C_R   0.591913 0.502072 0.324034 0.859002
C11   C     C_R   0.351572 0.514432 0.776770 -0.062129
C12   C     C_R   0.500013 0.259887 0.499703 0.864027
C13   C     C_R   0.650412 0.509336 0.222756 -0.064922
C14   C     C_R   0.182009 0.607879 0.918355 -0.224437
C15   C     C_R   0.839908 0.470324 0.071783 -0.218203
C16   C     C_R   0.216383 0.571374 0.826211 -0.211921
C17   C     C_R   0.794904 0.475476 0.168288 -0.204722
C18   C     C_R   0.447791 0.488965 0.820623 -0.264061
C19   C     C_R   0.554970 0.545744 0.180607 -0.268298
C20   C     C_R   0.423154 0.536626 0.908933 0.086721
C21   C     C_R   0.596310 0.539735 0.084238 0.096147
C22   C     C_R   0.285331 0.592523 0.959644 0.177674
C23   C     C_R   0.355659 0.619981 0.090951 -0.246693
C24   C     C_R   0.740382 0.498369 0.029674 0.180004
C25   C     C_R   0.532319 0.530528 0.947451 0.074695
C26   C     C_R   0.494410 0.564255 0.041934 0.068317
C27   C     C_3   0.225460 0.322171 0.305564 0.084236
C28   C     C_3   0.361138 0.245097 0.251999 -0.785846
C29   C     C_3   0.811131 0.727719 0.676994 0.041946
C30   C     C_3   0.670668 0.793446 0.738290 -0.784633
C31   C     C_R   0.679079 0.495034 0.893917 -0.238123
C32   C     C_R   0.253758 0.634621 0.049950 -0.244781
C33   C     C_R   0.781714 0.481469 0.934334 -0.255918
C34   C     C_R   0.616683 0.936569 0.510323 -0.192041
C35   C     C_R   0.384761 0.063442 0.487574 -0.184841
C36   C     C_R   0.616438 0.064285 0.510421 -0.211123
H1    H     H_    0.149476 0.678812 0.089329 0.151571
H2    H     H_    0.719252 0.479450 0.819845 0.147919
H3    H     H_    0.706926 0.888466 0.519290 0.190686
H4    H     H_    0.294839 0.111589 0.478226 0.194834
H5    H     H_    0.706434 0.113098 0.519667 0.161610
H6    H     H_    0.294811 0.886830 0.478525 0.158564
H7    H     H_    0.923656 0.342871 0.412400 0.160848
H8    H     H_    0.078134 0.655463 0.588060 0.153494
H9    H     H_    0.242646 0.418183 0.275931 0.134160
H10   H     H_    0.130630 0.278128 0.295093 0.126107
H11   H     H_    0.344160 0.147006 0.276699 0.242331
H12   H     H_    0.892402 0.452735 0.891277 0.152163
H13   H     H_    0.382324 0.246849 0.176477 0.208026
H14   H     H_    0.458365 0.283541 0.262543 0.258266
H15   H     H_    0.900435 0.798561 0.653871 0.140058
H16   H     H_    0.836059 0.654690 0.719595 0.134997
H17   H     H_    0.577208 0.726997 0.759987 0.266841
H18   H     H_    0.683355 0.831323 0.801435 0.208276
H19   H     H_    0.646462 0.871442 0.699516 0.244610
H20   H     H_    0.445070 0.571160 0.225302 0.151772
H21   H     H_    0.544628 0.435279 0.782520 0.155226
H22   H     H_    0.870659 0.448354 0.200263 0.152740
H23   H     H_    0.140511 0.591867 0.792828 0.150983
H24   H     H_    0.077456 0.652603 0.956016 0.147847
H25   H     H_    0.950253 0.439137 0.030480 0.150704
H26   H     H_    0.324102 0.657673 0.160234 0.144520
N1    N     N_R   0.142780 0.500030 0.500020 -0.117858
N2    N     N_R   0.857220 0.499970 0.499980 -0.120295
O1    O     O_R   0.385370 0.683250 0.500010 -0.636690
O2    O     O_3   0.790830 0.675648 0.599118 -0.582437
O3    O     O_R   0.614630 0.316750 0.499990 -0.635404
O4    O     O_R   0.614700 0.683220 0.500000 -0.568211
O5    O     O_R   0.385300 0.316780 0.500000 -0.569558
O6    O     O_R   0.319830 0.500020 0.632250 -0.621386
O7    O     O_R   0.680170 0.499980 0.367750 -0.620241
O8    O     O_R   0.549160 0.499990 0.632240 -0.577334
O9    O     O_R   0.450840 0.500010 0.367760 -0.590601
O10   O     O_3   0.203602 0.323028 0.400924 -0.592885
Zn1   Zn    Zn3+2 0.346870 0.500020 0.500000 0.973614
Zn2   Zn    Zn3+2 0.653130 0.499980 0.500000 0.980153

loop_
_geom_bond_atom_site_label_1
_geom_bond_atom_site_label_2
_ccdc_geom_bond_type
C19   H20   S    
C2    C35   A    
C21   C26   A    
C28   H11   S    
C8    O2    S    
C9    O8    A    
O8    Zn2   S    
C11   C18   A    
C30   H18   S    
C22   C32   A    
C19   C21   A    
O7    Zn2   S    
C10   O9    A    
C20   C25   A    
C1    O4    A    
C28   H13   S    
C23   C26   A    
C3    C12   S    
C28   H14   S    
C23   H26   S    
C1    O1    A    
C31   C33   A    
C27   O10   S    
C18   C20   A    
C17   H22   S    
C10   O7    A    
C27   H9    S    
C5    H7    S    
C6    H8    S    
O9    Zn1   S    
C36   H5    S    
C12   O3    A    
C7    O10   S    
N2    Zn2   S    
C30   H17   S    
C4    C34   A    
C13   C19   A    
C34   H3    S    
C9    O6    A    
C5    C7    A    
C6    C8    A    
C25   C26   A    
C5    N2    A    
C16   H23   S    
C6    N1    A    
C2    C4    A    
C29   C30   S    
C11   C16   A    
C18   H21   S    
C3    C35   A    
C15   H25   S    
C32   H1    S    
C9    C11   S    
C7    N1    A    
C8    N2    A    
C27   H10   S    
C15   C24   A    
C12   O5    A    
C20   C22   A    
C14   C16   A    
C27   C28   S    
C29   H15   S    
C15   C17   A    
C25   C31   A    
C10   C13   S    
O4    Zn2   S    
C14   H24   S    
C30   H19   S    
C24   C33   A    
O1    Zn1   S    
C31   H2    S    
C13   C17   A    
C1    C4    S    
C23   C32   A    
C14   C22   A    
C35   H4    S    
N1    Zn1   S    
C3    C36   A    
C2    H6    S    
O5    Zn1   S    
C34   C36   A    
C29   O2    S    
C21   C24   A    
O6    Zn1   S    
C33   H12   S    
O3    Zn2   S    
C29   H16   S    
