data_mof_unit_20182.cif
_audit_creation_date              2012-12-10T18:00:43-0500
_audit_creation_method            fapswitch 2.2
_symmetry_space_group_name_H-M    P1
_symmetry_Int_Tables_number       1
_space_group_crystal_system       triclinic
_cell_length_a                    15.847462
_cell_length_b                    10.794788
_cell_length_c                    9.674661
_cell_angle_alpha                 90.486012
_cell_angle_beta                  90.747912
_cell_angle_gamma                 95.976365
_cell_volume                      1645.82807119

loop_
_atom_site_label
_atom_site_type_symbol
_atom_type_description
_atom_site_fract_x
_atom_site_fract_y
_atom_site_fract_z
_atom_type_partial_charge
C1    C     C_R   0.501386 0.262977 0.499295 0.789763
C2    C     C_R   0.499202 0.737154 0.500811 0.791215
C3    C     C_R   0.552976 0.940480 0.412186 -0.226163
C4    C     C_R   0.448886 0.059906 0.589130 -0.224905
C5    C     C_R   0.498932 0.871238 0.502693 -0.059345
C6    C     C_R   0.502502 0.129072 0.498070 -0.058978
C7    C     C_R   0.444110 0.418205 0.072363 0.227508
C8    C     C_R   0.555933 0.581776 0.927621 0.226409
C9    C     C_R   0.444006 0.418301 0.924019 0.246925
C10   C     C_R   0.556052 0.581646 0.075975 0.249646
C11   C     C_R   0.339948 0.497424 0.499064 0.797388
C12   C     C_R   0.659931 0.502228 0.500892 0.796871
C13   C     C_3   0.964600 0.411257 0.586127 0.429383
C14   C     C_3   0.033675 0.579342 0.409876 0.404276
C15   C     C_3   0.014357 0.381442 0.456769 0.387062
C16   C     C_3   0.984964 0.609727 0.540364 0.412325
C17   C     C_1   0.249813 0.492177 0.496648 -0.172408
C18   C     C_1   0.749727 0.505104 0.502944 -0.182154
C19   C     C_3   0.032715 0.518875 0.627482 -0.384044
C20   C     C_3   0.965250 0.471717 0.369565 -0.497184
C21   C     C_3   0.082175 0.488878 0.495650 -0.029527
C22   C     C_3   0.916628 0.502282 0.502174 -0.056955
C23   C     C_1   0.173949 0.488625 0.495039 0.067435
C24   C     C_1   0.825304 0.505959 0.503712 0.039772
C25   C     C_R   0.555920 0.069697 0.409121 0.172390
C26   C     C_R   0.446299 0.930832 0.592840 0.173870
Cu1   Cu    Cu3+1 0.500000 0.500020 0.640660 0.929391
Cu2   Cu    Cu3+1 0.500000 0.499980 0.359340 0.932223
H1    H     H_    0.933544 0.454244 0.267325 0.165750
H2    H     H_    0.060751 0.535264 0.732626 0.167425
H3    H     H_    0.594074 0.893401 0.345432 0.142905
H4    H     H_    0.407872 0.106990 0.656033 0.143341
N1    N     N_R   0.500020 0.500030 0.852070 -0.189751
N2    N     N_R   0.499980 0.499970 0.147930 -0.189484
O1    O     O_R   0.500000 0.319660 0.618740 -0.584295
O2    O     O_R   0.500000 0.680340 0.381260 -0.581379
O3    O     O_R   0.499990 0.319630 0.381170 -0.583026
O4    O     O_R   0.500010 0.680370 0.618830 -0.584217
O5    O     O_R   0.379080 0.500000 0.618760 -0.579676
O6    O     O_R   0.620920 0.500000 0.381240 -0.579954
O7    O     O_R   0.379080 0.499970 0.381190 -0.569035
O8    O     O_R   0.620920 0.500030 0.618810 -0.572026
O9    O     O_3   0.033915 0.260614 0.419434 -0.608187
C27   C     C_3   0.981611 0.214552 0.306965 0.056111
H5    H     H_    0.004842 0.260632 0.210120 0.163472
H6    H     H_    0.914148 0.231326 0.322808 0.125393
C28   C     C_3   0.983702 0.074099 0.291139 -0.342005
H7    H     H_    0.049427 0.053072 0.269313 0.221765
H8    H     H_    0.963047 0.027826 0.388859 0.203707
C29   C     C_3   0.924154 0.022678 0.173909 -0.940068
H9    H     H_    0.858781 0.047523 0.191163 0.256354
H10   H     H_    0.921350 0.919814 0.169739 0.248511
H11   H     H_    0.947047 0.060647 0.073189 0.261229
O10   O     O_3   0.959292 0.723541 0.589736 -0.612936
C30   C     C_3   0.025025 0.822349 0.583182 0.060965
H12   H     H_    0.994705 0.909894 0.596109 0.162262
H13   H     H_    0.055795 0.829076 0.481075 0.164994
C31   C     C_3   0.091243 0.816945 0.699450 -0.370528
H14   H     H_    0.058724 0.799577 0.799256 0.237644
H15   H     H_    0.131089 0.740356 0.678760 0.215537
C32   C     C_3   0.149230 0.938745 0.711031 -0.899329
H16   H     H_    0.185231 0.955927 0.614085 0.264925
H17   H     H_    0.194854 0.932952 0.798169 0.250770
H18   H     H_    0.111560 0.018019 0.731470 0.264434
O11   O     O_3   0.927761 0.329496 0.687235 -0.598994
C33   C     C_3   0.879287 0.226809 0.624094 0.076598
H19   H     H_    0.922320 0.158734 0.587944 0.174383
H20   H     H_    0.840175 0.255173 0.535617 0.124975
C34   C     C_3   0.819392 0.163124 0.730478 -0.336455
H21   H     H_    0.857009 0.132650 0.819428 0.224434
H22   H     H_    0.776478 0.230508 0.769092 0.231723
C35   C     C_3   0.765993 0.050024 0.667838 -0.918043
H23   H     H_    0.726514 0.078729 0.580416 0.263930
H24   H     H_    0.723298 0.005738 0.747528 0.261085
H25   H     H_    0.807592 0.980528 0.630184 0.262285
O12   O     O_3   0.077209 0.663561 0.317657 -0.612925
C36   C     C_3   0.019643 0.711166 0.224162 0.053856
H26   H     H_    0.041082 0.811249 0.209224 0.154256
H27   H     H_    0.953566 0.707279 0.263973 0.147579
C37   C     C_3   0.021579 0.645096 0.083350 -0.345231
H28   H     H_    0.081221 0.678427 0.029870 0.212979
H29   H     H_    0.021107 0.543065 0.097033 0.230348
C38   C     C_3   0.945627 0.669760 0.992702 -0.908150
H30   H     H_    0.885472 0.633361 0.042694 0.255151
H31   H     H_    0.949275 0.621964 0.891229 0.285103
H32   H     H_    0.945272 0.771209 0.975054 0.257257
C39   C     C_3   0.618166 0.141585 0.315066 -0.845931
H33   H     H_    0.658258 0.213958 0.375392 0.220235
H34   H     H_    0.661105 0.080085 0.265127 0.213416
H35   H     H_    0.583623 0.186165 0.231719 0.257880
C40   C     C_3   0.385442 0.859503 0.689512 -0.823082
H36   H     H_    0.343612 0.788028 0.630794 0.231118
H37   H     H_    0.421091 0.814156 0.770890 0.253088
H38   H     H_    0.344406 0.921747 0.742548 0.214825
C41   C     C_3   0.380912 0.324332 0.142515 -0.759441
H39   H     H_    0.393350 0.228255 0.113787 0.198307
H40   H     H_    0.381220 0.326135 0.254439 0.272960
H41   H     H_    0.315215 0.339837 0.111579 0.204158
C42   C     C_3   0.619189 0.675634 0.857460 -0.761540
H42   H     H_    0.606828 0.771745 0.886200 0.196266
H43   H     H_    0.684889 0.660072 0.888370 0.206362
H44   H     H_    0.618851 0.673906 0.745527 0.274187
C43   C     C_3   0.379722 0.325290 0.850307 -0.772822
H45   H     H_    0.380555 0.324302 0.738412 0.268017
H46   H     H_    0.390059 0.229050 0.880401 0.193697
H47   H     H_    0.314414 0.344056 0.877410 0.203592
C44   C     C_3   0.620458 0.674504 0.149676 -0.777384
H48   H     H_    0.619499 0.675670 0.261569 0.267853
H49   H     H_    0.685742 0.655446 0.122706 0.199613
H50   H     H_    0.610330 0.770785 0.119454 0.194695

loop_
_geom_bond_atom_site_label_1
_geom_bond_atom_site_label_2
_ccdc_geom_bond_type
C33   H20   S    
C30   H12   S    
C34   C35   S    
C41   H39   S    
C39   H33   S    
C41   H41   S    
C28   H8    S    
C13   O11   S    
C36   H26   S    
Cu1   N1    S    
C17   C23   T    
C18   C24   T    
C14   C21   S    
C19   C21   S    
C8    C42   S    
C35   H25   S    
C6    C25   A    
Cu2   O6    S    
Cu1   O4    S    
C31   H15   S    
Cu2   O7    S    
C25   C39   S    
C32   H17   S    
C34   H22   S    
C12   O8    A    
C43   H46   S    
C28   H7    S    
Cu1   O5    S    
C29   H10   S    
C44   H48   S    
C27   C28   S    
C1    O3    A    
C31   C32   S    
C33   H19   S    
Cu2   N2    S    
C9    N1    A    
C44   H49   S    
C10   C44   S    
C32   H16   S    
C37   C38   S    
C27   H6    S    
C28   C29   S    
C20   H1    S    
C36   H27   S    
C21   C23   S    
C15   C20   S    
C29   H11   S    
C13   C19   S    
C1    C6    S    
C14   C20   S    
C3    C25   A    
O12   C36   S    
C4    C6    A    
C40   H36   S    
C35   H23   S    
Cu1   O1    S    
C26   C40   S    
C14   O12   S    
C12   O6    A    
C32   H18   S    
C11   O5    A    
O9    C27   S    
C40   H37   S    
C2    O4    A    
C38   H30   S    
C9    C43   S    
C38   H32   S    
C29   H9    S    
C10   N2    A    
C3    H3    S    
C4    H4    S    
C35   H24   S    
C42   H43   S    
C20   C22   S    
C13   C15   S    
C44   H50   S    
C14   C16   S    
C39   H35   S    
C2    C5    S    
Cu1   Cu2   S    
C27   H5    S    
C1    O1    A    
C36   C37   S    
C2    O2    A    
C7    C9    A    
O10   C30   S    
C11   C17   S    
C16   C22   S    
C38   H31   S    
C37   H28   S    
C3    C5    A    
C4    C26   A    
C41   H40   S    
C7    C41   S    
C42   H42   S    
C30   H13   S    
C31   H14   S    
C15   O9    S    
C40   H38   S    
Cu1   O8    S    
Cu2   O3    S    
C16   C19   S    
C7    N2    A    
C37   H29   S    
C13   C22   S    
C11   O7    A    
C43   H47   S    
C22   C24   S    
C8    N1    A    
C34   H21   S    
C16   O10   S    
C5    C26   A    
C33   C34   S    
C15   C21   S    
C42   H44   S    
Cu2   O2    S    
C8    C10   A    
O11   C33   S    
C30   C31   S    
C12   C18   S    
C43   H45   S    
C39   H34   S    
C19   H2    S    
