data_mof_unit_67374.cif
_audit_creation_date              2013-03-05T16:08:41-0500
_audit_creation_method            fapswitch 2.2
_symmetry_space_group_name_H-M    P1
_symmetry_Int_Tables_number       1
_space_group_crystal_system       triclinic
_cell_length_a                    8.224073
_cell_length_b                    15.238553
_cell_length_c                    16.613952
_cell_angle_alpha                 112.193459
_cell_angle_beta                  97.666441
_cell_angle_gamma                 81.5344
_cell_volume                      1899.95651841

loop_
_atom_site_label
_atom_site_type_symbol
_atom_site_description
_atom_site_fract_x
_atom_site_fract_y
_atom_site_fract_z
_atom_type_partial_charge
P1    P     P_3+3 0.592580 0.619750 0.703570 0.484845
O1    O     O_2   0.428380 0.595300 0.716110 -0.353662
O2    O     O_3   0.649320 0.571650 0.606870 -0.393679
O3    O     O_3   0.202060 0.415880 0.655570 -0.380467
O4    O     O_2   0.349296 0.518289 0.807540 -0.383371
O5    O     O_3   0.531698 0.739059 0.714969 -0.545123
O6    O     O_3   0.304868 0.349264 0.793276 -0.523006
H1    H     H_    0.117413 0.267598 0.720835 0.085736
C1    C     C_3   0.264249 0.204821 0.807659 -0.082833
H2    H     H_    0.334853 0.155907 0.752286 0.136748
H3    H     H_    0.352498 0.228432 0.866691 0.139111
P2    P     P_3+3 0.156510 0.273300 0.422380 0.517443
P3    P     P_3+3 0.661323 0.241770 0.606932 0.478991
O7    O     O_2   0.338790 0.265210 0.448200 -0.292683
O8    O     O_3   0.612600 0.359140 0.609510 -0.406610
O9    O     O_2   0.510857 0.188473 0.557449 -0.355913
O10   O     O_3   0.171070 0.227594 0.308590 -0.507105
O11   O     O_3   0.659392 0.244158 0.713022 -0.510712
C2    C     C_3   0.713189 0.330431 0.772392 0.543813
H4    H     H_    0.620690 0.391136 0.771661 0.147680
H5    H     H_    0.833626 0.341726 0.756636 -0.031341
C3    C     C_3   0.732661 0.328070 0.863944 -0.951241
H6    H     H_    0.612925 0.318335 0.881724 0.272667
H7    H     H_    0.825304 0.268507 0.867340 0.296032
C4    C     C_3   0.536240 0.208508 0.189499 0.596816
H8    H     H_    0.422596 0.252810 0.179127 0.045906
C5    C     C_3   0.642736 0.184581 0.113143 -0.974985
H9    H     H_    0.725644 0.117838 0.103725 0.287926
H10   H     H_    0.562804 0.175689 0.051752 0.262187
H11   H     H_    0.719388 0.242081 0.124783 0.251700
Ba1   Ba    Ba6+2 0.364200 0.465260 0.540900 1.587261
C6    C     C_3   0.633981 0.802107 0.778764 0.446885
H12   H     H_    0.749820 0.764638 0.796625 -0.005891
C7    C     C_3   0.547645 0.852392 0.863438 -0.156585
H13   H     H_    0.436309 0.899809 0.854495 0.148668
H14   H     H_    0.505253 0.797534 0.882288 0.111656
C8    C     C_3   0.016495 0.206400 0.262086 0.595246
H15   H     H_    0.920249 0.261592 0.293882 0.115192
C9    C     C_3   0.971063 0.109182 0.255024 -0.927695
H16   H     H_    0.046965 0.049435 0.209549 0.290138
H17   H     H_    0.841620 0.101339 0.229051 0.226674
H18   H     H_    0.982039 0.101121 0.318558 0.227929
P4    P     P_3+3 0.597130 0.380170 0.296420 0.453734
O12   O     O_2   0.761310 0.404660 0.283830 -0.381146
O13   O     O_3   0.540390 0.428270 0.393120 -0.404265
O14   O     O_3   0.987650 0.584040 0.344420 -0.349909
O15   O     O_3   0.625440 0.255627 0.270384 -0.587983
P5    P     P_3+3 0.543574 0.759464 0.400128 0.482685
O16   O     O_3   0.122130 0.620580 0.549200 -0.396501
O17   O     O_3   0.577110 0.640790 0.390470 -0.379176
O18   O     O_2   0.699405 0.807428 0.448878 -0.377900
O19   O     O_3   0.539481 0.765891 0.296672 -0.512751
Ba2   Ba    Ba6+2 0.825630 0.534670 0.459090 1.578554
P6    P     P_3+3 0.215576 0.448883 0.769012 0.446339
C10   C     C_3   0.182146 0.291828 0.787567 0.185955
H19   H     H_    0.092619 0.331460 0.836774 0.067463
O20   O     O_3   0.067580 0.379340 0.450790 -0.423528
C11   C     C_3   0.057051 0.720477 0.730167 0.375530
H20   H     H_    0.940230 0.687138 0.710232 0.049746
H21   H     H_    0.158004 0.664092 0.705627 0.163346
C12   C     C_3   0.087672 0.762334 0.829183 -0.877160
H22   H     H_    0.998351 0.825578 0.857403 0.272226
H23   H     H_    0.076123 0.708169 0.857139 0.237661
H24   H     H_    0.213876 0.784739 0.847613 0.252280
P7    P     P_3+3 0.040833 0.741289 0.582698 0.474411
O21   O     O_2   0.850900 0.734750 0.551740 -0.339062
O22   O     O_3   0.051970 0.792709 0.696716 -0.560222
H25   H     H_    0.774259 0.396001 0.911668 0.203631
C13   C     C_3   0.495631 0.679943 0.232181 0.350107
H26   H     H_    0.589599 0.620469 0.233952 0.142989
H27   H     H_    0.374255 0.663869 0.242025 -0.039334
C14   C     C_3   0.489911 0.686816 0.142235 -0.109628
H28   H     H_    0.606479 0.711140 0.135411 0.170876
H29   H     H_    0.479550 0.615082 0.090996 0.076089
P8    P     P_3+3 0.971663 0.558506 0.233068 0.438220
C15   C     C_3   0.017538 0.727841 0.249935 0.377005
H30   H     H_    0.110590 0.706819 0.201787 0.107245
O23   O     O_2   0.833066 0.492573 0.192665 -0.418401
O24   O     O_3   0.895092 0.664901 0.217738 -0.518691
H31   H     H_    0.078255 0.729130 0.314399 0.065199
H32   H     H_    0.036924 0.878274 0.285197 0.221020
C16   C     C_3   0.940079 0.828443 0.261584 -0.783595
H33   H     H_    0.846933 0.851776 0.310219 0.268006
H34   H     H_    0.879426 0.830736 0.198431 0.273585
C17   C     C_2   0.292187 0.481929 0.248821 -0.447718
C18   C     C_R   0.896304 0.535029 0.755568 -0.477047
C19   C     C_2   0.491345 0.411672 0.139808 -0.311011
C20   C     C_2   0.452411 0.427559 0.220865 0.283204
C21   C     C_2   0.172097 0.500112 0.191167 0.144030
C22   C     C_3   0.195021 0.456572 0.094106 0.027213
C23   C     C_3   0.377085 0.447587 0.077430 -0.006379
C24   C     C_2   0.072821 0.497759 0.036472 -0.181710
C25   C     C_2   0.112623 0.510398 0.965502 -0.106855
C26   C     C_R   0.833001 0.585288 0.928559 0.091806
C27   C     C_R   0.986934 0.535907 0.901918 -0.029634
C28   C     C_R   0.713408 0.609938 0.869975 -0.265263
C29   C     C_R   0.745112 0.585412 0.782921 0.216575
C30   C     C_R   0.017888 0.510633 0.813648 0.156672
H35   H     H_    0.610817 0.377436 0.118800 0.178779
H36   H     H_    0.596515 0.647662 0.892728 0.168536
H37   H     H_    0.272071 0.505441 0.317311 0.184033
H38   H     H_    0.921617 0.517747 0.688915 0.153037
H39   H     H_    0.943562 0.507429 0.048084 0.169489
H40   H     H_    0.240238 0.495676 0.950493 0.180084
C31   C     C_R   0.357845 0.821715 0.457808 0.208228
C32   C     C_R   0.292464 0.914639 0.463659 -0.103116
C33   C     C_R   0.153830 0.099914 0.466929 -0.226507
C34   C     C_R   0.299072 0.052106 0.423776 0.429163
C35   C     C_R   0.368794 0.964924 0.427533 -0.218864
C36   C     C_R   0.083524 0.195167 0.475026 0.169535
H41   H     H_    0.481852 0.934975 0.396501 0.213660
C37   C     C_R   0.945276 0.233866 0.523950 -0.201165
C38   C     C_R   0.131260 0.811746 0.533410 0.218744
C39   C     C_R   0.064298 0.904862 0.539411 -0.022250
C40   C     C_R   0.144140 0.956240 0.503059 0.033925
C41   C     C_R   0.918911 0.947497 0.579838 -0.045694
C42   C     C_R   0.849429 0.036695 0.581886 -0.084277
C43   C     C_R   0.926258 0.089109 0.547053 -0.000569
C44   C     C_R   0.075644 0.049089 0.506258 0.014005
C45   C     C_R   0.859495 0.181569 0.554491 0.166363
C46   C     C_R   0.276064 0.771427 0.492213 -0.453021
H42   H     H_    0.735986 0.064568 0.613108 0.165681
H43   H     H_    0.855913 0.912598 0.610317 0.161393
H44   H     H_    0.326649 0.700145 0.487641 0.185793
N1    N     N_2   0.676370 0.869901 0.744273 -0.099592
H45   H     H_    0.774033 0.907522 0.778255 0.215137
C47   C     C_3   0.542631 0.925933 0.713425 -0.759419
H46   H     H_    0.485266 0.983324 0.769355 0.245970
H47   H     H_    0.447560 0.880471 0.670894 0.254602
H48   H     H_    0.591726 0.959821 0.674529 0.219603
N2    N     N_R   0.661677 0.906699 0.933573 0.232157
O25   O     O_R   0.724997 0.874811 0.994630 -0.391794
O26   O     O_R   0.697960 0.988184 0.936559 -0.410571
N3    N     N_2   0.018746 0.205895 0.174692 -0.129377
H49   H     H_    0.059196 0.143178 0.126761 0.197347
C48   C     C_3   0.050763 0.292162 0.165388 -0.785345
H50   H     H_    0.163964 0.279058 0.131550 0.213941
H51   H     H_    0.064433 0.350989 0.229691 0.258412
H52   H     H_    0.947970 0.313783 0.124162 0.255718
N4    N     N_R   0.141353 0.154331 0.823067 0.239139
O27   O     O_R   0.142974 0.147041 0.898714 -0.393710
O28   O     O_R   0.032880 0.113632 0.760522 -0.411110
N5    N     N_R   0.350831 0.752881 0.129120 0.257655
O29   O     O_R   0.344690 0.843030 0.177415 -0.330475
O30   O     O_R   0.238958 0.723325 0.064606 -0.400050
N6    N     N_R   0.371591 0.081525 0.366094 0.260318
O31   O     O_R   0.318697 0.046870 0.284472 -0.393031
O32   O     O_R   0.524981 0.099518 0.384060 -0.405472
N7    N     N_2   0.881182 0.327971 0.539984 -0.143037
H53   H     H_    0.956461 0.380847 0.570032 0.197077
C49   C     C_3   0.758569 0.339087 0.474417 -0.480901
H54   H     H_    0.698267 0.411204 0.504181 0.282200
H55   H     H_    0.666775 0.286534 0.455547 0.246826
H56   H     H_    0.812151 0.329722 0.415054 0.204080
N8    N     N_2   0.483630 0.121866 0.190181 -0.066472
H57   H     H_    0.570521 0.082721 0.217294 0.237770
C50   C     C_3   0.395265 0.063446 0.110793 -0.740476
H58   H     H_    0.316757 0.019352 0.125746 0.292674
H59   H     H_    0.483988 0.014972 0.064918 0.279721
H60   H     H_    0.316052 0.107997 0.078229 0.222624

loop_
_geom_bond_atom_site_label_1
_geom_bond_atom_site_label_2
_geom_bond_distance
_ccdc_geom_bond_type
C14   N5    1.459274 S    
O5    C6    1.408833 S    
C10   H19   1.109892 S    
C50   H58   1.107571 S    
C41   H43   1.078075 S    
C19   C23   1.507901 S    
C5    H10   1.110729 S    
C2    H4    1.110594 S    
C15   O24   1.404678 S    
O6    C10   1.401963 S    
O7    Ba1   2.874643 S    
C19   C20   1.349296 D    
P2    C36   1.918374 S    
C39   C40   1.422421 A    
C27   C30   1.416984 A    
C9    H17   1.099853 S    
C34   C35   1.387981 A    
O16   P7    1.761827 S    
P3    O11   1.751299 S    
P4    C20   1.883310 S    
C2    H5    1.110229 S    
N4    O28   1.299587 A    
C7    H13   1.110219 S    
C13   H26   1.107852 S    
N7    C49   1.424146 S    
N6    O32   1.301989 A    
C1    N4    1.458013 S    
N8    C50   1.451883 S    
C11   H21   1.099744 S    
N5    O29   1.300450 A    
P1    Ba1   3.393356 S    
C41   C42   1.384480 A    
H1    C10   1.113579 S    
C13   H27   1.108583 S    
P1    O1    1.512491 D    
C49   H56   1.085519 S    
C12   H23   1.109287 S    
C18   C29   1.395768 A    
C43   C44   1.424767 A    
C46   H44   1.082505 S    
O19   C13   1.403296 S    
C24   H39   1.084475 S    
C38   C39   1.415740 A    
O12   Ba2   2.867530 S    
P4    Ba2   3.393970 S    
P5    O18   1.544097 D    
P7    O22   1.750488 S    
P2    O10   1.764809 S    
C49   H54   1.092054 S    
C1    C10   1.528363 S    
C1    H2    1.111807 S    
C4    O15   1.422207 S    
C34   N6    1.425078 S    
C11   C12   1.523307 S    
P5    O17   1.737228 S    
O13   Ba2   2.902487 S    
C25   C27   1.495361 S    
C5    H11   1.097567 S    
C26   C27   1.407906 A    
Ba1   O16   2.832601 S    
C48   H52   1.107400 S    
C25   H40   1.082700 S    
C33   C44   1.442681 A    
O14   P8    1.731334 S    
H32   C16   1.111089 S    
C9    H18   1.098505 S    
C19   H35   1.078152 S    
C3    H6    1.110254 S    
C36   C37   1.410016 A    
O17   Ba2   2.808920 S    
P1    O5    1.757607 S    
O4    P6    1.543027 D    
C2    C3    1.521565 S    
C15   H30   1.107111 S    
C14   H29   1.109917 S    
P1    C29   1.863350 S    
C9    H16   1.108256 S    
C37   C45   1.398845 A    
Ba2   O20   2.832132 S    
O11   C2    1.404349 S    
N3    C48   1.444871 S    
C11   H20   1.105665 S    
Ba1   Ba2   4.583771 S    
O1    Ba1   2.866902 S    
P1    O2    1.595544 S    
C6    C7    1.536965 S    
C6    N1    1.457289 S    
C50   H59   1.106031 S    
C12   H24   1.108215 S    
C26   C28   1.402780 A    
C42   H42   1.079767 S    
C47   H47   1.110314 S    
C8    H15   1.092182 S    
C1    H3    1.112861 S    
C22   C24   1.527191 S    
P5    C31   1.851608 S    
C33   C34   1.431515 A    
C28   C29   1.401077 A    
C31   C46   1.396979 A    
O10   C8    1.409818 S    
N4    O27   1.301021 A    
O2    Ba1   2.901576 S    
Ba2   O21   2.874755 S    
P4    O13   1.595544 S    
C3    H25   1.108646 S    
P2    O20   1.592716 S    
C48   H51   1.109812 S    
P2    O7    1.503472 D    
C7    N2    1.459633 S    
C16   H33   1.110871 S    
C50   H60   1.109592 S    
C16   H34   1.110783 S    
P3    O8    1.759825 S    
P4    O12   1.512888 D    
N1    H45   1.030815 S    
C33   C36   1.444108 A    
C3    H7    1.109558 S    
C15   C16   1.521406 S    
N2    O25   1.301250 A    
C18   H38   1.078893 S    
C5    H9    1.108096 S    
P3    C45   1.895174 S    
C17   H37   1.084122 S    
N6    O31   1.294699 A    
C17   C20   1.479730 S    
N5    O30   1.300908 A    
C17   C21   1.355432 D    
O3    P6    1.749837 S    
C8    N3    1.451640 S    
P7    C38   1.854228 S    
P6    C30   1.850055 S    
C15   H31   1.114043 S    
C13   C14   1.531123 S    
C14   H28   1.111147 S    
N2    O26   1.300749 A    
C39   C41   1.399546 A    
O8    Ba1   2.808252 S    
N3    H49   1.029713 S    
C4    C5    1.536974 S    
C31   C32   1.410484 A    
C40   C44   1.427778 A    
C32   C40   1.410758 A    
C6    H12   1.101844 S    
Ba1   O20   2.896805 S    
C35   H41   1.078811 S    
C4    H8    1.103672 S    
C47   H48   1.109234 S    
P2    Ba1   3.402023 S    
N7    H53   1.020913 S    
O2    Ba2   2.848176 S    
C22   C23   1.535934 S    
P8    O24   1.748885 S    
O16   Ba2   2.895918 S    
C28   H36   1.080564 S    
O14   Ba2   2.833054 S    
C24   C25   1.351891 D    
C7    H14   1.109573 S    
C49   H55   1.111179 S    
C12   H22   1.109202 S    
C18   C30   1.404719 A    
P8    O23   1.543633 D    
C43   C45   1.400245 A    
O3    Ba1   2.833737 S    
P8    C21   1.843887 S    
C4    N8    1.453037 S    
C11   O22   1.401634 S    
P5    O19   1.753803 S    
C38   C46   1.395889 A    
C8    C9    1.538841 S    
P7    O21   1.583394 D    
Ba1   O13   2.847557 S    
P3    O9    1.544935 D    
N8    H57   1.030050 S    
N1    C47   1.450921 S    
C37   N7    1.389803 S    
C48   H50   1.105769 S    
O6    P6    1.749676 S    
C21   C22   1.520565 S    
C42   C43   1.402651 A    
P4    O15   1.766279 S    
C47   H46   1.110147 S    
C32   C35   1.389618 A    
