data_mof_unit_58845.cif
_audit_creation_date              2013-03-05T16:16:00-0500
_audit_creation_method            fapswitch 2.2
_symmetry_space_group_name_H-M    P1
_symmetry_Int_Tables_number       1
_space_group_crystal_system       triclinic
_cell_length_a                    8.614614
_cell_length_b                    19.211497
_cell_length_c                    22.86143
_cell_angle_alpha                 98.583441
_cell_angle_beta                  89.611782
_cell_angle_gamma                 94.972301
_cell_volume                      3727.02869227

loop_
_atom_site_label
_atom_site_type_symbol
_atom_site_description
_atom_site_fract_x
_atom_site_fract_y
_atom_site_fract_z
_atom_type_partial_charge
P1    P     P_3+3 0.069200 0.440380 0.368230 0.529826
O1    O     O_2   0.898140 0.461210 0.359840 -0.358169
O2    O     O_3   0.138540 0.461940 0.430900 -0.415318
O3    O     O_3   0.654260 0.589640 0.397760 -0.353426
O4    O     O_2   0.748675 0.526393 0.294959 -0.330670
O5    O     O_3   0.066665 0.348747 0.337875 -0.486787
O6    O     O_3   0.708605 0.658367 0.296664 -0.514276
C1    C     C_3   0.627744 0.769644 0.275358 -0.642623
H1    H     H_    0.741941 0.800476 0.281847 0.236127
P2    P     P_3+3 0.634560 0.662100 0.548650 0.529883
P3    P     P_3+3 0.102086 0.717631 0.432650 0.431495
O7    O     O_2   0.809910 0.672460 0.531740 -0.327433
O8    O     O_3   0.065030 0.625960 0.427320 -0.364673
O9    O     O_2   0.969048 0.745781 0.471766 -0.398551
O10   O     O_3   0.612071 0.704602 0.623288 -0.653588
O11   O     O_3   0.050072 0.744537 0.365544 -0.497282
C2    C     C_3   0.174374 0.743972 0.325009 0.281172
H2    H     H_    0.286122 0.764269 0.348174 0.021975
C3    C     C_3   0.145568 0.793566 0.278412 0.150495
C4    C     C_3   0.191806 0.685917 0.602662 0.209901
H3    H     H_    0.311030 0.673622 0.589003 0.041320
H4    H     H_    0.111239 0.668413 0.564555 0.112577
C5    C     C_3   0.188968 0.766851 0.620899 0.030233
H5    H     H_    0.225936 0.793010 0.582694 0.074769
Ba1   Ba    Ba6+2 0.849480 0.533290 0.473010 1.604395
C6    C     C_3   0.022619 0.297070 0.374352 0.217925
C7    C     C_3   0.046567 0.220726 0.341220 0.082564
H6    H     H_    0.985594 0.182222 0.367562 0.078312
C8    C     C_3   0.656888 0.678270 0.674735 0.509749
C9    C     C_3   0.650343 0.739515 0.727205 -0.079834
H7    H     H_    0.741335 0.782529 0.721154 0.125774
H8    H     H_    0.537929 0.762461 0.727173 0.190888
P4    P     P_3+3 0.120500 0.559680 0.631780 0.595860
O12   O     O_2   0.291560 0.538810 0.640200 -0.421683
O13   O     O_3   0.051160 0.538120 0.569110 -0.333663
O14   O     O_3   0.535440 0.410410 0.602240 -0.330250
O15   O     O_3   0.148346 0.652035 0.651067 -0.471998
P5    P     P_3+3 0.094508 0.280711 0.569352 0.517232
O16   O     O_3   0.632100 0.415050 0.468960 -0.348569
O17   O     O_3   0.124670 0.374100 0.572690 -0.307165
O18   O     O_2   0.234216 0.249390 0.535086 -0.392134
O19   O     O_3   0.122010 0.258166 0.639972 -0.522347
Ba2   Ba    Ba6+2 0.340340 0.466770 0.527000 1.651834
P6    P     P_3+3 0.633114 0.579714 0.320505 0.483339
C10   C     C_3   0.608814 0.711731 0.315186 0.471427
H9    H     H_    0.484810 0.690761 0.311641 0.028487
H10   H     H_    0.542227 0.808667 0.288956 0.205253
O20   O     O_3   0.557600 0.585010 0.531050 -0.374708
C11   C     C_3   0.555330 0.352319 0.337783 0.203085
H11   H     H_    0.668052 0.383190 0.348256 0.134181
C12   C     C_3   0.555661 0.324902 0.269308 0.076564
P7    P     P_3+3 0.555233 0.325010 0.448809 0.439014
O21   O     O_2   0.379790 0.327560 0.468300 -0.362225
O22   O     O_3   0.538253 0.296062 0.371432 -0.619714
C13   C     C_3   0.989343 0.270345 0.675175 0.204669
H12   H     H_    0.880040 0.257527 0.648834 0.087883
C14   C     C_3   0.977048 0.220664 0.722935 0.329410
H13   H     H_    0.886732 0.238694 0.755461 0.054521
P8    P     P_3+3 0.557779 0.429635 0.680004 0.503002
C15   C     C_3   0.469816 0.297652 0.679277 0.468370
H14   H     H_    0.459307 0.294984 0.630521 0.130944
O23   O     O_2   0.397205 0.447961 0.706169 -0.424796
O24   O     O_3   0.587242 0.348932 0.703442 -0.540571
H15   H     H_    0.357299 0.309260 0.700783 0.150293
H16   H     H_    0.621057 0.212370 0.669217 0.226097
C16   C     C_3   0.509571 0.225424 0.690986 -0.795275
H17   H     H_    0.416535 0.184639 0.672440 0.271570
H18   H     H_    0.520308 0.224967 0.739336 0.286598
H19   H     H_    0.106965 0.331667 0.032716 0.185512
C17   C     C_R   0.324941 0.523233 0.331722 -0.550614
C18   C     C_R   0.058854 0.569667 0.945836 -0.089532
C19   C     C_R   0.014096 0.567115 0.885897 0.576350
O25   O     O_2   0.006848 0.622093 0.865557 -0.489085
N1    N     N_R   0.976973 0.503081 0.850265 -0.179104
C20   C     C_R   0.984531 0.440500 0.873032 0.541767
O26   O     O_2   0.948201 0.384592 0.841381 -0.570550
C21   C     C_R   0.033798 0.440769 0.932622 -0.053100
C22   C     C_R   0.069684 0.506402 0.969306 -0.035117
C23   C     C_R   0.092495 0.634470 0.982809 -0.129391
C24   C     C_R   0.135420 0.637626 0.042388 0.068929
C25   C     C_R   0.147846 0.574505 0.066822 -0.067324
C26   C     C_R   0.116011 0.508915 0.029697 -0.025732
C27   C     C_R   0.048180 0.377686 0.956884 0.079495
C28   C     C_R   0.096895 0.380891 0.015816 -0.153997
C29   C     C_R   0.130451 0.445692 0.052779 -0.084247
C30   C     C_R   0.177554 0.448223 0.112447 0.621739
N2    N     N_R   0.203046 0.512201 0.149476 -0.160767
C31   C     C_R   0.189861 0.574762 0.127187 0.566169
C32   C     C_2   0.775104 0.489865 0.773042 -0.134623
C33   C     C_3   0.722533 0.496449 0.710551 0.176616
C34   C     C_1   0.000397 0.518119 0.686956 0.347728
C35   C     C_2   0.046200 0.516400 0.742215 -0.221194
C36   C     C_2   0.928299 0.501883 0.788871 0.129605
C37   C     C_R   0.392331 0.543916 0.232764 -0.255677
C38   C     C_R   0.433830 0.547360 0.292428 0.180298
C39   C     C_R   0.180444 0.489484 0.313291 0.224808
C40   C     C_R   0.137525 0.485231 0.252299 0.300939
C41   C     C_R   0.243512 0.514286 0.211949 0.032565
O27   O     O_2   0.195713 0.393305 0.131453 -0.501039
O28   O     O_2   0.213430 0.630722 0.160176 -0.609661
C42   C     C_2   0.858082 0.493624 0.668538 -0.233048
H20   H     H_    0.476108 0.563520 0.202298 0.173701
H21   H     H_    0.084667 0.683708 0.965676 0.186083
H22   H     H_    0.168323 0.527408 0.754374 0.174598
H23   H     H_    0.687811 0.480947 0.806203 0.151234
H24   H     H_    0.357776 0.525525 0.377106 0.168978
H25   H     H_    0.828362 0.488662 0.622121 0.215769
N3    N     N_R   0.541466 0.035942 0.457663 -0.056976
N4    N     N_R   0.488766 0.968563 0.457472 -0.046506
C43   C     C_2   0.414607 0.704774 0.477755 -0.312622
C44   C     C_3   0.285656 0.753402 0.475805 0.057792
C45   C     C_2   0.345747 0.829041 0.473690 -0.122443
C46   C     C_2   0.495369 0.850659 0.491137 0.042483
C47   C     C_2   0.591318 0.797907 0.515246 -0.115576
C48   C     C_1   0.542467 0.727821 0.509041 0.314989
N5    N     N_R   0.692600 0.954037 0.519620 -0.041700
N6    N     N_R   0.746020 0.021407 0.519694 -0.039788
C49   C     C_R   0.670794 0.064139 0.489148 0.190184
C50   C     C_R   0.560984 0.926063 0.489286 0.198414
C51   C     C_R   0.624411 0.188366 0.473278 -0.255641
C52   C     C_R   0.661271 0.261792 0.485680 0.148402
C53   C     C_R   0.905050 0.241389 0.532753 0.086708
C54   C     C_R   0.866150 0.168322 0.520909 -0.278480
C55   C     C_R   0.721928 0.141053 0.493758 0.039467
C56   C     C_R   0.796526 0.286992 0.518912 0.036151
H26   H     H_    0.518869 0.168511 0.448640 0.171130
H27   H     H_    0.946151 0.133182 0.534388 0.203776
N7    N     N_3   0.644067 0.742213 0.376472 -0.185254
H28   H     H_    0.574234 0.783827 0.387815 0.050782
H29   H     H_    0.759569 0.764024 0.379515 0.217032
N8    N     N_R   0.296563 0.793584 0.669788 0.264279
O29   O     O_R   0.410401 0.840573 0.662534 -0.388057
O30   O     O_R   0.265072 0.779407 0.722765 -0.319419
N9    N     N_3   0.032815 0.787330 0.636912 -0.185624
H30   H     H_    0.952894 0.759252 0.606460 0.122078
H31   H     H_    0.002504 0.773376 0.678128 0.217939
N10   N     N_3   0.860489 0.298444 0.388441 -0.241863
H32   H     H_    0.802400 0.287680 0.348340 0.162278
H33   H     H_    0.842905 0.349704 0.407633 0.148452
N11   N     N_3   0.112448 0.309120 0.428566 -0.165820
H34   H     H_    0.097880 0.263004 0.447397 0.083249
H35   H     H_    0.068611 0.348316 0.458866 0.193046
N12   N     N_R   0.977240 0.207420 0.281915 0.278535
O31   O     O_R   0.030485 0.242893 0.240795 -0.213339
O32   O     O_R   0.873756 0.154108 0.268049 -0.379478
N13   N     N_3   0.210084 0.205579 0.337400 -0.144719
H36   H     H_    0.245867 0.192857 0.377841 0.110629
H37   H     H_    0.277102 0.251049 0.330533 0.201625
N14   N     N_R   0.812730 0.656770 0.669902 0.183147
O33   O     O_R   0.844694 0.616108 0.622264 -0.428912
O34   O     O_R   0.897393 0.658117 0.717092 -0.382201
N15   N     N_3   0.549922 0.619128 0.685373 -0.189431
H38   H     H_    0.552544 0.580485 0.648186 0.158825
H39   H     H_    0.438932 0.637168 0.689923 0.171111
N16   N     N_R   0.670331 0.717006 0.784927 0.281490
O35   O     O_R   0.562514 0.675721 0.805588 -0.360045
O36   O     O_R   0.786015 0.745501 0.819143 -0.261502
N17   N     N_3   0.433442 0.398950 0.352321 -0.201524
H40   H     H_    0.335782 0.368972 0.364277 0.183288
H41   H     H_    0.467885 0.434009 0.390141 0.137736
N18   N     N_R   0.397844 0.300335 0.245960 0.244205
O37   O     O_R   0.294782 0.345484 0.243785 -0.338023
O38   O     O_R   0.366714 0.236028 0.218947 -0.332505
N19   N     N_3   0.619023 0.382768 0.238545 -0.141998
H42   H     H_    0.545598 0.423560 0.245099 0.150503
H43   H     H_    0.618373 0.365167 0.192963 0.175991
N20   N     N_3   0.658162 0.267284 0.257252 -0.154916
H44   H     H_    0.666593 0.251790 0.211561 0.194197
H45   H     H_    0.609570 0.223250 0.275021 0.201020
N21   N     N_3   0.603578 0.739706 0.213166 -0.176046
H46   H     H_    0.607178 0.781675 0.188719 0.154666
H47   H     H_    0.697580 0.710724 0.198910 0.179944
N22   N     N_3   0.286433 0.802757 0.243272 -0.221294
H48   H     H_    0.304826 0.754350 0.217834 0.166449
H49   H     H_    0.267435 0.837095 0.213058 0.156291
N23   N     N_3   0.996766 0.344813 0.701423 -0.174723
H50   H     H_    0.900718 0.353000 0.728914 0.157507
H51   H     H_    0.098463 0.358747 0.726533 0.175487
N24   N     N_R   0.124435 0.222070 0.755208 0.242031
O39   O     O_R   0.195616 0.164839 0.754196 -0.308433
O40   O     O_R   0.171773 0.277451 0.792737 -0.413631
N25   N     N_R   0.926673 0.148384 0.695347 0.243616
O41   O     O_R   0.008193 0.115745 0.653374 -0.332501
O42   O     O_R   0.799272 0.116248 0.712686 -0.355069
N26   N     N_3   0.186284 0.672000 0.294776 -0.210049
H52   H     H_    0.217204 0.642150 0.326296 0.088471
H53   H     H_    0.076242 0.649469 0.279781 0.178434
N27   N     N_3   0.014437 0.309611 0.922059 -0.126398
H54   H     H_    0.926362 0.281867 0.943126 0.140358
H55   H     H_    0.114263 0.282153 0.921176 0.172001
N28   N     N_3   0.166578 0.705672 0.077572 -0.165893
H56   H     H_    0.066687 0.732936 0.077452 0.123708
H57   H     H_    0.256283 0.733674 0.057525 0.131549
N29   N     N_R   0.990059 0.451027 0.230666 0.260501
O43   O     O_R   0.907754 0.479740 0.194703 -0.415435
O44   O     O_R   0.951761 0.385917 0.237665 -0.293111
N30   N     N_3   0.238303 0.879266 0.463895 -0.172992
H58   H     H_    0.145224 0.875012 0.493084 0.155334
H59   H     H_    0.195225 0.866004 0.420880 0.201242
N31   N     N_3   0.713284 0.827892 0.556163 -0.186010
H60   H     H_    0.817433 0.807467 0.543068 0.166858
H61   H     H_    0.684699 0.818861 0.598897 0.188747
N32   N     N_3   0.399274 0.635445 0.446171 -0.149301
H62   H     H_    0.366116 0.640659 0.403594 0.086426
H63   H     H_    0.312500 0.606011 0.466288 0.159187
N33   N     N_R   0.809931 0.356809 0.549177 0.237256
O45   O     O_R   0.879175 0.407230 0.524177 -0.370749
O46   O     O_R   0.809095 0.363023 0.606276 -0.471508
N34   N     N_3   0.019000 0.762372 0.237458 -0.212805
H64   H     H_    0.972163 0.801870 0.217929 0.125777
H65   H     H_    0.931391 0.737140 0.260132 0.175198
N35   N     N_R   0.107568 0.863035 0.309163 0.255327
O47   O     O_R   0.207838 0.918173 0.311570 -0.373724
O48   O     O_R   0.974789 0.869912 0.335946 -0.399631

loop_
_geom_bond_atom_site_label_1
_geom_bond_atom_site_label_2
_geom_bond_distance
_ccdc_geom_bond_type
C42   H25   1.081649 S    
N29   O44   1.298680 A    
N2    C31   1.387216 Am   
N16   O36   1.301104 A    
C12   N20   1.468328 S    
C44   C45   1.507366 S    
N32   H62   1.037735 S    
O14   P8    1.769281 S    
C23   H21   1.083882 S    
N7    H28   1.042912 S    
Ba1   Ba2   4.745077 S    
C18   C23   1.405369 A    
C47   C48   1.362256 D    
N26   H52   1.035127 S    
C54   C55   1.415591 A    
N20   H45   1.046326 S    
C21   C22   1.417428 A    
P7    O21   1.575564 D    
N10   H33   1.039821 S    
O2    Ba2   2.796502 S    
C6    C7    1.576759 S    
C23   C24   1.404943 A    
C15   O24   1.404071 S    
O6    C10   1.409833 S    
N19   H42   1.042255 S    
N11   H35   1.038994 S    
P5    O19   1.755542 S    
C6    N11   1.443904 S    
P2    O10   1.795238 S    
P4    C34   1.854423 S    
C9    H7    1.112130 S    
C24   C25   1.421101 A    
P3    O9    1.534536 D    
C51   H26   1.082627 S    
N35   O48   1.301264 A    
N26   H53   1.045234 S    
C16   H18   1.111238 S    
C37   C41   1.412424 A    
C10   N7    1.458853 S    
N25   O42   1.300961 A    
C11   O22   1.414424 S    
C40   C41   1.431818 A    
C56   N33   1.410095 S    
N3    N4    1.333503 A    
N27   H55   1.045675 S    
P1    O1    1.580330 D    
P7    C52   1.878375 S    
N30   H59   1.040876 S    
C1    C10   1.537025 S    
C45   C46   1.362967 D    
C2    C3    1.565789 S    
C46   C50   1.515205 S    
C51   C55   1.419814 A    
N17   H41   1.041295 S    
O17   Ba2   2.769094 S    
N21   H46   1.045632 S    
C2    N26   1.462335 S    
N31   H60   1.034841 S    
C11   C12   1.575484 S    
C7    N12   1.463310 S    
C5    H5    1.102891 S    
N33   O45   1.296640 A    
C9    H8    1.098287 S    
O13   Ba2   3.029390 S    
Ba2   O20   2.806082 S    
N12   O31   1.299886 A    
N2    C41   1.466362 S    
C6    N10   1.432803 S    
N23   H51   1.043543 S    
N29   O43   1.301557 A    
C15   C16   1.519506 S    
N27   H54   1.045613 S    
N22   H48   1.044513 S    
P1    Ba1   3.428509 S    
N1    C36   1.463878 S    
O8    Ba1   2.768463 S    
N30   H58   1.045267 S    
C34   C42   1.322732 D    
C14   N25   1.467038 S    
N18   O38   1.302565 A    
Ba2   O21   2.854647 S    
O10   C8    1.416300 S    
N13   H37   1.036022 S    
N22   H49   1.046587 S    
N34   H64   1.046214 S    
N16   O35   1.301167 A    
N1    C20   1.386157 Am   
N13   H36   1.045914 S    
P3    C44   1.891228 S    
C3    N35   1.474828 S    
P4    Ba2   3.429124 S    
N3    C49   1.357439 A    
O2    Ba1   3.028500 S    
C16   H17   1.110238 S    
C28   C29   1.405123 A    
P5    O18   1.547988 D    
C19   N1    1.383980 Am   
C17   H24   1.070810 S    
N20   H44   1.046366 S    
C14   N24   1.469008 S    
C30   N2    1.385878 Am   
O11   C2    1.411060 S    
N9    H31   1.042997 S    
O3    P6    1.756898 S    
C29   C30   1.418462 A    
C25   C26   1.416826 A    
N28   H56   1.045686 S    
O16   P7    1.791819 S    
C15   H14   1.112096 S    
P1    O2    1.540339 S    
P8    C33   1.892024 S    
C40   N29   1.434227 S    
C17   C39   1.390351 A    
C20   O26   1.219828 D    
N28   H57   1.045643 S    
C33   C42   1.506384 S    
C52   C56   1.404852 A    
C8    C9    1.554288 S    
O19   C13   1.409361 S    
N32   H63   1.043920 S    
P3    O11   1.762884 S    
C22   C26   1.432447 A    
C54   H27   1.082266 S    
C27   C28   1.404803 A    
C4    C5    1.550789 S    
C39   C40   1.433659 A    
C4    H3    1.106279 S    
C13   H12   1.110448 S    
C2    H2    1.113298 S    
C1    H1    1.102446 S    
C5    N8    1.460227 S    
C12   N19   1.466766 S    
C43   C44   1.517153 S    
C49   C55   1.493276 S    
O6    P6    1.753247 S    
N11   H34   1.039156 S    
C30   O27   1.221811 D    
C20   C21   1.428776 A    
Ba1   O20   3.010747 S    
P5    C53   1.884307 S    
P2    O7    1.560073 D    
Ba1   O13   2.795857 S    
P2    Ba1   3.466330 S    
C9    N16   1.464343 S    
O4    P6    1.540071 D    
C4    H4    1.110872 S    
H16   C16   1.109490 S    
C13   C14   1.551242 S    
P2    O20   1.565366 S    
N17   H40   1.036371 S    
C24   N28   1.433952 S    
C11   N17   1.443941 S    
C7    N13   1.462320 S    
N8    O29   1.301224 A    
C31   O28   1.219824 D    
O3    Ba1   2.805432 S    
C45   N30   1.435268 S    
C34   C35   1.331983 D    
C51   C52   1.405447 A    
N4    C50   1.361656 A    
C46   C47   1.527153 S    
N12   O32   1.301095 A    
N23   H50   1.044206 S    
P8    O23   1.550992 D    
P1    O5    1.791636 S    
C5    N9    1.463023 S    
C3    N34   1.468892 S    
O12   Ba2   2.793972 S    
N15   H39   1.044257 S    
C19   O25   1.222339 D    
N8    O30   1.302237 A    
N7    H29   1.044220 S    
O16   Ba2   3.009856 S    
C3    N22   1.463247 S    
N9    H30   1.039068 S    
C1    N21   1.461103 S    
C26   C29   1.409828 A    
N10   H32   1.032134 S    
P8    O24   1.753102 S    
N5    C50   1.359801 A    
O7    Ba1   2.854405 S    
C15   H15   1.108725 S    
C53   C56   1.403725 A    
N14   O34   1.302130 A    
C17   C38   1.392561 A    
C32   C33   1.527990 S    
C1    H10   1.106549 S    
C18   C19   1.418658 A    
P6    C38   1.859159 S    
N18   O37   1.300022 A    
N14   O33   1.285086 A    
Ba1   O16   2.806698 S    
C8    N15   1.448166 S    
P5    O17   1.780696 S    
C4    O15   1.398439 S    
P3    O8    1.748536 S    
P4    O13   1.540339 S    
C14   H13   1.113663 S    
O5    C6    1.415122 S    
N21   H47   1.045184 S    
P1    C39   1.888503 S    
N19   H43   1.046355 S    
C35   C36   1.507340 S    
N34   H65   1.039016 S    
P4    O12   1.580715 D    
N5    N6    1.335316 A    
C12   N18   1.476272 S    
O1    Ba1   2.793478 S    
N33   O46   1.292967 A    
C32   C36   1.361845 D    
C37   C38   1.402946 A    
C27   N27   1.433584 S    
P4    O15   1.759017 S    
C13   N23   1.462641 S    
C25   C31   1.428277 A    
C35   H22   1.084722 S    
C8    N14   1.437244 S    
N24   O39   1.301734 A    
C10   H9    1.107637 S    
N35   O47   1.302256 A    
C37   H20   1.082682 S    
N31   H61   1.041693 S    
C11   H11   1.101341 S    
P7    O22   1.776405 S    
C32   H23   1.085491 S    
C7    H6    1.116724 S    
H19   C28   1.083904 S    
C21   C27   1.421042 A    
C43   N32   1.412985 S    
O14   Ba2   2.804719 S    
C47   N31   1.434697 S    
N15   H38   1.043387 S    
C53   C54   1.400817 A    
N6    C49   1.360528 A    
C43   C48   1.323785 D    
C18   C22   1.410268 A    
P2    C48   1.888965 S    
N25   O41   1.301805 A    
N24   O40   1.300559 A    
