data_mof_unit_58793.cif
_audit_creation_date              2012-12-10T19:53:02-0500
_audit_creation_method            fapswitch 2.2
_symmetry_space_group_name_H-M    P1
_symmetry_Int_Tables_number       1
_space_group_crystal_system       triclinic
_cell_length_a                    14.93904
_cell_length_b                    14.190747
_cell_length_c                    15.752493
_cell_angle_alpha                 89.091361
_cell_angle_beta                  90.12607
_cell_angle_gamma                 90.495117
_cell_volume                      3338.91595724

loop_
_atom_site_label
_atom_site_type_symbol
_atom_type_description
_atom_site_fract_x
_atom_site_fract_y
_atom_site_fract_z
_atom_type_partial_charge
C1    C     C_R   0.327805 0.499877 0.499073 0.989192
C2    C     C_R   0.186404 0.433010 0.447243 0.285047
C3    C     C_R   0.231650 0.500148 0.496500 -0.377053
C4    C     C_R   0.047423 0.498349 0.493869 -0.234016
C5    C     C_R   0.904432 0.555556 0.436334 0.050568
C6    C     C_R   0.905384 0.439454 0.553359 0.046602
C7    C     C_R   0.499497 0.500605 0.338395 0.897901
C8    C     C_R   0.812050 0.558239 0.440352 -0.256322
C9    C     C_R   0.812903 0.440487 0.554550 -0.255137
C10   C     C_R   0.767171 0.500445 0.498890 -0.041001
C11   C     C_R   0.951005 0.496894 0.493802 0.205871
C12   C     C_3   0.585290 0.545431 0.947294 -0.646392
C13   C     C_R   0.465828 0.108586 0.424388 0.387677
C14   C     C_R   0.417929 0.892140 0.473251 0.386746
C15   C     C_R   0.466382 0.208340 0.430391 -0.165370
C16   C     C_R   0.424362 0.792358 0.473026 -0.167847
C17   C     C_R   0.530470 0.199897 0.567499 -0.054759
C18   C     C_R   0.572660 0.799766 0.525073 -0.061651
C19   C     C_R   0.521168 0.100817 0.568915 0.346300
C20   C     C_R   0.573551 0.898859 0.515869 0.344210
C21   C     C_R   0.491678 0.053403 0.495533 -0.037709
C22   C     C_R   0.494491 0.946842 0.492688 -0.036044
C23   C     C_3   0.586284 0.549850 0.046385 0.024323
C24   C     C_R   0.671889 0.500279 0.500099 0.894379
C25   C     C_R   0.499463 0.499303 0.661695 0.892900
C26   C     C_3   0.411348 0.550994 0.048474 -0.287889
C27   C     C_3   0.490067 0.396037 0.051743 -0.259575
C28   C     C_3   0.500410 0.393632 0.953547 0.292722
C29   C     C_3   0.418274 0.558856 0.950347 0.314922
C30   C     C_1   0.498216 0.497619 0.750323 -0.172629
C31   C     C_3   0.497853 0.500690 0.082951 0.057100
C32   C     C_3   0.497441 0.496894 0.916772 0.086666
C33   C     C_3   0.291987 0.465848 0.906681 0.176391
C34   C     C_1   0.497452 0.496682 0.825462 0.028836
C35   C     C_3   0.191408 0.479877 0.900316 -0.870852
C36   C     C_3   0.459652 0.241616 0.911701 0.091928
C37   C     C_3   0.380723 0.182691 0.881451 -0.845936
C38   C     C_3   0.483554 0.098431 0.279433 0.083046
C39   C     C_3   0.474914 0.027396 0.208550 -0.757957
C40   C     C_3   0.268292 0.905575 0.504712 0.103747
C41   C     C_3   0.192928 0.976910 0.500645 -0.827485
C42   C     C_1   0.575330 0.244342 0.637459 0.319565
C43   C     C_1   0.648601 0.755520 0.564971 0.319956
C44   C     C_3   0.468772 0.029697 0.689134 0.089958
C45   C     C_1   0.497407 0.501399 0.174841 -0.028694
C46   C     C_3   0.494050 0.966352 0.763981 -0.792584
C47   C     C_3   0.698940 0.965724 0.459439 0.100420
C48   C     C_3   0.782359 0.023584 0.479281 -0.789747
C49   C     C_1   0.553485 0.330687 0.093896 0.131000
C50   C     C_1   0.394669 0.644233 0.085987 0.203009
C51   C     C_1   0.593913 0.649246 0.072559 0.174003
C52   C     C_1   0.668092 0.503776 0.079207 0.192285
C53   C     C_3   0.056265 0.727875 0.544632 0.151613
C54   C     C_3   0.971221 0.784923 0.554329 -0.827127
C55   C     C_3   0.061533 0.270410 0.438299 0.170519
C56   C     C_1   0.498170 0.501649 0.249902 -0.173559
C57   C     C_3   0.979966 0.208187 0.422357 -0.848001
C58   C     C_3   0.239001 0.613795 0.670017 0.143310
C59   C     C_3   0.291864 0.690389 0.714958 -0.812457
C60   C     C_3   0.238881 0.415026 0.313511 0.147026
C61   C     C_3   0.289206 0.350144 0.254673 -0.832173
C62   C     C_1   0.950048 0.612572 0.372770 0.150257
C63   C     C_1   0.952103 0.380626 0.614381 0.151591
C64   C     C_R   0.091772 0.570563 0.536945 0.344815
C65   C     C_R   0.093146 0.428444 0.450319 0.334312
C66   C     C_R   0.184960 0.569141 0.541452 0.275700
H1    H     H_    0.774891 0.603296 0.396814 0.153166
H2    H     H_    0.644330 0.506694 0.922858 0.200692
H3    H     H_    0.304521 0.422836 0.964698 0.170379
H4    H     H_    0.313212 0.427284 0.849446 0.201672
H5    H     H_    0.174849 0.520889 0.841865 0.253273
H6    H     H_    0.156867 0.410351 0.897942 0.222773
H7    H     H_    0.167239 0.518462 0.956502 0.266754
H8    H     H_    0.480990 0.213419 0.974771 0.152120
H9    H     H_    0.515252 0.234752 0.865338 0.163665
H10   H     H_    0.359072 0.207455 0.817450 0.250523
H11   H     H_    0.400285 0.107573 0.878214 0.214535
H12   H     H_    0.776428 0.396253 0.599688 0.160427
H13   H     H_    0.323926 0.188898 0.926346 0.258596
H14   H     H_    0.556330 0.109033 0.292785 0.128356
H15   H     H_    0.454003 0.165894 0.256612 0.148050
H16   H     H_    0.403246 0.016126 0.192385 0.263308
H17   H     H_    0.510714 0.054106 0.151197 0.204735
H18   H     H_    0.504525 0.959137 0.228957 0.255299
H19   H     H_    0.289885 0.898233 0.572361 0.121744
H20   H     H_    0.241513 0.836896 0.482477 0.153827
H21   H     H_    0.167778 0.984225 0.434479 0.266316
H22   H     H_    0.137006 0.953058 0.542278 0.198322
H23   H     H_    0.440957 0.250820 0.378561 0.171194
H24   H     H_    0.217532 0.046593 0.522398 0.255287
H25   H     H_    0.417200 0.991886 0.651080 0.127336
H26   H     H_    0.439542 0.095712 0.713846 0.133922
H27   H     H_    0.543390 0.002924 0.805080 0.258396
H28   H     H_    0.433492 0.948652 0.801956 0.198844
H29   H     H_    0.523727 0.900051 0.740758 0.261727
H30   H     H_    0.658214 0.006126 0.412227 0.130489
H31   H     H_    0.720208 0.898053 0.431096 0.132808
H32   H     H_    0.825375 0.984589 0.525207 0.259164
H33   H     H_    0.820936 0.037398 0.420135 0.204126
H34   H     H_    0.367867 0.750559 0.452426 0.181922
H35   H     H_    0.763150 0.092019 0.506959 0.260276
H36   H     H_    0.073582 0.727269 0.475740 0.132972
H37   H     H_    0.110825 0.764226 0.579591 0.178829
H38   H     H_    0.953603 0.790241 0.622529 0.268988
H39   H     H_    0.981523 0.856999 0.527421 0.201247
H40   H     H_    0.915023 0.750490 0.520118 0.265125
H41   H     H_    0.074689 0.269542 0.508112 0.129690
H42   H     H_    0.119733 0.239280 0.405440 0.195074
H43   H     H_    0.966078 0.204765 0.353161 0.266064
H44   H     H_    0.992385 0.135804 0.447287 0.209966
H45   H     H_    0.351941 0.508299 0.067340 0.139762
H46   H     H_    0.920607 0.237225 0.454952 0.262357
H47   H     H_    0.275605 0.546064 0.677776 0.125175
H48   H     H_    0.172004 0.607252 0.700486 0.168110
H49   H     H_    0.297369 0.672963 0.783600 0.258229
H50   H     H_    0.360156 0.696592 0.687574 0.264226
H51   H     H_    0.257446 0.759092 0.707341 0.235575
H52   H     H_    0.275764 0.483578 0.315628 0.116850
H53   H     H_    0.170962 0.426746 0.286118 0.169612
H54   H     H_    0.255376 0.280216 0.252578 0.263827
H55   H     H_    0.291014 0.381325 0.189575 0.196075
H56   H     H_    0.422562 0.367895 0.068798 0.155775
H57   H     H_    0.358954 0.340997 0.277292 0.249894
H58   H     H_    0.568232 0.366044 0.937297 0.093925
H59   H     H_    0.440522 0.632651 0.936062 0.132950
H60   H     H_    0.591473 0.617178 0.917759 0.197323
N1    N     N_R   0.499980 0.252470 0.500000 -0.146841
N2    N     N_1   0.989527 0.333619 0.663283 -0.217711
N3    N     N_R   0.499980 0.747530 0.500000 -0.148394
N4    N     N_1   0.612085 0.278793 0.693978 -0.230928
N5    N     N_1   0.710084 0.721568 0.597774 -0.203146
N6    N     N_1   0.602686 0.279264 0.126958 -0.207050
N7    N     N_1   0.381283 0.716996 0.115371 -0.183668
N8    N     N_1   0.600306 0.727019 0.093004 -0.197166
N9    N     N_1   0.732301 0.468088 0.104867 -0.184704
N10   N     N_1   0.986593 0.658149 0.321851 -0.212032
O1    O     O_R   0.369070 0.579480 0.500010 -0.593729
O2    O     O_3   0.432880 0.336550 0.916656 -0.651239
O3    O     O_3   0.436718 0.063842 0.351502 -0.554074
O4    O     O_3   0.338899 0.937185 0.451526 -0.551971
O5    O     O_3   0.546191 0.050283 0.640864 -0.553565
O6    O     O_3   0.650703 0.948899 0.535194 -0.555504
O7    O     O_3   0.042257 0.636731 0.580202 -0.598057
O8    O     O_3   0.045067 0.361865 0.405021 -0.596785
O9    O     O_3   0.230619 0.639594 0.583627 -0.612684
O10   O     O_3   0.233213 0.373020 0.395312 -0.590959
O11   O     O_R   0.369070 0.420520 0.500010 -0.579937
O12   O     O_R   0.500010 0.579510 0.377140 -0.610729
O13   O     O_R   0.500010 0.420490 0.377140 -0.623978
O14   O     O_R   0.630940 0.579480 0.499990 -0.622771
O15   O     O_R   0.630940 0.420520 0.499990 -0.615330
O16   O     O_R   0.500000 0.579440 0.622860 -0.615070
O17   O     O_R   0.500000 0.420560 0.622860 -0.619603
O18   O     O_3   0.334557 0.554898 0.906896 -0.637776
Zn1   Zn    Zn3+2 0.500010 0.606140 0.500000 0.961201
Zn2   Zn    Zn3+2 0.500010 0.393860 0.500000 0.966108

loop_
_geom_bond_atom_site_label_1
_geom_bond_atom_site_label_2
_ccdc_geom_bond_type
C6    C63   S    
C29   H59   S    
C2    C65   A    
C6    C9    A    
C58   O9    S    
C53   C54   S    
C12   H2    S    
C12   C23   S    
C38   H14   S    
C25   O16   A    
C13   O3    S    
C54   H38   S    
C36   C37   S    
C24   O15   A    
O13   Zn2   S    
C39   H18   S    
C5    C11   A    
C29   C32   S    
C26   C50   S    
C4    C65   A    
C51   N8    T    
C57   H46   S    
C12   H60   S    
C40   H20   S    
O1    Zn1   S    
C60   H53   S    
C61   H55   S    
C62   N10   T    
C41   H22   S    
C17   C42   S    
C66   O9    S    
C17   C19   A    
C7    O13   A    
C57   H43   S    
C46   H29   S    
C47   C48   S    
C45   C56   T    
C59   H50   S    
C58   H47   S    
C38   O3    S    
C60   H52   S    
O12   Zn1   S    
C9    C10   A    
C63   N2    T    
C44   H26   S    
C33   H3    S    
C41   H24   S    
C35   H5    S    
C26   C31   S    
C19   O5    S    
C15   N1    A    
C21   C22   S    
C12   C32   S    
C61   H54   S    
C60   O10   S    
C7    C56   S    
C27   H56   S    
C44   C46   S    
C41   H21   S    
C49   N6    T    
C30   C34   T    
C25   O17   A    
C20   O6    S    
C28   C32   S    
C28   O2    S    
C6    C11   A    
N3    Zn1   S    
C65   O8    S    
C54   H40   S    
C33   O18   S    
C16   H34   S    
C10   C24   S    
C58   C59   S    
C27   C31   S    
C55   H41   S    
C60   C61   S    
C1    C3    S    
C32   C34   S    
C40   H19   S    
O11   Zn2   S    
C36   H9    S    
C15   H23   S    
C37   H13   S    
C23   C51   S    
C57   H44   S    
C46   H28   S    
O16   Zn1   S    
C53   H36   S    
C47   H30   S    
C47   O6    S    
C13   C21   A    
C42   N4    T    
O15   Zn2   S    
C4    C11   S    
C16   N3    A    
C44   H25   S    
C36   H8    S    
C33   H4    S    
C26   C29   S    
C8    C10   A    
C40   C41   S    
C37   H10   S    
C14   O4    S    
C35   H6    S    
O14   Zn1   S    
C13   C15   A    
C38   H15   S    
C14   C16   A    
C1    O11   A    
C3    C66   A    
C59   H51   S    
C1    O1    A    
C7    O12   A    
C44   O5    S    
C25   C30   S    
C48   H33   S    
C35   H7    S    
C24   O14   A    
C55   O8    S    
C54   H39   S    
C19   C21   A    
C17   N1    A    
C39   H16   S    
C20   C22   A    
C50   N7    T    
N1    Zn2   S    
C5    C8    A    
C28   H58   S    
C64   O7    S    
C2    O10   S    
C48   H32   S    
C4    C64   A    
C47   H31   S    
C55   H42   S    
C61   H57   S    
C14   C22   A    
C55   C57   S    
C2    C3    A    
C39   H17   S    
C18   C43   S    
O17   Zn2   S    
C23   C52   S    
C38   C39   S    
C46   H27   S    
C37   H11   S    
C53   H37   S    
C48   H35   S    
C40   O4    S    
C43   N5    T    
C33   C35   S    
C5    C62   S    
C18   C20   A    
C9    H12   S    
C23   C31   S    
C8    H1    S    
C59   H49   S    
C31   C45   S    
C27   C28   S    
C58   H48   S    
C52   N9    T    
C18   N3    A    
C53   O7    S    
C36   O2    S    
C26   H45   S    
C27   C49   S    
C64   C66   A    
C29   O18   S    
