data_mof_unit_52791.cif
_audit_creation_date              2012-10-26T19:57:54-0400
_audit_creation_method            fapswitch 2.2
_symmetry_space_group_name_H-M    P1
_symmetry_Int_Tables_number       1
_space_group_crystal_system       triclinic
_cell_length_a                    7.53637
_cell_length_b                    8.684835
_cell_length_c                    12.961913
_cell_angle_alpha                 86.851663
_cell_angle_beta                  78.783787
_cell_angle_gamma                 103.100667
_cell_volume                      806.157563172

loop_
_atom_site_label
_atom_site_type_symbol
_atom_type_description
_atom_site_fract_x
_atom_site_fract_y
_atom_site_fract_z
_atom_type_partial_charge
C1    C     C_R   0.452516 0.199779 0.503583 0.547876
C2    C     C_R   0.731606 0.542221 0.117861 -0.128495
C3    C     C_R   0.606095 0.523110 0.857808 -0.113114
C4    C     C_R   0.393905 0.476890 0.142192 -0.113114
C5    C     C_R   0.589543 0.517848 0.966460 0.049941
C6    C     C_R   0.410457 0.482152 0.033540 0.049941
C7    C     C_2   0.426289 0.031340 0.506449 -0.134816
C8    C     C_2   0.573711 0.968660 0.493551 -0.134816
C9    C     C_R   0.547484 0.800221 0.496417 0.547876
C10   C     C_R   0.465879 0.496144 0.701311 0.546267
C11   C     C_R   0.534120 0.503856 0.298689 0.546267
C12   C     C_R   0.553880 0.507333 0.184701 0.009199
C13   C     C_R   0.446120 0.492666 0.815299 0.009199
C14   C     C_R   0.250690 0.452407 0.990973 -0.132671
C15   C     C_R   0.749310 0.547593 0.009027 -0.132671
C16   C     C_R   0.268394 0.457779 0.882139 -0.128495
Cu1   Cu    Cu3+1 0.686350 0.517570 0.488220 1.062426
Cu2   Cu    Cu3+1 0.313650 0.482430 0.511780 1.062426
H1    H     H_    0.256225 0.448948 0.193382 0.143137
H2    H     H_    0.743775 0.551052 0.806618 0.143137
H3    H     H_    0.856863 0.566376 0.149483 0.145984
H4    H     H_    0.143137 0.433624 0.850517 0.145984
H5    H     H_    0.112722 0.424670 0.041692 0.110740
H6    H     H_    0.887278 0.575330 0.958308 0.110740
H7    H     H_    0.284465 0.958614 0.519606 0.157211
H8    H     H_    0.715535 0.041386 0.480394 0.157211
I1    I     I_    0.871748 0.280362 0.647502 -0.255360
I2    I     I_    0.128252 0.719638 0.352498 -0.255360
N1    N     N_2   0.033570 0.455950 0.529530 -0.034953
N2    N     N_2   0.966430 0.544050 0.470470 -0.034953
O1    O     O_R   0.621060 0.286250 0.492350 -0.490818
O2    O     O_R   0.378940 0.713750 0.507650 -0.490818
O3    O     O_R   0.306310 0.256580 0.512240 -0.486069
O4    O     O_R   0.693690 0.743420 0.487760 -0.486069
O5    O     O_R   0.631800 0.512400 0.642670 -0.494649
O6    O     O_R   0.368200 0.487600 0.357330 -0.494649
O7    O     O_R   0.317060 0.482730 0.662570 -0.501837
O8    O     O_R   0.682940 0.517270 0.337430 -0.501837

loop_
_geom_bond_atom_site_label_1
_geom_bond_atom_site_label_2
_ccdc_geom_bond_type
C14   H5    S    
C11   O8    A    
C11   C12   S    
C10   O5    A    
Cu1   N2    S    
C6    C14   A    
C8    H8    S    
C3    C13   A    
C2    C12   A    
C2    H3    S    
I2    N2    S    
Cu1   Cu2   S    
C1    O3    A    
C3    H2    S    
Cu2   N1    S    
C2    C15   A    
N1    N2    D    
C10   O7    A    
C15   H6    S    
Cu2   O7    S    
C9    O4    A    
Cu1   O8    S    
C5    C6    A    
Cu1   O1    S    
Cu2   O3    S    
C14   C16   A    
C5    C15   A    
C4    C12   A    
Cu1   O4    S    
C1    O1    A    
Cu2   O2    S    
I1    N1    S    
C4    C6    A    
C7    C8    D    
C13   C16   A    
C11   O6    A    
C16   H4    S    
Cu1   O5    S    
C9    O2    A    
C1    C7    S    
C4    H1    S    
Cu2   O6    S    
C8    C9    S    
C3    C5    A    
C10   C13   S    
C7    H7    S    
