data_mof_unit_55689.cif
_audit_creation_date              2012-12-11T19:16:03-0500
_audit_creation_method            fapswitch 2.2
_symmetry_space_group_name_H-M    P1
_symmetry_Int_Tables_number       1
_space_group_crystal_system       triclinic
_cell_length_a                    8.213309
_cell_length_b                    15.034548
_cell_length_c                    18.755249
_cell_angle_alpha                 101.593381
_cell_angle_beta                  91.189744
_cell_angle_gamma                 98.214011
_cell_volume                      2242.51308726

loop_
_atom_site_label
_atom_site_type_symbol
_atom_type_description
_atom_site_fract_x
_atom_site_fract_y
_atom_site_fract_z
_atom_type_partial_charge
Ba1   Ba    Ba6+2 0.853510 0.540900 0.466480 1.652548
Ba2   Ba    Ba6+2 0.336320 0.459170 0.533530 1.648179
C1    C     C_3   0.579251 0.832464 0.253708 -0.278643
C2    C     C_3   0.641669 0.772081 0.301542 0.275677
C3    C     C_3   0.455361 0.319548 0.308019 0.288035
C4    C     C_3   0.393583 0.287571 0.228423 -0.372109
C5    C     C_3   0.087364 0.289384 0.723929 0.331411
C6    C     C_3   0.081158 0.273775 0.801629 -0.274899
C7    C     C_3   0.502213 0.224459 0.693125 0.264070
C8    C     C_3   0.416213 0.136236 0.713864 -0.268275
C9    C     C_R   0.006077 0.444927 0.045328 0.028622
C10   C     C_R   0.922471 0.386116 0.088478 -0.074735
C11   C     C_R   0.772646 0.434097 0.958627 -0.029210
C12   C     C_3   0.137648 0.713751 0.270076 0.401216
C13   C     C_R   0.941004 0.456725 0.977173 0.021129
C14   C     C_R   0.705292 0.441502 0.891778 -0.041943
C15   C     C_R   0.809061 0.470797 0.838270 -0.083886
C16   C     C_R   0.975555 0.509986 0.861156 0.014444
C17   C     C_R   0.039193 0.505327 0.931904 0.029683
C18   C     C_R   0.756345 0.463365 0.763834 -0.018120
C19   C     C_R   0.868507 0.494170 0.715557 -0.274025
C20   C     C_R   0.024368 0.543780 0.738950 0.016514
C21   C     C_R   0.076121 0.556986 0.814899 -0.046612
C22   C     C_R   0.162873 0.493031 0.071855 0.043849
C23   C     C_3   0.117485 0.732034 0.193738 -0.330902
C24   C     C_R   0.220059 0.495067 0.144615 -0.003422
C25   C     C_R   0.116305 0.453983 0.192297 -0.029957
C26   C     C_R   0.971544 0.396762 0.162023 -0.078622
C27   C     C_R   0.216584 0.619266 0.848840 -0.053916
C28   C     C_R   0.273669 0.618910 0.920753 -0.093616
C29   C     C_R   0.197205 0.552285 0.958522 -0.033846
C30   C     C_R   0.264029 0.538970 0.026130 0.024903
C31   C     C_R   0.432119 0.565670 0.048218 -0.111339
C32   C     C_R   0.381884 0.537249 0.169177 -0.034759
C33   C     C_R   0.489130 0.566911 0.118667 -0.097003
C34   C     C_3   0.242083 0.740405 0.621331 0.310593
C35   C     C_R   0.432665 0.546180 0.242832 -0.014567
C36   C     C_R   0.321488 0.515639 0.291659 -0.307507
C37   C     C_R   0.165810 0.466565 0.267445 0.059847
C38   C     C_R   0.339925 0.820377 0.444279 -0.044304
C39   C     C_R   0.577360 0.792056 0.513838 0.062264
C40   C     C_R   0.772940 0.228560 0.508569 -0.305791
C41   C     C_R   0.866099 0.171234 0.535475 0.048754
C42   C     C_R   0.804184 0.077494 0.528287 -0.070273
C43   C     C_R   0.646839 0.039781 0.492858 0.036554
C44   C     C_R   0.561159 0.099414 0.461552 -0.007065
C45   C     C_3   0.273360 0.844988 0.640546 -0.353676
C46   C     C_R   0.571678 0.945745 0.487003 0.019451
C47   C     C_R   0.412935 0.913681 0.448742 -0.065126
C48   C     C_R   0.337406 0.976561 0.415998 -0.117072
C49   C     C_R   0.413512 0.065440 0.421942 -0.041790
C50   C     C_R   0.647468 0.883907 0.520342 -0.119099
C51   C     C_R   0.427458 0.760671 0.473683 -0.260892
C52   C     C_R   0.623383 0.193362 0.470377 -0.001272
C53   C     C_3   0.894276 0.240225 0.330608 0.280608
C54   C     C_3   0.787677 0.191076 0.262286 -0.210591
C55   C     C_3   0.733733 0.679490 0.690146 0.267673
C56   C     C_3   0.778759 0.718154 0.770697 -0.341025
H1    H     H_    0.735067 0.814590 0.342923 0.097072
H2    H     H_    0.371892 0.868833 0.684507 0.142660
H3    H     H_    0.311724 0.873642 0.592593 0.046235
H4    H     H_    0.158912 0.871572 0.659529 0.142199
H5    H     H_    0.822573 0.283301 0.368916 -0.039559
H6    H     H_    0.683256 0.142826 0.275839 0.158767
H7    H     H_    0.862392 0.151661 0.222264 0.154502
H8    H     H_    0.841250 0.652342 0.664255 0.021198
H9    H     H_    0.627863 0.623355 0.684753 0.057815
H10   H     H_    0.793189 0.662183 0.799668 0.071684
H11   H     H_    0.680872 0.755619 0.796270 0.159323
H12   H     H_    0.536114 0.745969 0.331448 -0.040620
H13   H     H_    0.517476 0.885785 0.288003 0.110816
H14   H     H_    0.359791 0.353275 0.339090 0.043103
H15   H     H_    0.270089 0.245400 0.224546 0.160629
H16   H     H_    0.385794 0.347312 0.203023 0.054922
H17   H     H_    0.478134 0.245363 0.196890 0.125256
H18   H     H_    0.487308 0.789629 0.211919 0.048334
H19   H     H_    0.183362 0.685685 0.154916 0.046273
H20   H     H_    0.206511 0.329981 0.717622 0.114729
H21   H     H_    0.989526 0.330231 0.715579 -0.019153
H22   H     H_    0.103564 0.340789 0.840531 0.098364
H23   H     H_    0.958427 0.237309 0.810611 0.166358
H24   H     H_    0.177325 0.233045 0.812964 0.160029
H25   H     H_    0.442911 0.230315 0.641060 0.056052
H26   H     H_    0.429904 0.075434 0.670809 0.080436
H27   H     H_    0.074112 0.643522 0.270264 0.066177
H28   H     H_    0.830045 0.483233 0.658532 0.065060
H29   H     H_    0.900504 0.354896 0.194028 0.072044
H30   H     H_    0.618038 0.591998 0.132653 0.103738
H31   H     H_    0.360970 0.524470 0.348353 0.076249
H32   H     H_    0.688310 0.418061 0.999393 0.085851
H33   H     H_    0.271021 0.718065 0.283416 -0.097979
H34   H     H_    0.522822 0.585257 0.011174 0.065835
H35   H     H_    0.373046 0.689807 0.469421 0.063245
H36   H     H_    0.761021 0.905392 0.552911 0.088354
H37   H     H_    0.820099 0.300918 0.515410 0.071930
H38   H     H_    0.881012 0.036791 0.551072 0.075140
H39   H     H_    0.350490 0.109056 0.395319 0.115681
H40   H     H_    0.985161 0.719722 0.175781 0.132410
H41   H     H_    0.169718 0.804140 0.193007 0.159568
H42   H     H_    0.358081 0.714213 0.606736 -0.002187
H43   H     H_    0.150345 0.718197 0.574640 0.076702
O1    O     O_2   0.871970 0.437290 0.322980 -0.479111
O2    O     O_3   0.691401 0.750197 0.658518 -0.626781
O3    O     O_3   0.066805 0.778659 0.319501 -0.569306
O4    O     O_2   0.317740 0.562750 0.677070 -0.480404
O5    O     O_3   0.068290 0.555610 0.587550 -0.493039
O6    O     O_3   0.528280 0.392520 0.627490 -0.482103
O7    O     O_3   0.183714 0.709350 0.682598 -0.622787
O8    O     O_3   0.609300 0.386850 0.459730 -0.478021
O9    O     O_3   0.105720 0.342720 0.589770 -0.493596
O10   O     O_2   0.209451 0.180042 0.549080 -0.512785
O11   O     O_3   0.067863 0.204611 0.674015 -0.581093
O12   O     O_3   0.121420 0.444460 0.412460 -0.476558
O13   O     O_3   0.580410 0.613230 0.540280 -0.493319
O14   O     O_2   0.337420 0.273080 0.457680 -0.461671
O15   O     O_3   0.488143 0.243193 0.334960 -0.648204
O16   O     O_2   0.418073 0.465135 0.752009 -0.515065
O17   O     O_3   0.484819 0.300514 0.748779 -0.608480
O18   O     O_3   0.661430 0.607560 0.372520 -0.467295
O19   O     O_2   0.768819 0.534050 0.244625 -0.492476
O20   O     O_3   0.032065 0.291289 0.308310 -0.672478
O21   O     O_3   0.715362 0.702572 0.257831 -0.604030
O22   O     O_2   0.852280 0.726960 0.542370 -0.461085
O23   O     O_3   0.083990 0.657360 0.410240 -0.480729
O24   O     O_2   0.996890 0.817403 0.456875 -0.503299
P1    P     P_3+3 0.039440 0.410950 0.333260 0.975952
P2    P     P_3+3 0.676740 0.714970 0.563520 0.994534
P3    P     P_3+3 0.124768 0.771841 0.408468 0.937654
P4    P     P_3+3 0.150270 0.589130 0.666750 0.971827
P5    P     P_3+3 0.063973 0.223967 0.584887 0.966179
P6    P     P_3+3 0.643964 0.595869 0.278605 0.959119
P7    P     P_3+3 0.517029 0.272900 0.429900 0.939573
P8    P     P_3+3 0.549764 0.405858 0.722278 0.911376
C57   C     C_2   0.956674 0.172061 0.369096 0.458593
H44   H     H_    0.049902 0.196625 0.412882 0.010567
O25   O     O_2   0.904764 0.089966 0.352694 -0.569115
H45   H     H_    0.738864 0.242335 0.236462 0.043671
C58   C     C_2   0.717113 0.876911 0.215600 0.614253
H46   H     H_    0.788919 0.834864 0.178579 0.019642
O26   O     O_2   0.748004 0.960346 0.225060 -0.536193
H47   H     H_    0.896099 0.766525 0.776920 0.173965
H48   H     H_    0.569501 0.369722 0.311234 0.051477
C59   C     C_2   0.680525 0.217965 0.682181 0.514582
H49   H     H_    0.752309 0.269773 0.658783 -0.134319
O27   O     O_2   0.744287 0.155249 0.697700 -0.582534
H50   H     H_    0.283506 0.137398 0.719676 0.141950
H51   H     H_    0.469725 0.127741 0.766570 0.163720
C60   C     C_2   0.524680 0.433428 0.888132 0.554812
H52   H     H_    0.468123 0.489713 0.876660 0.004478
O28   O     O_2   0.439014 0.367224 0.903468 -0.555771
C61   C     C_2   0.282418 0.699176 0.818518 0.609889
H53   H     H_    0.394703 0.698932 0.789243 0.015851
O29   O     O_2   0.215940 0.767965 0.830043 -0.565273
C62   C     C_2   0.799737 0.303913 0.058121 0.515315
H54   H     H_    0.709081 0.277349 0.092898 -0.020028
O30   O     O_2   0.804576 0.262073 0.995430 -0.537403
C63   C     C_2   0.393533 0.698326 0.960900 0.483373
H55   H     H_    0.374341 0.728539 0.017152 0.014241
O31   O     O_2   0.516777 0.728017 0.932693 -0.592987
C64   C     C_2   0.177385 0.958913 0.374972 0.567479
H56   H     H_    0.063954 0.952545 0.403157 0.047988
O32   O     O_2   0.171490 0.959457 0.309923 -0.536101

loop_
_geom_bond_atom_site_label_1
_geom_bond_atom_site_label_2
_ccdc_geom_bond_type
C49   H39   S    
C28   C63   S    
C53   C54   S    
C53   O20   S    
Ba2   O8    S    
C63   H55   S    
O13   P2    S    
C11   H32   S    
O5    P4    S    
C32   C35   A    
C39   P2    S    
C55   H8    S    
C17   C29   A    
C15   C18   A    
C45   H4    S    
C2    H12   S    
C7    C59   S    
C4    H17   S    
C43   C44   A    
C13   C17   A    
C36   H31   S    
C24   C25   A    
C35   C36   A    
C10   C26   A    
C6    H24   S    
C21   C27   A    
C60   O28   D    
C16   C17   A    
C3    H14   S    
C3    C4    S    
C22   C24   A    
Ba2   O12   S    
Ba2   O14   S    
C34   O7    S    
C38   C47   A    
O19   P6    D    
C9    C22   A    
Ba2   P4    S    
C5    O11   S    
C34   C45   S    
C32   C33   A    
Ba1   O18   S    
Ba1   O8    S    
C45   H2    S    
C9    C13   A    
O22   P2    D    
C23   H41   S    
C25   C37   A    
C14   C15   A    
C53   H5    S    
O24   P3    D    
O18   P6    S    
C61   H53   S    
C54   H6    S    
Ba1   O22   S    
C50   H36   S    
C18   P8    S    
O2    P2    S    
C7    C8    S    
C39   C50   A    
C62   O30   D    
C8    H51   S    
O23   P3    S    
O16   P8    D    
C63   O31   D    
C37   P1    S    
C19   C20   A    
C7    O17   S    
Ba1   O12   S    
C55   H9    S    
C24   C32   A    
C4    H16   S    
C55   C56   S    
O14   P7    D    
C55   O2    S    
C51   H35   S    
C16   C21   A    
C5    C6    S    
C60   H52   S    
C34   H42   S    
C31   H34   S    
O4    P4    D    
O12   P1    S    
C48   C64   S    
C44   C49   A    
Ba2   O5    S    
C6    H23   S    
C34   H43   S    
C64   O32   D    
C1    H13   S    
C41   C42   A    
C22   C30   A    
C27   C28   A    
C42   H38   S    
C27   C61   S    
C33   H30   S    
O10   P5    D    
C12   O3    S    
C29   C30   A    
O15   P7    S    
C28   C29   A    
C44   C52   A    
C26   H29   S    
C15   C16   A    
C62   H54   S    
C2    O21   S    
C48   C49   A    
C1    C58   S    
Ba1   P1    S    
C1    H18   S    
C39   C51   A    
O7    P4    S    
O17   P8    S    
C58   O26   D    
C7    H25   S    
C5    H20   S    
C56   H10   S    
C46   C47   A    
C40   H37   S    
C38   C51   A    
C11   C13   A    
C3    O15   S    
Ba2   O6    S    
C23   H19   S    
Ba1   O13   S    
C1    C2    S    
C8    H50   S    
O21   P6    S    
C42   C43   A    
C4    H15   S    
C5    H21   S    
C43   C46   A    
C59   O27   D    
C19   H28   S    
Ba2   O9    S    
Ba2   O4    S    
C41   P5    S    
Ba1   P2    S    
C12   H27   S    
C10   C62   S    
O1    P1    D    
C45   H3    S    
C57   O25   D    
C9    C10   A    
C56   H11   S    
C57   H44   S    
C54   H7    S    
C53   C57   S    
C52   P7    S    
Ba1   O5    S    
O8    P7    S    
C14   C60   S    
C30   C31   A    
Ba1   O23   S    
O20   P1    S    
C20   P4    S    
C64   H56   S    
C54   H45   S    
Ba2   O13   S    
C56   H47   S    
C3    H48   S    
C36   C37   A    
Ba1   Ba2   S    
C2    H1    S    
C8    H26   S    
C31   C33   A    
O9    P5    S    
O3    P3    S    
C61   O29   D    
C12   C23   S    
C12   H33   S    
C58   H46   S    
C35   P6    S    
C23   H40   S    
C46   C50   A    
C18   C19   A    
O6    P8    S    
C47   C48   A    
C40   C41   A    
C11   C14   A    
C25   C26   A    
C6    H22   S    
C20   C21   A    
O11   P5    S    
Ba1   O1    S    
C40   C52   A    
C59   H49   S    
C38   P3    S    
