data_mof_unit_29534.cif
_audit_creation_date              2012-12-11T15:27:08-0500
_audit_creation_method            fapswitch 2.2
_symmetry_space_group_name_H-M    P1
_symmetry_Int_Tables_number       1
_space_group_crystal_system       triclinic
_cell_length_a                    13.928557
_cell_length_b                    13.963772
_cell_length_c                    27.412618
_cell_angle_alpha                 90.170753
_cell_angle_beta                  90.292208
_cell_angle_gamma                 119.695839
_cell_volume                      4631.25383064

loop_
_atom_site_label
_atom_site_type_symbol
_atom_type_description
_atom_site_fract_x
_atom_site_fract_y
_atom_site_fract_z
_atom_type_partial_charge
C1    C     C_R   0.235463 0.786949 0.569034 0.546970
C2    C     C_R   0.213477 0.448602 0.568810 0.547897
C3    C     C_R   0.552757 0.765291 0.568844 0.548244
C4    C     C_3   0.695312 0.734551 0.788174 0.198230
C5    C     C_3   0.240863 0.959449 0.787010 0.184111
C6    C     C_3   0.009765 0.252399 0.776635 0.212854
C7    C     C_3   0.699063 0.738265 0.729690 0.453442
C8    C     C_3   0.264884 0.954952 0.730469 0.445661
C9    C     C_3   0.028756 0.299750 0.722547 0.435405
C10   C     C_1   0.690359 0.843475 0.861528 0.057580
C11   C     C_1   0.151593 0.844210 0.861561 0.020496
C12   C     C_1   0.110302 0.240892 0.852164 0.078033
C13   C     C_1   0.626180 0.805456 0.659242 0.005879
C14   C     C_1   0.197793 0.816420 0.660090 -0.001840
C15   C     C_1   0.178501 0.374815 0.658060 -0.008693
C16   C     C_1   0.599875 0.793763 0.616793 0.064291
C17   C     C_1   0.208855 0.803834 0.617433 0.058256
C18   C     C_1   0.195907 0.403454 0.616364 0.041380
C19   C     C_R   0.071125 0.163883 0.941577 0.572510
C20   C     C_R   0.777933 0.885596 0.949586 0.557501
C21   C     C_R   0.114088 0.892205 0.949663 0.560091
C22   C     C_R   0.604935 0.803507 0.383666 -0.004690
C23   C     C_R   0.191176 0.809898 0.386449 -0.004817
C24   C     C_R   0.190918 0.381487 0.386319 -0.006555
C25   C     C_R   0.582896 0.876820 0.357316 -0.116800
C26   C     C_R   0.088840 0.730893 0.366563 -0.119456
C27   C     C_R   0.275802 0.368682 0.365213 -0.118503
C28   C     C_R   0.606225 0.893957 0.307646 0.241547
C29   C     C_R   0.059537 0.742002 0.318649 0.243119
C30   C     C_R   0.266035 0.330939 0.317013 0.241993
C31   C     C_R   0.657415 0.840850 0.284810 0.062325
C32   C     C_R   0.134550 0.833006 0.291021 0.070937
C33   C     C_R   0.169670 0.305095 0.290489 0.067613
C34   C     C_R   0.233122 0.787408 0.431530 0.542631
C35   C     C_R   0.212386 0.445525 0.431482 0.544715
C36   C     C_R   0.552644 0.765857 0.431157 0.544373
C37   C     C_R   0.686938 0.774079 0.312046 -0.167185
C38   C     C_R   0.232888 0.915166 0.312388 -0.163285
C39   C     C_R   0.081470 0.308916 0.313013 -0.169853
C40   C     C_R   0.659597 0.754348 0.361105 -0.138861
C41   C     C_R   0.260507 0.904274 0.359705 -0.139822
C42   C     C_R   0.091911 0.346802 0.360608 -0.138801
C43   C     C_R   0.647112 0.756187 0.203864 -0.120235
C44   C     C_R   0.139112 0.944498 0.220716 -0.133163
C45   C     C_R   0.068082 0.186515 0.220548 -0.145639
C46   C     C_R   0.672605 0.766192 0.154572 -0.119164
C47   C     C_R   0.142429 0.960885 0.170985 -0.109995
C48   C     C_R   0.051815 0.169569 0.170801 -0.130674
C49   C     C_R   0.745966 0.963932 0.160369 -0.141393
C50   C     C_R   0.091480 0.769894 0.156266 -0.140200
C51   C     C_R   0.224286 0.338084 0.155545 -0.146146
C52   C     C_R   0.724045 0.954419 0.209919 -0.070971
C53   C     C_R   0.091781 0.754235 0.206561 -0.063914
C54   C     C_R   0.240451 0.355768 0.205806 -0.066424
C55   C     C_R   0.676090 0.850706 0.232101 0.068474
C56   C     C_R   0.116708 0.842120 0.238927 0.068057
C57   C     C_R   0.161390 0.280478 0.238322 0.070186
C58   C     C_R   0.725527 0.870619 0.133045 0.020326
C59   C     C_R   0.120084 0.874359 0.138498 0.036209
C60   C     C_R   0.128258 0.246273 0.138177 0.030468
C61   C     C_R   0.106606 0.221566 0.086605 0.551435
C62   C     C_R   0.778405 0.885223 0.085909 0.549246
C63   C     C_R   0.114974 0.894764 0.086918 0.540437
C64   C     C_3   0.532579 0.771285 0.738618 -0.271270
C65   C     C_3   0.231236 0.758792 0.740917 -0.269707
C66   C     C_3   0.230025 0.438877 0.743735 -0.262321
C67   C     C_3   0.723170 0.931477 0.727988 -0.225767
C68   C     C_3   0.069383 0.787125 0.726572 -0.169760
C69   C     C_3   0.183198 0.249266 0.717146 -0.226541
C70   C     C_3   0.741566 0.938077 0.784023 0.083492
C71   C     C_3   0.054644 0.783796 0.782577 0.086582
C72   C     C_3   0.169759 0.215324 0.771602 0.068581
C73   C     C_1   0.724134 0.864215 0.902954 0.070453
C74   C     C_1   0.133343 0.858472 0.903081 0.055218
C75   C     C_1   0.096644 0.206845 0.893252 0.082943
C76   C     C_3   0.645378 0.810050 0.712408 -0.010998
C77   C     C_3   0.192194 0.830611 0.713169 -0.017070
C78   C     C_3   0.154241 0.341821 0.709198 -0.007718
C79   C     C_3   0.547128 0.788065 0.794756 -0.281970
C80   C     C_3   0.226460 0.771778 0.796967 -0.282781
C81   C     C_3   0.205251 0.402955 0.797723 -0.283141
C82   C     C_3   0.667828 0.824300 0.808635 -0.011066
C83   C     C_3   0.169845 0.840438 0.808728 -0.009603
C84   C     C_3   0.122314 0.277613 0.801118 -0.008569
Cr1   Cr    Cr6+3 0.164410 0.584450 0.499910 1.059153
Cr2   Cr    Cr6+3 0.415550 0.579960 0.499910 1.053872
Cr3   Cr    Cr6+3 0.420040 0.835590 0.499910 1.055713
Cr4   Cr    Cr6+3 0.156760 0.076070 0.017830 1.078222
Cr5   Cr    Cr6+3 0.923930 0.080690 0.017830 1.050543
Cr6   Cr    Cr6+3 0.919310 0.843240 0.017830 1.053923
H1    H     H_    0.526390 0.851789 0.806607 0.168456
H2    H     H_    0.180002 0.688791 0.813818 0.154518
H3    H     H_    0.283741 0.423035 0.816840 0.171495
H4    H     H_    0.473468 0.683593 0.730416 0.197803
H5    H     H_    0.316053 0.780404 0.730224 0.175750
H6    H     H_    0.220402 0.512135 0.737269 0.181405
H7    H     H_    0.488281 0.711044 0.813716 0.192505
H8    H     H_    0.311360 0.812045 0.812570 0.200730
H9    H     H_    0.171852 0.450943 0.816220 0.207292
H10   H     H_    0.779533 0.758419 0.801372 0.168970
H11   H     H_    0.184901 0.993474 0.788543 0.224428
H12   H     H_    0.963206 0.162537 0.771764 0.210132
H13   H     H_    0.539470 0.914436 0.374259 0.125123
H14   H     H_    0.033977 0.658547 0.387388 0.117857
H15   H     H_    0.351987 0.393445 0.385137 0.121833
H16   H     H_    0.607863 0.675174 0.220270 0.117236
H17   H     H_    0.157180 0.012816 0.245047 0.131246
H18   H     H_    0.007135 0.127303 0.245201 0.112099
H19   H     H_    0.655904 0.693281 0.133853 0.134229
H20   H     H_    0.161061 0.041288 0.157793 0.144917
H21   H     H_    0.979883 0.095627 0.157556 0.124530
H22   H     H_    0.748548 0.028581 0.231182 0.153536
H23   H     H_    0.076114 0.675012 0.220065 0.153632
H24   H     H_    0.312466 0.429479 0.219295 0.144283
H25   H     H_    0.786720 0.045339 0.144353 0.128778
H26   H     H_    0.071461 0.701996 0.131416 0.111991
H27   H     H_    0.284732 0.396339 0.130491 0.110862
H28   H     H_    0.727935 0.734221 0.294859 0.139980
H29   H     H_    0.291663 0.985582 0.291540 0.133627
H30   H     H_    0.006583 0.288333 0.292775 0.121260
H31   H     H_    0.494394 0.818952 0.724333 0.176144
H32   H     H_    0.178059 0.671048 0.730401 0.188896
H33   H     H_    0.317758 0.465329 0.736251 0.197651
H34   H     H_    0.677264 0.697656 0.380811 0.144784
H35   H     H_    0.339684 0.966798 0.374079 0.143851
H36   H     H_    0.024935 0.354931 0.376138 0.147447
H37   H     H_    0.803295 0.967655 0.708429 0.185330
H38   H     H_    0.039786 0.840113 0.709481 0.220031
H39   H     H_    0.131744 0.178476 0.692473 0.171685
H40   H     H_    0.685308 0.982556 0.717623 0.157167
H41   H     H_    0.016659 0.702511 0.711459 0.155638
H42   H     H_    0.270483 0.278642 0.706445 0.158656
H43   H     H_    0.717228 0.997657 0.798421 0.217868
H44   H     H_    0.007389 0.695604 0.793877 0.156284
H45   H     H_    0.253342 0.239360 0.786450 0.202900
O1    O     O_R   0.137310 0.468260 0.552980 -0.476525
O2    O     O_R   0.531740 0.669050 0.552980 -0.475060
O3    O     O_R   0.330950 0.862690 0.552980 -0.477208
O4    O     O_R   0.180530 0.983530 0.965090 -0.462467
O5    O     O_R   0.016470 0.197000 0.965090 -0.479624
O6    O     O_R   0.803000 0.819470 0.965090 -0.489385
O7    O     O_R   0.174120 0.688790 0.549730 -0.488198
O8    O     O_R   0.311210 0.485330 0.549730 -0.499766
O9    O     O_R   0.514670 0.825880 0.549730 -0.490132
O10   O     O_R   0.139940 0.470480 0.446230 -0.517699
O11   O     O_R   0.529520 0.669460 0.446230 -0.514438
O12   O     O_R   0.330540 0.860060 0.446230 -0.522941
O13   O     O_R   0.176560 0.690850 0.450770 -0.505602
O14   O     O_R   0.309150 0.485710 0.450770 -0.507038
O15   O     O_R   0.514290 0.823440 0.450770 -0.509379
O16   O     O_3   0.333333 0.666667 0.499990 -0.285162
O17   O     O_3   0.000000 0.000000 0.017910 -0.262714
O18   O     O_R   0.149710 0.171070 0.967700 -0.487834
O19   O     O_R   0.828930 0.978640 0.967700 -0.508668
O20   O     O_R   0.021360 0.850290 0.967700 -0.509157
O21   O     O_R   0.178510 0.985930 0.071830 -0.511612
O22   O     O_R   0.014070 0.192580 0.071830 -0.509765
O23   O     O_R   0.807420 0.821490 0.071830 -0.507455
O24   O     O_R   0.147830 0.173300 0.066650 -0.490301
O25   O     O_R   0.826700 0.974530 0.066650 -0.507825
O26   O     O_R   0.025470 0.852170 0.066650 -0.492059
O27   O     O_3   0.573066 0.955695 0.280317 -0.711668
H46   H     H_    0.537207 0.985691 0.301897 0.319080
O28   O     O_3   0.959983 0.665053 0.298061 -0.716260
H47   H     H_    0.917530 0.607048 0.322396 0.319406
O29   O     O_3   0.349630 0.321009 0.294906 -0.712233
H48   H     H_    0.411145 0.342597 0.318579 0.320594
O30   O     O_3   0.853260 0.980499 0.796764 -0.687407
H49   H     H_    0.880949 0.936779 0.779726 0.385473
O31   O     O_3   0.993727 0.836030 0.794748 -0.686302
H50   H     H_    0.957538 0.805500 0.826454 0.334606
O32   O     O_3   0.103938 0.100610 0.777755 -0.696037
H51   H     H_    0.048413 0.068676 0.751143 0.362632
S1    S     S_3+6 0.639587 0.605473 0.697480 0.100444
O33   O     O_2   0.680061 0.625704 0.645744 -0.283573
O34   O     O_2   0.677499 0.532325 0.720414 -0.139932
O35   O     O_3   0.500948 0.539577 0.695291 -0.548657
H52   H     H_    0.479229 0.470414 0.677021 0.372985
S2    S     S_3+6 0.411492 0.009833 0.715684 0.057258
O36   O     O_2   0.424498 0.961216 0.668915 -0.310404
O37   O     O_2   0.465137 0.132473 0.708894 -0.168480
O38   O     O_3   0.478859 0.982926 0.759652 -0.538080
H53   H     H_    0.557578 0.039670 0.756023 0.384694
S3    S     S_3+6 0.992753 0.408477 0.713602 0.055871
O39   O     O_2   0.051662 0.478464 0.670342 -0.313256
O40   O     O_2   0.870663 0.356198 0.703812 -0.161138
O41   O     O_3   0.026301 0.491842 0.762520 -0.540740
H54   H     H_    0.973207 0.519540 0.762181 0.378385
O42   O     O_3   0.812131 0.793276 0.717227 -0.718886
H55   H     H_    0.818927 0.808956 0.681746 0.341765
O43   O     O_3   0.228709 0.020114 0.705784 -0.709764
H56   H     H_    0.247977 0.023243 0.670814 0.346922
O44   O     O_3   0.959982 0.210884 0.691356 -0.731737
H57   H     H_    0.964468 0.239794 0.657932 0.358411
S4    S     S_3+6 0.612382 0.600615 0.817030 0.031393
O45   O     O_2   0.591237 0.614683 0.869544 -0.303608
O46   O     O_2   0.502795 0.533951 0.791852 -0.276547
O47   O     O_3   0.682414 0.531214 0.816173 -0.444456
H58   H     H_    0.630178 0.457227 0.829051 0.400281
S5    S     S_3+6 0.351850 0.057402 0.826669 0.069479
O48   O     O_2   0.416916 0.007801 0.847833 -0.228765
O49   O     O_2   0.428439 0.161780 0.800435 -0.181314
O50   O     O_3   0.296505 0.091939 0.873185 -0.501715
H59   H     H_    0.259204 0.129017 0.857876 0.337475
S6    S     S_3+6 0.916190 0.269682 0.817127 0.060166
O51   O     O_2   0.973900 0.378115 0.843857 -0.258695
O52   O     O_2   0.817982 0.259601 0.789720 -0.186883
O53   O     O_3   0.868995 0.168158 0.858628 -0.526888
H60   H     H_    0.817379 0.179958 0.879135 0.373022

loop_
_geom_bond_atom_site_label_1
_geom_bond_atom_site_label_2
_ccdc_geom_bond_type
C58   C62   S    
C4    S4    S    
O50   H59   S    
Cr6   O23   S    
C15   C18   T    
C24   C42   A    
C14   C17   T    
C24   C27   A    
C81   C84   S    
C6    C9    S    
C28   O27   S    
S6    O51   D    
C25   C28   A    
C45   C57   A    
C33   C39   A    
C20   O19   A    
C50   C59   A    
Cr4   O21   S    
O28   H47   S    
Cr1   O10   S    
C63   O21   A    
C37   C40   A    
C67   H37   S    
C61   O24   A    
C5    C83   S    
C10   C73   T    
C9    O44   S    
C14   C77   S    
C15   C78   S    
C2    C18   S    
O31   H50   S    
C52   H22   S    
C8    O43   S    
C39   H30   S    
C7    S1    S    
S3    O39   D    
C12   C84   S    
C45   H18   S    
C35   O10   A    
C23   C26   A    
O38   H53   S    
C6    S6    S    
C1    O7    A    
Cr2   O2    S    
C26   H14   S    
S1    O33   D    
C34   O13   A    
Cr5   O17   S    
C37   H28   S    
S5    O48   D    
Cr3   O15   S    
C19   O5    A    
C70   H43   S    
Cr1   O13   S    
O47   H58   S    
C3    O2    A    
C32   C38   A    
Cr3   O9    S    
C39   C42   A    
C68   H38   S    
C79   H1    S    
C44   C47   A    
S2    O38   S    
C49   C52   A    
C65   C80   S    
Cr3   O16   S    
C46   C58   A    
C27   C30   A    
C2    O8    A    
Cr4   O17   S    
C29   O28   S    
C69   C78   S    
C71   H44   S    
C4    C7    S    
C40   H34   S    
Cr2   O11   S    
C53   H23   S    
Cr2   O8    S    
C48   C60   A    
C5    S5    S    
C71   C83   S    
S6    O52   D    
C21   O20   A    
C66   C78   S    
C5    H11   S    
C24   C35   S    
C6    C84   S    
Cr6   O26   S    
O43   H56   S    
C50   C53   A    
C41   H35   S    
C65   C77   S    
C30   O29   S    
C38   C41   A    
Cr6   O17   S    
Cr2   O14   S    
O53   H60   S    
C72   H45   S    
S4    O45   D    
C81   H9    S    
C11   C83   S    
C21   C74   S    
C10   C82   S    
C2    O1    A    
C49   C58   A    
C31   C37   A    
C60   C61   S    
C45   C48   A    
C43   H16   S    
C80   H2    S    
C68   H41   S    
S4    O46   D    
Cr1   O16   S    
Cr4   O4    S    
C70   O30   S    
C5    C8    S    
C81   H3    S    
C34   O12   A    
C44   C56   A    
C69   H42   S    
C13   C76   S    
C23   C34   S    
C22   C40   A    
C44   H17   S    
C62   O23   A    
C64   C76   S    
C71   O31   S    
C1    O3    A    
C65   H32   S    
S1    O35   S    
C72   C84   S    
Cr3   O12   S    
C27   H15   S    
C61   O22   A    
C36   O11   A    
O30   H49   S    
C49   H25   S    
C22   C25   A    
O35   H52   S    
C4    H10   S    
O29   H48   S    
C19   O18   A    
C64   C79   S    
C62   O25   A    
C12   C75   T    
C67   H40   S    
C38   H29   S    
Cr3   O3    S    
C72   O32   S    
C69   C72   S    
O32   H51   S    
Cr5   O25   S    
C66   H6    S    
O27   H46   S    
S6    O53   S    
C43   C55   A    
C68   C77   S    
C63   O26   A    
C33   C57   S    
C30   C33   A    
C80   H8    S    
C59   C63   S    
C20   O6    A    
C79   H7    S    
C28   C31   A    
C25   H13   S    
C3    O9    A    
C11   C74   T    
Cr1   O7    S    
C79   C82   S    
C52   C55   A    
Cr5   O22   S    
C7    C76   S    
C51   C60   A    
C29   C32   A    
C47   H20   S    
C22   C36   S    
C1    C17   S    
C23   C41   A    
S3    O41   S    
S5    O50   S    
C67   C70   S    
Cr4   O18   S    
C51   C54   A    
C19   C75   S    
C13   C16   T    
C64   H4    S    
O41   H54   S    
C9    S3    S    
Cr2   O16   S    
C66   C81   S    
C8    S2    S    
C36   O15   A    
Cr5   O19   S    
C8    C77   S    
Cr4   O24   S    
C68   C71   S    
C54   H24   S    
C80   C83   S    
C51   H27   S    
S3    O40   D    
C20   C73   S    
C50   H26   S    
C9    C78   S    
C6    H12   S    
O42   H55   S    
C70   C82   S    
C43   C46   A    
S1    O34   D    
Cr6   O6    S    
C42   H36   S    
Cr1   O1    S    
C47   C59   A    
S2    O36   D    
S4    O47   S    
C65   H5    S    
C48   H21   S    
C4    C82   S    
C26   C29   A    
C69   H39   S    
O44   H57   S    
C46   H19   S    
C53   C56   A    
C21   O4    A    
C66   H33   S    
C7    O42   S    
Cr5   O5    S    
C67   C76   S    
C35   O14   A    
C31   C55   S    
Cr6   O20   S    
C32   C56   S    
S5    O49   D    
C3    C16   S    
C64   H31   S    
S2    O37   D    
C54   C57   A    
