data_mof_unit_29681.cif
_audit_creation_date              2013-03-05T16:02:16-0500
_audit_creation_method            fapswitch 2.2
_symmetry_space_group_name_H-M    P1
_symmetry_Int_Tables_number       1
_space_group_crystal_system       triclinic
_cell_length_a                    21.63836
_cell_length_b                    6.974883
_cell_length_c                    14.831504
_cell_angle_alpha                 90.400469
_cell_angle_beta                  106.25164
_cell_angle_gamma                 90.559259
_cell_volume                      2148.78848701

loop_
_atom_site_label
_atom_site_type_symbol
_atom_site_description
_atom_site_fract_x
_atom_site_fract_y
_atom_site_fract_z
_atom_type_partial_charge
O1    O     O_R   0.835850 0.638310 0.002120 -0.594609
O2    O     O_R   0.164150 0.361690 0.997880 -0.591899
O3    O     O_R   0.664150 0.138310 0.997880 -0.591955
O4    O     O_R   0.335850 0.861690 0.002120 -0.586782
O5    O     O_R   0.717530 0.306070 0.861970 -0.595165
O6    O     O_R   0.282470 0.693930 0.138030 -0.592711
O7    O     O_R   0.782470 0.806070 0.138030 -0.600748
O8    O     O_R   0.217530 0.193930 0.861970 -0.595718
C1    C     C_R   0.706269 0.476100 0.824418 0.922186
C2    C     C_R   0.295314 0.524468 0.175116 0.933317
C3    C     C_R   0.795380 0.978556 0.174985 0.932176
C4    C     C_R   0.206205 0.021588 0.824549 0.923049
O9    O     O_R   0.838690 0.308440 0.993250 -0.589545
O10   O     O_R   0.161310 0.691560 0.006750 -0.595574
O11   O     O_R   0.661310 0.808440 0.006750 -0.595609
O12   O     O_R   0.338690 0.191560 0.993250 -0.596973
O13   O     O_R   0.786170 0.140510 0.130090 -0.589104
O14   O     O_R   0.213830 0.859490 0.869910 -0.592403
O15   O     O_R   0.713830 0.640510 0.869910 -0.594481
O16   O     O_R   0.286170 0.359490 0.130090 -0.599630
C5    C     C_R   0.865387 0.478110 0.999771 0.944835
C6    C     C_R   0.134907 0.521541 0.002478 0.940484
C7    C     C_R   0.634819 0.976592 0.002354 0.938095
C8    C     C_R   0.365439 0.023602 0.999849 0.941260
O17   O     O_3   0.732630 0.472520 0.044740 -0.276513
O18   O     O_3   0.267370 0.527480 0.955260 -0.272821
O19   O     O_3   0.767370 0.972520 0.955260 -0.273024
O20   O     O_3   0.232630 0.027480 0.044740 -0.276475
V1    V     V_3+5 0.753220 0.196740 0.991700 1.163658
V2    V     V_3+5 0.246780 0.803260 0.008300 1.160613
V3    V     V_3+5 0.746780 0.696740 0.008300 1.156669
V4    V     V_3+5 0.253220 0.303260 0.991700 1.158698
C9    C     C_R   0.532497 0.015260 0.829723 -0.158169
C10   C     C_R   0.466705 0.976681 0.172632 -0.200970
C11   C     C_R   0.968004 0.454247 0.172601 -0.195200
C12   C     C_R   0.031638 0.536403 0.829798 -0.173634
C13   C     C_R   0.484446 0.034013 0.745246 -0.082739
C14   C     C_R   0.514074 0.950877 0.257056 -0.057750
C15   C     C_R   0.016164 0.434053 0.256703 -0.059486
C16   C     C_R   0.983062 0.549207 0.745521 -0.080892
C17   C     C_R   0.420256 0.049432 0.744575 0.095610
C18   C     C_R   0.578469 0.935906 0.258086 0.092746
C19   C     C_R   0.080673 0.431856 0.257187 0.081777
C20   C     C_R   0.918706 0.551416 0.745241 0.108355
C21   C     C_R   0.403738 0.044414 0.828900 -0.232828
C22   C     C_R   0.595685 0.947409 0.174112 -0.270138
C23   C     C_R   0.097307 0.456496 0.173347 -0.266473
C24   C     C_R   0.902517 0.533367 0.829452 -0.232612
C25   C     C_R   0.451413 0.023646 0.915679 0.089044
C26   C     C_R   0.548515 0.973377 0.087303 0.109839
C27   C     C_R   0.049354 0.480107 0.087076 0.112095
C28   C     C_R   0.950775 0.515649 0.915864 0.091441
C29   C     C_R   0.517175 0.009198 0.916244 0.075021
C30   C     C_R   0.482683 0.988205 0.086594 0.076300
C31   C     C_R   0.983359 0.475011 0.086500 0.072406
C32   C     C_R   0.016696 0.521334 0.916346 0.081996
C33   C     C_R   0.434238 0.014371 0.000835 -0.281018
C34   C     C_R   0.565914 0.985340 0.002054 -0.286567
C35   C     C_R   0.066090 0.508159 0.002135 -0.290927
C36   C     C_R   0.934148 0.490655 0.000772 -0.283005
H1    H     H_    0.581600 0.003951 0.826163 0.120490
H2    H     H_    0.417505 0.988381 0.175708 0.123885
H3    H     H_    0.918657 0.452840 0.175850 0.124673
H4    H     H_    0.080895 0.538071 0.826153 0.119726
H5    H     H_    0.497698 0.039611 0.680011 0.125204
H6    H     H_    0.500424 0.943620 0.321926 0.127323
H7    H     H_    0.002962 0.418813 0.321624 0.130202
H8    H     H_    0.995960 0.561811 0.680226 0.120463
H9    H     H_    0.353340 0.057070 0.825751 0.106728
H10   H     H_    0.646134 0.935793 0.177430 0.108019
H11   H     H_    0.147890 0.457189 0.176338 0.107280
H12   H     H_    0.851952 0.533825 0.826576 0.104051
C37   C     C_R   0.179576 0.006795 0.722417 -0.142815
C38   C     C_R   0.823313 0.997887 0.276277 -0.142318
C39   C     C_R   0.323165 0.526435 0.276883 -0.144582
C40   C     C_R   0.679913 0.478371 0.721920 -0.146041
C41   C     C_R   0.183144 0.876767 0.573191 -0.117505
C42   C     C_R   0.817370 0.137476 0.422373 -0.110788
C43   C     C_R   0.318192 0.645670 0.427283 -0.110750
C44   C     C_R   0.682878 0.369788 0.568752 -0.117337
C45   C     C_R   0.210800 0.898618 0.669367 -0.158778
C46   C     C_R   0.787969 0.088244 0.329379 -0.160167
C47   C     C_R   0.288510 0.609683 0.332989 -0.158059
C48   C     C_R   0.710720 0.379116 0.665256 -0.154786
C49   C     C_R   0.119566 0.085723 0.679368 -0.226940
C50   C     C_R   0.888868 0.962435 0.315838 -0.171288
C51   C     C_R   0.388264 0.483042 0.315345 -0.172530
C52   C     C_R   0.620228 0.561896 0.681635 -0.228953
C53   C     C_R   0.085501 0.036181 0.585561 0.122412
C54   C     C_R   0.921741 0.033483 0.406734 0.128355
C55   C     C_R   0.421733 0.541951 0.408220 0.127624
C56   C     C_R   0.585829 0.524982 0.586408 0.124555
C57   C     C_R   0.121060 0.945415 0.530867 0.157877
C58   C     C_R   0.883539 0.110120 0.461316 0.101925
C59   C     C_R   0.384128 0.612740 0.465038 0.104430
C60   C     C_R   0.620939 0.441798 0.528962 0.156455
C61   C     C_R   0.017935 0.066986 0.544619 -0.178229
C62   C     C_R   0.990370 0.025748 0.446020 -0.132662
C63   C     C_R   0.490352 0.529085 0.447016 -0.133549
C64   C     C_R   0.518362 0.560506 0.546489 -0.173727
C65   C     C_R   0.032089 0.984039 0.389215 0.560300
C66   C     C_R   0.975726 0.126763 0.598239 0.543813
C67   C     C_R   0.476646 0.616204 0.601622 0.541675
C68   C     C_R   0.531697 0.492590 0.388991 0.561194
C69   C     C_R   0.095852 0.929962 0.433985 -0.424764
C70   C     C_R   0.910872 0.156143 0.554953 -0.366940
C71   C     C_R   0.411873 0.649171 0.559504 -0.367513
C72   C     C_R   0.595461 0.436736 0.431959 -0.422789
H13   H     H_    0.127902 0.882346 0.394218 0.125578
H14   H     H_    0.880790 0.207204 0.597263 0.165279
H15   H     H_    0.382292 0.697756 0.603091 0.164963
H16   H     H_    0.627313 0.395819 0.390620 0.126404
H17   H     H_    0.912620 0.880190 0.273782 0.161922
H18   H     H_    0.101391 0.182821 0.721942 0.189422
H19   H     H_    0.602756 0.651937 0.727668 0.191524
H20   H     H_    0.411234 0.405533 0.270751 0.163438
H21   H     H_    0.737710 0.121515 0.298582 0.105860
H22   H     H_    0.257292 0.836197 0.701889 0.118124
H23   H     H_    0.756984 0.313309 0.695452 0.118993
H24   H     H_    0.238568 0.648198 0.303453 0.106578
H25   H     H_    0.209441 0.801163 0.532153 0.111901
H26   H     H_    0.788724 0.201640 0.463397 0.110861
H27   H     H_    0.290040 0.705014 0.470287 0.111214
H28   H     H_    0.708838 0.300554 0.525317 0.111414
C73   C     C_1   0.627102 0.911491 0.345998 0.002032
N1    N     N_1   0.666063 0.891793 0.416725 -0.079090
C74   C     C_1   0.371434 0.078253 0.657242 -0.019379
N2    N     N_1   0.332352 0.101994 0.587023 -0.079046
C75   C     C_1   0.869240 0.578939 0.658465 -0.019411
N3    N     N_1   0.829656 0.601772 0.588666 -0.079445
C76   C     C_1   0.129972 0.409357 0.344588 -0.000505
N4    N     N_1   0.169439 0.391069 0.414928 -0.078814
O21   O     O_3   0.009899 0.018925 0.292646 -0.655193
C77   C     C_3   0.048528 0.945863 0.238127 0.242541
H29   H     H_    0.060981 0.795396 0.255630 0.105485
H30   H     H_    0.093178 0.033530 0.248868 0.120352
C78   C     C_3   0.011176 0.950856 0.134709 -0.841682
H31   H     H_    0.999643 0.099720 0.112116 0.263375
H32   H     H_    0.040502 0.888768 0.091424 0.215733
H33   H     H_    0.965409 0.868299 0.122460 0.249944
O22   O     O_3   0.996099 0.166618 0.693156 -0.653432
C79   C     C_3   0.989449 0.000461 0.742967 0.213648
H34   H     H_    0.025012 0.893330 0.734619 0.105954
H35   H     H_    0.939633 0.940250 0.718696 0.112889
C80   C     C_3   0.003579 0.048704 0.846927 -0.834867
H36   H     H_    0.966247 0.146098 0.858168 0.257442
H37   H     H_    0.002496 0.916643 0.887524 0.216636
H38   H     H_    0.051895 0.117298 0.873165 0.254317
O23   O     O_3   0.497791 0.653417 0.696689 -0.655838
C81   C     C_3   0.488722 0.488878 0.745892 0.213001
H39   H     H_    0.523098 0.378089 0.737555 0.106659
H40   H     H_    0.438242 0.434235 0.721152 0.115166
C82   C     C_3   0.502996 0.536816 0.849905 -0.839838
H41   H     H_    0.466945 0.639242 0.861097 0.258445
H42   H     H_    0.499980 0.405454 0.890033 0.217845
H43   H     H_    0.552162 0.599508 0.876711 0.254303
O24   O     O_3   0.509773 0.536929 0.293471 -0.653714
C83   C     C_3   0.545238 0.455656 0.236274 0.240131
H44   H     H_    0.556608 0.304563 0.254090 0.102291
H45   H     H_    0.590561 0.538191 0.243650 0.121966
C84   C     C_3   0.505273 0.460469 0.134056 -0.843196
H46   H     H_    0.494395 0.609595 0.111302 0.264849
H47   H     H_    0.532262 0.393683 0.088658 0.215775
H48   H     H_    0.459071 0.381933 0.125074 0.246827

loop_
_geom_bond_atom_site_label_1
_geom_bond_atom_site_label_2
_geom_bond_distance
_ccdc_geom_bond_type
O17   V3    1.710772 S    
C7    C34   1.491609 S    
O1    C5    1.297728 A    
O24   C83   1.412815 S    
C51   C55   1.420806 A    
O19   V1    1.709329 S    
O13   V1    2.018085 S    
C17   C74   1.440867 S    
O3    C7    1.300063 A    
O1    V3    2.000694 S    
C68   O24   1.400206 S    
C44   C48   1.389650 A    
O15   V3    2.009787 S    
C40   C48   1.394419 A    
C77   C78   1.521365 S    
C61   C62   1.442081 A    
O7    C3    1.313143 A    
C78   H32   1.109886 S    
C31   C36   1.417341 A    
C26   C30   1.426360 A    
C73   N1    1.157277 T    
C50   H17   1.078177 S    
O9    V1    1.993925 S    
C49   H18   1.072501 S    
C24   H12   1.083009 S    
C14   C18   1.394144 A    
C44   H28   1.080383 S    
O4    C8    1.298045 A    
C56   C60   1.415526 A    
C25   C33   1.414501 A    
O17   V1    2.170040 S    
O2    V4    2.000695 S    
C18   C22   1.398896 A    
C70   H14   1.083680 S    
O3    V1    1.993279 S    
C12   C16   1.393994 A    
C28   C36   1.414613 A    
C18   C73   1.440520 S    
C80   H37   1.107598 S    
C28   C32   1.424588 A    
O22   C79   1.406349 S    
C1    O15   1.311773 A    
C58   C70   1.382702 A    
C14   H6    1.083938 S    
C2    O16   1.311523 A    
C8    C33   1.486697 S    
C81   C82   1.520231 S    
C13   H5    1.084185 S    
O2    C6    1.298080 A    
O14   V2    2.018085 S    
C1    C40   1.466888 S    
C21   C25   1.415659 A    
C44   C60   1.404067 A    
C40   C52   1.397132 A    
C16   C20   1.391626 A    
C27   C31   1.425748 A    
C61   C66   1.431704 A    
C83   C84   1.521461 S    
C57   C69   1.389907 A    
O11   C7    1.304477 A    
C63   C68   1.427625 A    
C60   C72   1.389235 A    
O12   C8    1.303889 A    
C4    C37   1.464683 S    
C83   H45   1.110501 S    
C79   C80   1.520184 S    
C15   H7    1.083890 S    
O10   V2    1.993923 S    
C37   C45   1.394299 A    
C84   H47   1.110136 S    
C54   C58   1.414749 A    
O5    V1    2.019988 S    
C9    C29   1.413157 A    
C78   H33   1.109969 S    
C65   C69   1.409849 A    
O7    V3    2.004082 S    
C21   H9    1.082893 S    
O8    V4    2.004081 S    
C52   C56   1.420514 A    
O20   V4    2.172077 S    
C5    C36   1.485507 S    
C50   C54   1.419864 A    
C6    C35   1.489679 S    
C49   C53   1.418708 A    
O18   V4    1.710772 S    
C77   H30   1.110695 S    
C20   C75   1.440608 S    
C11   C31   1.414655 A    
C45   H22   1.083592 S    
C64   C67   1.431751 A    
C9    C13   1.394199 A    
C72   H16   1.081807 S    
C53   C61   1.436475 A    
C26   C34   1.419367 A    
C47   H24   1.083616 S    
C11   C15   1.392657 A    
O5    C1    1.309553 A    
C12   C32   1.413080 A    
C2    C39   1.460122 S    
C42   C46   1.386698 A    
C63   C64   1.443750 A    
C41   C45   1.390480 A    
O8    C4    1.312194 A    
C23   H11   1.082905 S    
O9    C5    1.302824 A    
C38   C50   1.400222 A    
C82   H43   1.110320 S    
O11   V3    2.008105 S    
C37   C49   1.397032 A    
C51   H20   1.077499 S    
C59   C71   1.381749 A    
C39   C51   1.400798 A    
C66   O22   1.377745 S    
O18   V2    2.170039 S    
O19   V3    2.172076 S    
O21   C77   1.411757 S    
C81   H40   1.112923 S    
C82   H42   1.107320 S    
C74   N2    1.157313 T    
C10   H2    1.082107 S    
C80   H36   1.107397 S    
C68   C72   1.408332 A    
C84   H48   1.109523 S    
C80   H38   1.110533 S    
C56   C64   1.438230 A    
C67   C71   1.387717 A    
C75   N3    1.157313 T    
O16   V4    2.009787 S    
C69   H13   1.081591 S    
C3    O13   1.303742 A    
C53   C57   1.415124 A    
O6    V2    2.019990 S    
C10   C14   1.392563 A    
C71   H15   1.084079 S    
C3    C38   1.458691 S    
O6    C2    1.306443 A    
C23   C27   1.415674 A    
C29   C34   1.419429 A    
C10   C30   1.414993 A    
C77   H29   1.100731 S    
C65   O21   1.401191 S    
O12   V4    2.008107 S    
C62   C65   1.427168 A    
C78   H31   1.102620 S    
C22   C26   1.415499 A    
C81   H39   1.107735 S    
C32   C35   1.418494 A    
O10   C6    1.304670 A    
C52   H19   1.070789 S    
C19   C76   1.440505 S    
O20   V2    1.709329 S    
C84   H46   1.102909 S    
O23   C81   1.405553 S    
C43   C47   1.385851 A    
C39   C47   1.393886 A    
C83   H44   1.101604 S    
C43   H27   1.080692 S    
C42   C58   1.401444 A    
C48   H23   1.083653 S    
C25   C29   1.425235 A    
C41   C57   1.404555 A    
C66   C70   1.388060 A    
C79   H35   1.113444 S    
C13   C17   1.391436 A    
C42   H26   1.080464 S    
O4    V2    1.993277 S    
C22   H10   1.082756 S    
C41   H25   1.080536 S    
C67   O23   1.377050 S    
C55   C59   1.414874 A    
C20   C24   1.394545 A    
C24   C28   1.415598 A    
C27   C35   1.419142 A    
C15   C19   1.394127 A    
C9    H1    1.082085 S    
C16   H8    1.084192 S    
C4    O14   1.307778 A    
C17   C21   1.394160 A    
C79   H34   1.108657 S    
C11   H3    1.082211 S    
C46   H21   1.083330 S    
C55   C63   1.438376 A    
C82   H41   1.108228 S    
C12   H4    1.082167 S    
C43   C59   1.401049 A    
C19   C23   1.399148 A    
C54   C62   1.437143 A    
C38   C46   1.393545 A    
C76   N4    1.157268 T    
C30   C33   1.417982 A    
