data_mof_unit_5360.cif
_audit_creation_date              2012-12-11T19:42:17-0500
_audit_creation_method            fapswitch 2.2
_symmetry_space_group_name_H-M    P1
_symmetry_Int_Tables_number       1
_space_group_crystal_system       triclinic
_cell_length_a                    8.200864
_cell_length_b                    15.052194
_cell_length_c                    27.006205
_cell_angle_alpha                 98.312724
_cell_angle_beta                  92.89741
_cell_angle_gamma                 81.144965
_cell_volume                      3257.96666553

loop_
_atom_site_label
_atom_site_type_symbol
_atom_type_description
_atom_site_fract_x
_atom_site_fract_y
_atom_site_fract_z
_atom_type_partial_charge
Ba1   Ba    Ba6+2 0.860050 0.456430 0.522530 1.642871
Ba2   Ba    Ba6+2 0.329780 0.543490 0.477460 1.653185
C1    C     C_3   0.753550 0.119053 0.646150 -0.364363
C2    C     C_R   0.943580 0.595687 0.184445 0.591010
C3    C     C_2   0.761757 0.571309 0.274984 -0.092379
C4    C     C_3   0.154597 0.264007 0.655238 0.324522
C5    C     C_3   0.735259 0.595157 0.330552 -0.065162
C6    C     C_1   0.982699 0.485121 0.343246 0.040093
C7    C     C_2   0.022667 0.478126 0.295421 -0.077187
C8    C     C_2   0.905730 0.522068 0.258191 0.217939
C9    C     C_R   0.024931 0.507986 0.103903 -0.082208
C10   C     C_R   0.034323 0.428032 0.126100 -0.034160
C11   C     C_R   0.080502 0.344283 0.096617 -0.062317
C12   C     C_3   0.700174 0.212363 0.630271 0.358992
C13   C     C_R   0.978665 0.592263 0.133417 -0.028045
C14   C     C_2   0.845942 0.534385 0.361745 -0.272094
C15   C     C_2   0.353585 0.477282 0.640663 -0.278199
C16   C     C_3   0.137569 0.239613 0.707269 -0.280583
C17   C     C_R   0.160584 0.415000 0.972507 -0.018160
C18   C     C_R   0.074859 0.580007 0.977723 0.035077
C19   C     C_R   0.136365 0.495277 0.949486 0.044372
C20   C     C_R   0.232200 0.333549 0.944013 -0.158209
C21   C     C_R   0.273120 0.329049 0.893720 0.433613
C22   C     C_R   0.243106 0.408155 0.869957 -0.043278
C23   C     C_3   0.495055 0.673103 0.630859 0.292278
C24   C     C_R   0.174585 0.491006 0.897842 -0.145577
C25   C     C_R   0.145043 0.569985 0.874196 -0.020844
C26   C     C_R   0.182942 0.565648 0.823168 0.594693
C27   C     C_R   0.281383 0.406511 0.818991 0.608536
C28   C     C_3   0.217173 0.264962 0.413074 0.314837
C29   C     C_2   0.437812 0.437081 0.725874 -0.086894
C30   C     C_3   0.458775 0.411769 0.670303 -0.045255
C31   C     C_1   0.209155 0.518470 0.657887 0.027982
C32   C     C_2   0.167081 0.520215 0.705350 -0.099274
C33   C     C_2   0.289864 0.480385 0.743024 0.188040
C34   C     C_3   0.492375 0.695002 0.687591 -0.353961
C35   C     C_R   0.115145 0.418531 0.023357 0.038152
C36   C     C_R   0.061947 0.503749 0.052203 0.050734
C37   C     C_R   0.045388 0.584813 0.029906 0.018267
C38   C     C_R   0.119717 0.339458 0.046567 -0.097510
C39   C     C_R   0.969135 0.671818 0.111463 -0.060610
C40   C     C_3   0.238024 0.162357 0.398630 -0.387840
C41   C     C_R   0.044056 0.657273 0.952480 -0.099171
C42   C     C_R   0.078189 0.652207 0.902067 -0.052076
C43   C     C_R   0.001200 0.668347 0.061010 -0.102674
C44   C     C_R   0.843176 0.831422 0.465815 -0.028067
C45   C     C_3   0.942809 0.798196 0.349861 0.287845
C46   C     C_R   0.778615 0.924944 0.470579 -0.030694
C47   C     C_R   0.644407 0.112258 0.480904 -0.036518
C48   C     C_R   0.785832 0.077857 0.452644 -0.039244
C49   C     C_R   0.854237 0.986640 0.448822 -0.106923
C50   C     C_R   0.578716 0.205843 0.487817 0.043174
C51   C     C_R   0.436743 0.235907 0.515604 -0.306684
C52   C     C_3   0.978226 0.735026 0.586086 0.313212
C53   C     C_R   0.616807 0.803836 0.513372 0.025649
C54   C     C_R   0.552344 0.896605 0.519598 -0.031752
C55   C     C_R   0.631882 0.957372 0.497442 0.017583
C56   C     C_3   0.970262 0.824487 0.299048 -0.302832
C57   C     C_R   0.410090 0.930147 0.547256 -0.051124
C58   C     C_R   0.343170 0.020846 0.551500 -0.099710
C59   C     C_R   0.419084 0.082505 0.529887 -0.034957
C60   C     C_R   0.565965 0.050941 0.503083 0.005898
C61   C     C_R   0.352017 0.174900 0.534354 -0.005334
C62   C     C_R   0.756505 0.771921 0.485039 -0.288474
C63   C     C_3   0.957221 0.837621 0.600698 -0.385579
C64   C     C_3   0.693634 0.344795 0.372307 0.296798
C65   C     C_3   0.699622 0.323290 0.315585 -0.358446
C66   C     C_3   0.470991 0.785629 0.364467 0.430048
C67   C     C_3   0.424478 0.873440 0.342022 -0.361066
C68   C     C_R   0.994892 0.433334 0.177114 0.593045
H1    H     H_    0.743818 0.210706 0.591798 0.075501
H2    H     H_    0.813003 0.364090 0.387143 0.007056
H3    H     H_    0.593617 0.402419 0.381881 0.082452
H4    H     H_    0.889569 0.100340 0.644470 0.146278
H5    H     H_    0.804911 0.269214 0.304790 0.133923
H6    H     H_    0.715023 0.384788 0.299189 0.073255
H7    H     H_    0.582766 0.300027 0.300251 0.133007
H8    H     H_    0.562936 0.225520 0.629909 -0.063586
H9    H     H_    0.695248 0.067515 0.620536 0.069880
H10   H     H_    0.371552 0.657963 0.616900 0.017515
H11   H     H_    0.589344 0.612478 0.621081 0.068416
H12   H     H_    0.324895 0.141272 0.367395 0.125438
H13   H     H_    0.395743 0.753845 0.698692 0.136432
H14   H     H_    0.465042 0.635651 0.704019 0.074980
H15   H     H_    0.614478 0.711520 0.702512 0.133630
H16   H     H_    0.714568 0.118896 0.684918 0.130073
H17   H     H_    0.115679 0.302636 0.734338 0.117473
H18   H     H_    0.916793 0.727318 0.344570 0.026552
H19   H     H_    0.835399 0.845492 0.366154 -0.023629
H20   H     H_    0.075679 0.778199 0.280813 0.172915
H21   H     H_    0.857129 0.820130 0.275004 0.118590
H22   H     H_    0.997015 0.895373 0.303489 0.087688
H23   H     H_    0.287599 0.127767 0.430906 0.061595
H24   H     H_    0.607801 0.773084 0.368138 -0.146305
H25   H     H_    0.419530 0.794861 0.402444 0.082941
H26   H     H_    0.475312 0.929432 0.366298 0.061102
H27   H     H_    0.288453 0.891388 0.339070 0.143126
H28   H     H_    0.066860 0.326761 0.651169 0.095756
H29   H     H_    0.476437 0.865716 0.304189 0.111383
H30   H     H_    0.141565 0.441617 0.283090 0.113303
H31   H     H_    0.086373 0.281400 0.112191 0.122256
H32   H     H_    0.532850 0.409495 0.751248 0.117727
H33   H     H_    0.262554 0.271824 0.960367 0.059082
H34   H     H_    0.116790 0.140838 0.386701 0.119347
H35   H     H_    0.149421 0.271888 0.026793 0.072853
H36   H     H_    0.674025 0.603813 0.249268 0.101753
H37   H     H_    0.935943 0.737858 0.133338 0.118409
H38   H     H_    0.990080 0.723079 0.970390 0.067973
H39   H     H_    0.282790 0.276543 0.651569 -0.051389
H40   H     H_    0.051957 0.713837 0.884913 0.121738
H41   H     H_    0.043968 0.550559 0.717118 0.126606
H42   H     H_    0.993566 0.733065 0.047817 0.069741
H43   H     H_    0.824706 0.544332 0.401629 0.079140
H44   H     H_    0.388354 0.480279 0.602759 0.075860
H45   H     H_    0.857865 0.714187 0.574157 -0.001163
H46   H     H_    0.847175 0.120474 0.433253 0.103242
H47   H     H_    0.965270 0.965017 0.427716 0.093408
H48   H     H_    0.231828 0.041419 0.572427 0.113120
H49   H     H_    0.346206 0.887073 0.565604 0.101701
H50   H     H_    0.385445 0.307149 0.519796 0.074779
H51   H     H_    0.031091 0.202654 0.708354 0.146995
H52   H     H_    0.804996 0.700283 0.481004 0.063666
H53   H     H_    0.251377 0.195990 0.718444 0.135521
H54   H     H_    0.339128 0.285691 0.423122 0.001890
H55   H     H_    0.135597 0.283688 0.445658 0.069822
H56   H     H_    0.064415 0.716071 0.554726 0.074826
H57   H     H_    0.354853 0.198870 0.889108 0.296800
H58   H     H_    0.863828 0.859003 0.630129 0.131299
H59   H     H_    0.916080 0.872527 0.567877 0.062752
H60   H     H_    0.076756 0.858588 0.615160 0.121399
N1    N     N_R   0.949242 0.516697 0.205815 -0.422752
N2    N     N_R   0.250003 0.484415 0.795827 -0.435015
O1    O     O_2   0.906480 0.548660 0.619050 -0.459419
O2    O     O_2   0.183562 0.823755 0.472961 -0.486788
O3    O     O_3   0.085242 0.805375 0.380178 -0.583411
O4    O     O_3   0.138490 0.548590 0.558870 -0.496304
O5    O     O_3   0.572560 0.389960 0.472890 -0.489594
O6    O     O_2   0.345660 0.723580 0.528500 -0.466174
O7    O     O_3   0.533458 0.748075 0.610871 -0.644106
O8    O     O_2   0.419258 0.536590 0.323721 -0.482688
O9    O     O_3   0.407199 0.714117 0.333777 -0.569323
O10   O     O_2   0.999224 0.363627 0.195707 -0.598127
O11   O     O_2   0.342417 0.335117 0.795071 -0.552523
O12   O     O_3   0.664330 0.267586 0.391747 -0.639266
O13   O     O_2   0.908890 0.669437 0.210004 -0.625140
O14   O     O_2   0.158815 0.634782 0.803405 -0.594164
O15   O     O_3   0.686300 0.382310 0.585700 -0.480674
O16   O     O_2   0.787462 0.453691 0.676174 -0.497460
O17   O     O_3   0.038573 0.694078 0.627862 -0.625257
O18   O     O_3   0.769050 0.278544 0.663686 -0.595657
O19   O     O_2   0.844040 0.276390 0.471470 -0.469130
O20   O     O_3   0.101510 0.335500 0.560330 -0.492073
O21   O     O_2   0.012428 0.175210 0.526667 -0.484776
O22   O     O_3   0.343074 0.247391 0.867396 -0.670367
O23   O     O_3   0.118085 0.192144 0.619410 -0.612004
O24   O     O_2   0.283210 0.451310 0.380920 -0.458340
O25   O     O_3   0.051220 0.451340 0.441120 -0.499439
O26   O     O_3   0.503410 0.617620 0.414290 -0.474315
O27   O     O_3   0.149266 0.305868 0.371948 -0.628865
O28   O     O_3   0.617150 0.609960 0.527100 -0.478660
O29   O     O_3   0.088210 0.664420 0.439670 -0.464942
P1    P     P_3+3 0.071950 0.575820 0.612140 0.990070
P2    P     P_3+3 0.664370 0.290050 0.457240 0.972534
P3    P     P_3+3 0.146143 0.218781 0.559786 0.934596
P4    P     P_3+3 0.117760 0.424110 0.387850 0.991675
P5    P     P_3+3 0.047663 0.782301 0.439828 0.953832
P6    P     P_3+3 0.676550 0.385315 0.650139 0.948582
P7    P     P_3+3 0.531528 0.722796 0.545527 0.938847
P8    P     P_3+3 0.515630 0.612104 0.349524 0.975709

loop_
_geom_bond_atom_site_label_1
_geom_bond_atom_site_label_2
_ccdc_geom_bond_type
C53   C54   A    
O8    P8    D    
C23   O7    S    
C40   H23   S    
C12   H1    S    
C65   H7    S    
C19   C24   A    
C67   H26   S    
C1    H9    S    
C14   H43   S    
C63   H60   S    
C43   H42   S    
C46   C55   A    
C52   C63   S    
O4    P1    S    
C52   H56   S    
C24   C25   A    
C4    H28   S    
C17   C19   A    
C22   C24   A    
C32   C33   S    
C35   C38   A    
C36   C37   A    
C27   N2    Am   
C64   O12   S    
C2    O13   D    
C34   H13   S    
C23   H10   S    
C54   C55   A    
H57   O22   S    
Ba1   O20   S    
O6    P7    D    
Ba1   Ba2   S    
C59   C61   A    
C1    H4    S    
C8    N1    S    
C11   C38   A    
C17   C35   A    
C22   C27   A    
C9    C13   A    
C25   C42   A    
C46   C49   A    
C64   H2    S    
C66   C67   S    
C40   H12   S    
Ba2   O24   S    
C21   C22   A    
O2    P5    D    
C58   H48   S    
C52   O17   S    
Ba1   O4    S    
C44   P5    S    
C56   H21   S    
C4    O23   S    
C16   H53   S    
C37   C43   A    
C59   C60   A    
C12   H8    S    
C64   C65   S    
C28   H55   S    
C57   C58   A    
C6    C14   D    
O1    P1    D    
C1    H16   S    
C23   H11   S    
C32   H41   S    
C45   H19   S    
C61   P3    S    
C15   C31   D    
C53   P7    S    
Ba1   O1    S    
Ba2   O29   S    
C15   H44   S    
C31   C32   D    
C2    N1    Am   
C3    H36   S    
C28   O27   S    
C4    C16   S    
C44   C46   A    
C68   O10   D    
C66   H25   S    
O21   P3    D    
Ba2   O6    S    
C63   H58   S    
C55   C60   A    
C17   C20   A    
C13   C39   A    
O25   P4    S    
C3    C5    S    
C18   C37   A    
C6    C7    D    
C23   C34   S    
C21   O22   S    
C64   H3    S    
C52   H45   S    
Ba2   O4    S    
C20   H33   S    
O27   P4    S    
C44   C62   A    
C58   C59   A    
C26   N2    Am   
C9    C36   A    
C41   C42   A    
C29   H32   S    
C35   C36   A    
C29   C30   S    
Ba2   O26   S    
C47   C50   A    
C53   C62   A    
C12   O18   S    
O9    P8    S    
C48   C49   A    
C66   O9    S    
C18   C19   A    
C56   H20   S    
Ba2   P4    S    
O20   P3    S    
C1    C12   S    
O15   P6    S    
C67   H29   S    
C5    C14   S    
C28   H54   S    
Ba1   P1    S    
C7    H30   S    
O19   P2    D    
C5    P8    S    
O12   P2    S    
O23   P3    S    
C4    H39   S    
C29   C33   D    
Ba1   O15   S    
C65   H5    S    
C11   H31   S    
C67   H27   S    
C18   C41   A    
Ba1   O5    S    
C50   C51   A    
O5    P2    S    
C7    C8    S    
C15   C30   S    
C10   C68   A    
C57   H49   S    
C47   C60   A    
C39   H37   S    
C45   O3    S    
Ba2   O5    S    
Ba1   O28   S    
O29   P5    S    
C40   H34   S    
C63   H59   S    
C9    C10   A    
O26   P8    S    
C65   H6    S    
C34   H15   S    
C16   H51   S    
C26   O14   D    
C16   H17   S    
C54   C57   A    
C45   H18   S    
C2    C13   A    
Ba1   O25   S    
C31   P1    S    
C3    C8    D    
C45   C56   S    
C51   C61   A    
O24   P4    D    
C34   H14   S    
Ba2   O25   S    
C62   H52   S    
O18   P6    S    
C68   N1    Am   
C49   H47   S    
O3    P5    S    
Ba1   O19   S    
C48   H46   S    
C41   H38   S    
O28   P7    S    
O7    P7    S    
C66   H24   S    
C6    P4    S    
C50   P2    S    
C10   C11   A    
Ba1   P2    S    
Ba2   O28   S    
C47   C48   A    
C30   P6    S    
C51   H50   S    
C25   C26   A    
O16   P6    D    
C39   C43   A    
C20   C21   A    
C28   C40   S    
O17   P1    S    
C56   H22   S    
C33   N2    S    
C42   H40   S    
C38   H35   S    
C27   O11   D    
