data_mof_unit_22552.cif
_audit_creation_date              2012-12-10T17:49:38-0500
_audit_creation_method            fapswitch 2.2
_symmetry_space_group_name_H-M    P1
_symmetry_Int_Tables_number       1
_space_group_crystal_system       triclinic
_cell_length_a                    10.505351
_cell_length_b                    10.638811
_cell_length_c                    9.976756
_cell_angle_alpha                 90.197367
_cell_angle_beta                  90.709775
_cell_angle_gamma                 92.956143
_cell_volume                      1113.46804278

loop_
_atom_site_label
_atom_site_type_symbol
_atom_type_description
_atom_site_fract_x
_atom_site_fract_y
_atom_site_fract_z
_atom_type_partial_charge
C1    C     C_R   0.502385 0.260947 0.499981 0.906211
C2    C     C_3   0.951302 0.396622 0.432316 -0.427898
C3    C     C_3   0.038237 0.395644 0.557806 0.505147
C4    C     C_3   0.123066 0.500848 0.497695 -0.291878
C5    C     C_R   0.720977 0.145888 0.616682 -0.151142
C6    C     C_R   0.824526 0.088106 0.673189 -0.179562
C7    C     C_R   0.828527 0.957916 0.670717 -0.189462
C8    C     C_R   0.728317 0.884401 0.613307 0.610676
C9    C     C_R   0.619679 0.941327 0.558705 -0.103884
C10   C     C_R   0.617237 0.073323 0.559527 0.016151
C11   C     C_R   0.511631 0.129127 0.500077 -0.157753
C12   C     C_R   0.257858 0.500367 0.499152 1.024257
C13   C     C_R   0.411603 0.059071 0.439469 -0.237315
C14   C     C_R   0.412239 0.930728 0.439898 0.585797
C15   C     C_R   0.513965 0.872341 0.500212 -0.242106
C16   C     C_R   0.325284 0.329480 0.129477 0.690941
C17   C     C_R   0.243768 0.249874 0.053148 -0.200975
C18   C     C_R   0.247299 0.252348 0.915644 -0.239040
C19   C     C_R   0.332473 0.334954 0.852578 -0.094893
C20   C     C_R   0.416721 0.418200 0.924894 0.073511
C21   C     C_R   0.415337 0.417235 0.069334 0.033677
C22   C     C_R   0.579923 0.577987 0.072710 -0.073672
C23   C     C_R   0.505319 0.739385 0.500226 1.025392
C24   C     C_R   0.579835 0.577965 0.930136 -0.029771
C25   C     C_R   0.742144 0.498938 0.500780 0.996054
C26   C     C_3   0.048357 0.602317 0.567164 -0.347346
C27   C     C_3   0.962371 0.495579 0.626658 0.688403
C28   C     C_3   0.876991 0.498456 0.501936 -0.277739
C29   C     C_3   0.960902 0.605329 0.440752 -0.214605
C30   C     C_3   0.037361 0.503588 0.373309 0.733036
H1    H     H_    0.910490 0.913519 0.712481 0.179511
H2    H     H_    0.645486 0.641979 0.126928 0.151764
H3    H     H_    0.645365 0.642004 0.878088 0.185448
H4    H     H_    0.091490 0.685123 0.622257 0.212039
H5    H     H_    0.723889 0.247465 0.617526 0.165452
H6    H     H_    0.902535 0.144558 0.717937 0.230655
N1    N     N_R   0.498800 0.498800 0.142780 -0.108602
N2    N     N_R   0.498760 0.498720 0.857170 -0.116921
O1    O     O_R   0.500000 0.316780 0.614690 -0.665250
O2    O     O_R   0.499990 0.316750 0.385360 -0.563493
O3    O     O_R   0.313960 0.499980 0.614650 -0.653400
O4    O     O_R   0.313940 0.499960 0.385310 -0.504093
O5    O     O_R   0.500010 0.683250 0.614640 -0.598083
O6    O     O_R   0.500000 0.683220 0.385310 -0.600630
O7    O     O_R   0.686060 0.500040 0.614690 -0.552570
O8    O     O_R   0.686040 0.500020 0.385350 -0.637637
Zn1   Zn    Zn3+2 0.500010 0.500020 0.653130 1.005697
Zn2   Zn    Zn3+2 0.499990 0.499980 0.346870 1.050327
F1    F     F_    0.920266 0.489642 0.757379 -0.613866
F2    F     F_    0.741503 0.758706 0.609142 -0.695730
F3    F     F_    0.311669 0.862702 0.384480 -0.653288
F4    F     F_    0.309558 0.314100 0.260696 -0.652551
H7    H     H_    0.176752 0.184734 0.102007 0.194029
H8    H     H_    0.183684 0.189595 0.857283 0.220860
H9    H     H_    0.329115 0.330192 0.746510 0.244252
H10   H     H_    0.924944 0.690356 0.391822 0.205138
F5    F     F_    0.079808 0.508357 0.242676 -0.603750
H11   H     H_    0.908287 0.313248 0.378103 0.201827
F6    F     F_    0.083522 0.289733 0.618007 -0.679818
H12   H     H_    0.331229 0.104030 0.394665 0.222471

loop_
_geom_bond_atom_site_label_1
_geom_bond_atom_site_label_2
_ccdc_geom_bond_type
C4    C26   S    
C2    H11   S    
C16   C21   A    
C29   H10   S    
C25   O7    A    
C4    C12   S    
C20   N2    A    
C9    C10   A    
C24   N2    A    
C24   H3    S    
C1    C11   S    
C8    F2    S    
C2    C30   S    
C16   F4    S    
C2    C28   S    
C15   C23   S    
C17   C18   A    
O3    Zn1   S    
C23   O5    A    
C7    C8    A    
C13   H12   S    
O4    Zn2   S    
C13   C14   A    
N1    Zn2   S    
O6    Zn2   S    
C11   C13   A    
N2    Zn1   S    
C29   C30   S    
C22   H2    S    
C26   C29   S    
C5    H5    S    
C3    C27   S    
C28   C29   S    
C6    H6    S    
C2    C3    S    
C6    C7    A    
O8    Zn2   S    
O7    Zn1   S    
C14   F3    S    
C26   C27   S    
C5    C6    A    
C22   C24   A    
C7    H1    S    
C10   C11   A    
C18   H8    S    
C27   F1    S    
C3    C4    S    
C30   F5    S    
C17   H7    S    
C5    C10   A    
C21   N1    A    
C20   C21   A    
C12   O3    A    
O1    Zn1   S    
C18   C19   A    
C19   H9    S    
C27   C28   S    
O2    Zn2   S    
C1    O1    A    
C14   C15   A    
C16   C17   A    
C12   O4    A    
C1    O2    A    
C9    C15   A    
C22   N1    A    
O5    Zn1   S    
C25   O8    A    
C26   H4    S    
C4    C30   S    
C23   O6    A    
C19   C20   A    
C8    C9    A    
C25   C28   S    
C3    F6    S    
