data_mof_unit_34735.cif
_audit_creation_date              2012-12-11T14:13:20-0500
_audit_creation_method            fapswitch 2.2
_symmetry_space_group_name_H-M    P1
_symmetry_Int_Tables_number       1
_space_group_crystal_system       triclinic
_cell_length_a                    11.650915
_cell_length_b                    18.616818
_cell_length_c                    9.953443
_cell_angle_alpha                 90.005569
_cell_angle_beta                  110.863143
_cell_angle_gamma                 89.993678
_cell_volume                      2017.3782707

loop_
_atom_site_label
_atom_site_type_symbol
_atom_type_description
_atom_site_fract_x
_atom_site_fract_y
_atom_site_fract_z
_atom_type_partial_charge
C1    C     C_R   0.073876 0.645978 0.140413 0.572132
C2    C     C_R   0.926123 0.354022 0.859587 0.572182
C3    C     C_R   0.926120 0.145973 0.859580 0.571904
C4    C     C_R   0.073880 0.854027 0.140420 0.571903
C5    C     C_R   0.395587 0.460148 0.494390 -0.021996
C6    C     C_R   0.604403 0.539849 0.505608 -0.022026
C7    C     C_R   0.604425 0.960074 0.505981 -0.022223
C8    C     C_R   0.395570 0.039930 0.494003 -0.022223
C9    C     C_2   0.401881 0.924277 0.917186 -0.085313
C10   C     C_2   0.598125 0.075724 0.082817 -0.085297
C11   C     C_2   0.598234 0.424319 0.082702 -0.085335
C12   C     C_2   0.401766 0.575675 0.917316 -0.085354
C13   C     C_2   0.503983 0.960372 0.991887 -0.038370
C14   C     C_2   0.496013 0.039631 0.008141 -0.038375
C15   C     C_2   0.496039 0.460372 0.008224 -0.038560
C16   C     C_2   0.503948 0.539618 0.991824 -0.038526
C17   C     C_2   0.012027 0.922742 0.113977 -0.084413
C18   C     C_2   0.987974 0.077258 0.886023 -0.084436
C19   C     C_2   0.987984 0.422729 0.886043 -0.084347
C20   C     C_2   0.012016 0.577271 0.113958 -0.084353
C21   C     C_2   0.021988 0.963504 0.008569 -0.147027
C22   C     C_2   0.978014 0.036497 0.991432 -0.147018
C23   C     C_2   0.978015 0.463505 0.991439 -0.147433
C24   C     C_2   0.021989 0.536494 0.008564 -0.147387
C25   C     C_R   0.470658 0.647162 0.443975 0.538704
C26   C     C_R   0.529340 0.352837 0.556023 0.538714
C27   C     C_R   0.529382 0.147155 0.556036 0.538661
C28   C     C_R   0.470616 0.852846 0.443961 0.538657
C29   C     C_R   0.377153 0.646535 0.960338 0.577885
C30   C     C_R   0.622846 0.353462 0.039666 0.577922
C31   C     C_R   0.622834 0.146544 0.039676 0.577889
C32   C     C_R   0.377167 0.853457 0.960325 0.577855
C33   C     C_R   0.500629 0.424608 0.487644 -0.003168
C34   C     C_R   0.499362 0.575390 0.512350 -0.003180
C35   C     C_R   0.499227 0.924616 0.512358 -0.003322
C36   C     C_R   0.500768 0.075387 0.487629 -0.003314
C37   C     C_R   0.286302 0.422235 0.477722 -0.072467
C38   C     C_R   0.713691 0.577761 0.522299 -0.072431
C39   C     C_R   0.713672 0.922063 0.522989 -0.071745
C40   C     C_R   0.286326 0.077943 0.477001 -0.071720
C41   C     C_R   0.192068 0.453815 0.515823 0.283067
C42   C     C_R   0.807931 0.546181 0.484217 0.283037
C43   C     C_R   0.808031 0.953492 0.485059 0.282447
C44   C     C_R   0.191974 0.046517 0.514944 0.282452
C45   C     C_R   0.205525 0.525126 0.560801 -0.091697
C46   C     C_R   0.794484 0.474872 0.439233 -0.091708
C47   C     C_R   0.794924 0.024808 0.440133 -0.092589
C48   C     C_R   0.205074 0.975201 0.559865 -0.092592
C49   C     C_R   0.307801 0.564892 0.565021 -0.134137
C50   C     C_R   0.692198 0.435107 0.434984 -0.134137
C51   C     C_R   0.692676 0.064702 0.435657 -0.134052
C52   C     C_R   0.307317 0.935304 0.564330 -0.134047
C53   C     C_R   0.401237 0.534169 0.524373 0.002251
C54   C     C_R   0.598753 0.465830 0.475621 0.002243
C55   C     C_R   0.598976 0.034088 0.475976 0.002241
C56   C     C_R   0.401018 0.965916 0.524008 0.002241
Cr1   Cr    Cr6+3 0.187610 0.750000 0.979860 1.021425
Cr2   Cr    Cr6+3 0.812390 0.250000 0.020140 1.021357
Cr3   Cr    Cr6+3 0.245810 0.750000 0.341640 1.010011
Cr4   Cr    Cr6+3 0.754190 0.250000 0.658360 1.010026
Cr5   Cr    Cr6+3 0.485760 0.750000 0.219910 1.054387
Cr6   Cr    Cr6+3 0.514240 0.250000 0.780090 1.054436
H1    H     H_    0.137240 0.549883 0.595903 0.187785
H2    H     H_    0.862780 0.450118 0.404148 0.187754
H3    H     H_    0.863415 0.049445 0.405258 0.188301
H4    H     H_    0.136587 0.950567 0.594749 0.188294
H5    H     H_    0.276312 0.367917 0.436644 0.123690
H6    H     H_    0.723693 0.632078 0.563385 0.123774
H7    H     H_    0.723592 0.867754 0.564110 0.124369
H8    H     H_    0.276404 0.132252 0.435881 0.124382
H9    H     H_    0.315381 0.619010 0.606831 0.148049
H10   H     H_    0.684622 0.380990 0.393170 0.148043
H11   H     H_    0.685324 0.118812 0.393871 0.148242
H12   H     H_    0.314667 0.881194 0.606116 0.148239
H13   H     H_    0.679825 0.047849 0.149324 0.060227
H14   H     H_    0.320189 0.952149 0.850654 0.060212
H15   H     H_    0.320003 0.547766 0.851106 0.060075
H16   H     H_    0.680004 0.452230 0.148888 0.060093
H17   H     H_    0.932225 0.056028 0.062490 0.165486
H18   H     H_    0.067778 0.943972 0.937511 0.165475
H19   H     H_    0.067789 0.556009 0.937514 0.165214
H20   H     H_    0.932216 0.443989 0.062490 0.165194
H21   H     H_    0.028154 0.056509 0.810508 0.130557
H22   H     H_    0.971846 0.943491 0.189492 0.130582
H23   H     H_    0.971826 0.556538 0.189465 0.131223
H24   H     H_    0.028173 0.443462 0.810534 0.131309
O1    O     O_R   0.267710 0.668200 0.902110 -0.541863
O2    O     O_R   0.732290 0.331800 0.097890 -0.541911
O3    O     O_R   0.732290 0.168200 0.097890 -0.541452
O4    O     O_R   0.267710 0.831800 0.902110 -0.541443
O5    O     O_R   0.099480 0.674460 0.038850 -0.498495
O6    O     O_R   0.900520 0.325540 0.961150 -0.498542
O7    O     O_R   0.900520 0.174460 0.961150 -0.498199
O8    O     O_R   0.099480 0.825540 0.038850 -0.498201
O9    O     O_R   0.116720 0.669210 0.267660 -0.521569
O10   O     O_R   0.883280 0.330790 0.732340 -0.521477
O11   O     O_R   0.883280 0.169210 0.732340 -0.522000
O12   O     O_R   0.116720 0.830790 0.267660 -0.521992
O13   O     O_R   0.366710 0.675440 0.427590 -0.503975
O14   O     O_R   0.633290 0.324560 0.572410 -0.503983
O15   O     O_R   0.633290 0.175440 0.572410 -0.503993
O16   O     O_R   0.366710 0.824560 0.427590 -0.503993
O17   O     O_R   0.534870 0.669390 0.371760 -0.532744
O18   O     O_R   0.465130 0.330610 0.628240 -0.532716
O19   O     O_R   0.465130 0.169390 0.628240 -0.532881
O20   O     O_R   0.534870 0.830610 0.371760 -0.532877
O21   O     O_R   0.453080 0.674480 0.075160 -0.459038
O22   O     O_R   0.546920 0.325520 0.924840 -0.458998
O23   O     O_R   0.546920 0.174480 0.924840 -0.459068
O24   O     O_R   0.453080 0.825520 0.075160 -0.459087
O25   O     O_3   0.306390 0.750000 0.180470 -0.256233
O26   O     O_3   0.693610 0.250000 0.819530 -0.256238
O27   O     O_3   0.084342 0.419058 0.508736 -0.579820
C57   C     C_3   0.099342 0.344303 0.530659 -0.138968
H25   H     H_    0.184038 0.330701 0.623394 0.127232
H26   H     H_    0.097869 0.317250 0.430641 0.106284
H27   H     H_    0.020144 0.323333 0.555629 0.155135
O28   O     O_3   0.915666 0.580947 0.491392 -0.579828
C58   C     C_3   0.900495 0.655660 0.468896 -0.138923
H28   H     H_    0.901780 0.682894 0.568662 0.106159
H29   H     H_    0.815828 0.669091 0.375978 0.127309
H30   H     H_    0.979707 0.676594 0.443913 0.155241
O29   O     O_3   0.915653 0.918480 0.492733 -0.580692
C59   C     C_3   0.898934 0.844120 0.465944 -0.138277
H31   H     H_    0.814365 0.832065 0.371833 0.128149
H32   H     H_    0.898904 0.815572 0.563844 0.105155
H33   H     H_    0.978079 0.823344 0.440621 0.155741
O30   O     O_3   0.084359 0.081537 0.507276 -0.580692
C60   C     C_3   0.101125 0.155885 0.534187 -0.138274
H34   H     H_    0.101184 0.184474 0.436341 0.105081
H35   H     H_    0.185696 0.167900 0.628324 0.128181
H36   H     H_    0.021988 0.176656 0.559533 0.155763
C61   C     C_2   0.377347 0.079273 0.941824 0.256144
H37   H     H_    0.314922 0.066791 0.834387 0.098537
O31   O     O_2   0.349398 0.127329 0.007961 -0.493609
C62   C     C_2   0.622646 0.920732 0.058248 0.256167
H38   H     H_    0.685017 0.933200 0.165721 0.098573
O32   O     O_2   0.650646 0.872696 0.992112 -0.493623
C63   C     C_2   0.622616 0.579291 0.057827 0.256326
H39   H     H_    0.685172 0.566886 0.165242 0.099341
O33   O     O_2   0.650405 0.627292 0.991460 -0.493469
C64   C     C_2   0.377367 0.420696 0.942268 0.256322
H40   H     H_    0.314749 0.433120 0.834894 0.099445
O34   O     O_2   0.349640 0.372667 0.008628 -0.493422

loop_
_geom_bond_atom_site_label_1
_geom_bond_atom_site_label_2
_ccdc_geom_bond_type
C44   C48   A    
C23   H20   S    
C4    O12   A    
C12   C29   S    
Cr3   O13   S    
C7    C55   A    
C19   H24   S    
C6    C34   A    
O30   C60   S    
C8    C56   A    
C57   H25   S    
O29   C59   S    
Cr6   O19   S    
C50   C54   A    
C40   H8    S    
Cr2   O26   S    
C5    C53   A    
Cr5   O17   S    
Cr2   O7    S    
C22   H17   S    
C38   C42   A    
C52   H12   S    
C42   C46   A    
Cr6   O22   S    
C5    C37   A    
C27   O19   A    
C15   C16   S    
C3    C18   S    
C8    C36   A    
C9    C13   D    
O28   C58   S    
C50   H10   S    
C9    C32   S    
C26   O18   A    
C11   C15   D    
C10   C31   S    
C25   O13   A    
C32   O4    A    
C20   C24   D    
C11   C30   S    
C28   O20   A    
C31   O3    A    
C5    C33   A    
Cr3   O25   S    
C23   C24   S    
C6    C38   A    
C9    H14   S    
C40   C44   A    
C25   C34   S    
C60   H36   S    
C35   C56   A    
C1    O5    A    
C21   C22   S    
C12   H15   S    
Cr3   O9    S    
C6    C54   A    
Cr5   O24   S    
Cr6   O18   S    
C58   H29   S    
C39   H7    S    
Cr1   O4    S    
C12   C16   D    
C28   C35   S    
C62   O32   D    
Cr4   O11   S    
C10   C14   D    
C42   O28   S    
C47   C51   A    
C27   O15   A    
C17   C21   D    
Cr1   O1    S    
C46   H2    S    
C19   C23   D    
C24   H19   S    
Cr4   O26   S    
C11   H16   S    
C15   C64   S    
C10   H13   S    
C3    O11   A    
C26   C33   S    
C57   H26   S    
C45   C49   A    
C1    O9    A    
C20   H23   S    
C18   H21   S    
C31   O23   A    
C3    O7    A    
C58   H28   S    
C2    O6    A    
Cr5   O20   S    
C32   O24   A    
C59   H33   S    
C4    O8    A    
C4    C17   S    
Cr4   O10   S    
C38   H6    S    
Cr1   O8    S    
C61   H37   S    
C13   C62   S    
C64   O34   D    
C16   C63   S    
C30   O2    A    
Cr4   O15   S    
Cr5   O25   S    
C43   O29   S    
C59   H32   S    
O27   C57   S    
C58   H30   S    
C33   C54   A    
C44   O30   S    
C1    C20   S    
C7    C39   A    
Cr1   O5    S    
C30   O22   A    
C2    C19   S    
C18   C22   D    
Cr3   O16   S    
C7    C35   A    
C25   O17   A    
C51   H11   S    
C41   O27   S    
C62   H38   S    
Cr4   O14   S    
Cr2   O2    S    
C39   C43   A    
C63   H39   S    
C14   C61   S    
C27   C36   S    
C46   C50   A    
C17   H22   S    
C2    O10   A    
C60   H34   S    
C36   C55   A    
C63   O33   D    
Cr1   O25   S    
Cr6   O23   S    
Cr2   O6    S    
C49   C53   A    
C37   H5    S    
C21   H18   S    
C45   H1    S    
C51   C55   A    
C37   C41   A    
Cr5   O21   S    
Cr2   O3    S    
C29   O1    A    
C57   H27   S    
C28   O16   A    
C48   C52   A    
Cr6   O26   S    
C34   C53   A    
C49   H9    S    
C61   O31   D    
Cr3   O12   S    
C41   C45   A    
C64   H40   S    
C29   O21   A    
C8    C40   A    
C48   H4    S    
C13   C14   S    
C43   C47   A    
C47   H3    S    
C52   C56   A    
C26   O14   A    
C59   H31   S    
C60   H35   S    
