data_mof_unit_63465.cif
_audit_creation_date              2012-12-11T19:24:46-0500
_audit_creation_method            fapswitch 2.2
_symmetry_space_group_name_H-M    P1
_symmetry_Int_Tables_number       1
_space_group_crystal_system       triclinic
_cell_length_a                    19.558932
_cell_length_b                    22.492745
_cell_length_c                    8.312982
_cell_angle_alpha                 89.999613
_cell_angle_beta                  103.289118
_cell_angle_gamma                 90.003273
_cell_volume                      3559.23446453

loop_
_atom_site_label
_atom_site_type_symbol
_atom_type_description
_atom_site_fract_x
_atom_site_fract_y
_atom_site_fract_z
_atom_type_partial_charge
Ba1   Ba    Ba6+2 0.999900 0.457470 0.844900 1.640560
Ba2   Ba    Ba6+2 0.999900 0.542530 0.344900 1.640330
Ba3   Ba    Ba6+2 0.499900 0.957470 0.844900 1.640615
Ba4   Ba    Ba6+2 0.499900 0.042530 0.344900 1.640299
C1    C     C_3   0.054057 0.177484 0.606058 -0.252621
C2    C     C_R   0.785345 0.676527 0.538740 -0.031487
C3    C     C_1   0.504558 0.367473 0.018663 0.285034
C4    C     C_3   0.939595 0.224197 0.077788 -0.293977
C5    C     C_3   0.939122 0.776006 0.575227 -0.293270
C6    C     C_3   0.439740 0.724249 0.078510 -0.294221
C7    C     C_3   0.438794 0.275643 0.572725 -0.292562
C8    C     C_R   0.285309 0.823490 0.038744 -0.031248
C9    C     C_R   0.285340 0.176524 0.538741 -0.031558
C10   C     C_R   0.742932 0.330576 0.878973 -0.046044
C11   C     C_R   0.743016 0.669466 0.378888 -0.045638
C12   C     C_R   0.243010 0.830526 0.878850 -0.045969
C13   C     C_R   0.243006 0.169461 0.378894 -0.045678
C14   C     C_R   0.194118 0.787703 0.808931 -0.112195
C15   C     C_R   0.194104 0.212270 0.308974 -0.112047
C16   C     C_R   0.693993 0.287781 0.809106 -0.112322
C17   C     C_3   0.054418 0.822367 0.107329 -0.252910
C18   C     C_R   0.694114 0.712275 0.308966 -0.111964
C19   C     C_R   0.838732 0.365094 0.106978 0.049327
C20   C     C_R   0.838799 0.634947 0.606913 0.048870
C21   C     C_R   0.338725 0.865098 0.106972 0.049515
C22   C     C_R   0.338793 0.134942 0.606916 0.048804
C23   C     C_R   0.878461 0.356126 0.268461 -0.297783
C24   C     C_R   0.878607 0.643975 0.768299 -0.297830
C25   C     C_R   0.378412 0.856160 0.268504 -0.297728
C26   C     C_R   0.378601 0.143967 0.768304 -0.297818
C27   C     C_R   0.159297 0.636715 0.085590 0.035952
C28   C     C_3   0.554044 0.677492 0.605843 -0.252572
C29   C     C_R   0.159295 0.363275 0.585611 0.036146
C30   C     C_R   0.659277 0.136728 0.085641 0.036014
C31   C     C_R   0.659293 0.863274 0.585612 0.036115
C32   C     C_R   0.212272 0.678636 0.154614 -0.043704
C33   C     C_R   0.212291 0.321369 0.654611 -0.043591
C34   C     C_R   0.712254 0.178648 0.154662 -0.043736
C35   C     C_R   0.712284 0.821366 0.654619 -0.043538
C36   C     C_R   0.222198 0.729977 0.062587 0.014390
C37   C     C_R   0.222216 0.270026 0.562589 0.014593
C38   C     C_R   0.722155 0.230004 0.062667 0.014433
C39   C     C_3   0.553905 0.322539 0.105357 -0.252675
C40   C     C_R   0.722212 0.770024 0.562594 0.014597
C41   C     C_R   0.256036 0.670740 0.312680 -0.035860
C42   C     C_R   0.256084 0.329287 0.812642 -0.035753
C43   C     C_R   0.756046 0.170733 0.312687 -0.035832
C44   C     C_R   0.756068 0.829280 0.812661 -0.035939
C45   C     C_3   0.016531 0.205844 0.104686 0.361573
C46   C     C_3   0.016267 0.793982 0.604732 0.361641
C47   C     C_3   0.516613 0.705795 0.104683 0.361565
C48   C     C_3   0.515950 0.293842 0.603720 0.361596
C49   C     C_R   0.804743 0.213713 0.383345 -0.093426
C50   C     C_R   0.181830 0.737682 0.899090 -0.033648
C51   C     C_R   0.804795 0.786321 0.883290 -0.093447
C52   C     C_R   0.304713 0.713731 0.383358 -0.093460
C53   C     C_R   0.304817 0.286331 0.883263 -0.093178
C54   C     C_R   0.814737 0.265102 0.295708 -0.038768
C55   C     C_R   0.814815 0.734947 0.795627 -0.038835
C56   C     C_R   0.314716 0.765115 0.295707 -0.038740
C57   C     C_R   0.314828 0.234952 0.795610 -0.038881
C58   C     C_R   0.774251 0.272850 0.132311 0.015673
C59   C     C_R   0.774317 0.727188 0.632239 0.015574
C60   C     C_R   0.274268 0.772839 0.132264 0.015596
C61   C     C_R   0.181820 0.262299 0.399120 -0.033736
C62   C     C_R   0.274321 0.227189 0.632231 0.015466
C63   C     C_R   0.865288 0.308227 0.365378 -0.018507
C64   C     C_R   0.865418 0.691859 0.865248 -0.018493
C65   C     C_R   0.365245 0.808255 0.365403 -0.018406
C66   C     C_R   0.365416 0.191854 0.865245 -0.018211
C67   C     C_R   0.117825 0.646863 0.926475 -0.288202
C68   C     C_R   0.117804 0.353106 0.426522 -0.288259
C69   C     C_R   0.617783 0.146889 0.926563 -0.288065
C70   C     C_R   0.617801 0.853105 0.426526 -0.288217
C71   C     C_3   0.021098 0.140539 0.057147 -0.345437
C72   C     C_R   0.681743 0.237736 0.899224 -0.033627
C73   C     C_3   0.021551 0.859436 0.559434 -0.346074
C74   C     C_3   0.520980 0.640535 0.056514 -0.345438
C75   C     C_3   0.521226 0.359349 0.558688 -0.345540
C76   C     C_3   0.200655 0.462375 0.278031 0.312954
C77   C     C_3   0.200670 0.537625 0.778015 0.312853
C78   C     C_3   0.700658 0.962377 0.278021 0.312946
C79   C     C_3   0.700648 0.037629 0.778042 0.312862
C80   C     C_3   0.265863 0.423215 0.317083 -0.380968
C81   C     C_3   0.265888 0.576778 0.817098 -0.380848
C82   C     C_3   0.765866 0.923217 0.317066 -0.380943
C83   C     C_R   0.681822 0.762299 0.399120 -0.033784
C84   C     C_3   0.765851 0.076800 0.817111 -0.380814
C85   C     C_3   0.797632 0.537949 0.911095 0.313025
C86   C     C_3   0.797531 0.462091 0.411022 0.312926
C87   C     C_3   0.297632 0.037950 0.911119 0.312981
C88   C     C_3   0.297500 0.962104 0.410958 0.313011
C89   C     C_3   0.731984 0.576668 0.878181 -0.394800
C90   C     C_3   0.731851 0.423403 0.378142 -0.394589
C91   C     C_3   0.231979 0.076664 0.878165 -0.394723
C92   C     C_3   0.231818 0.923420 0.378172 -0.394697
C93   C     C_3   0.020500 0.239140 0.585215 0.391975
C94   C     C_R   0.785281 0.323508 0.038801 -0.031233
C95   C     C_3   0.020803 0.760728 0.086532 0.392475
C96   C     C_3   0.520504 0.739156 0.585096 0.391937
C97   C     C_3   0.520645 0.260781 0.085693 0.392235
C98   C     C_R   0.130224 0.695257 0.830301 -0.031655
C99   C     C_R   0.130194 0.304709 0.330349 -0.032199
C100  C     C_R   0.630151 0.195302 0.830428 -0.031623
C101  C     C_R   0.630189 0.804706 0.330356 -0.032228
C102  C     C_1   0.004934 0.132269 0.519763 0.284832
C103  C     C_1   0.005374 0.867606 0.020880 0.285132
C104  C     C_1   0.504949 0.632312 0.519204 0.284712
H1    H     H_    0.059007 0.271157 0.657151 0.063176
H2    H     H_    0.251865 0.622718 0.845191 0.062935
H3    H     H_    0.935504 0.728191 0.601878 0.090856
H4    H     H_    0.912797 0.801768 0.657609 0.061546
H5    H     H_    0.911418 0.784046 0.444738 0.148645
H6    H     H_    0.436934 0.771605 0.111284 0.086158
H7    H     H_    0.411646 0.718320 0.947348 0.150257
H8    H     H_    0.413307 0.697318 0.158352 0.063222
H9    H     H_    0.411837 0.301785 0.653139 0.061310
H10   H     H_    0.411663 0.283001 0.441469 0.150545
H11   H     H_    0.435247 0.227965 0.601238 0.090001
H12   H     H_    0.751840 0.877284 0.345216 0.062893
H13   H     H_    0.751818 0.122728 0.845276 0.062964
H14   H     H_    0.290364 0.421721 0.209111 0.128411
H15   H     H_    0.290415 0.578252 0.709160 0.128416
H16   H     H_    0.790367 0.921725 0.209092 0.128429
H17   H     H_    0.790355 0.078305 0.709144 0.128443
H18   H     H_    0.817541 0.535056 0.797317 0.010590
H19   H     H_    0.817399 0.465000 0.297183 0.010609
H20   H     H_    0.317562 0.035067 0.797365 0.010625
H21   H     H_    0.059141 0.728742 0.159126 0.064084
H22   H     H_    0.317317 0.965029 0.297054 0.010630
H23   H     H_    0.837745 0.558545 0.012172 0.064815
H24   H     H_    0.837654 0.441464 0.512023 0.064592
H25   H     H_    0.337731 0.058545 0.012231 0.064824
H26   H     H_    0.337651 0.941465 0.511878 0.064474
H27   H     H_    0.691708 0.558061 0.773852 0.126053
H28   H     H_    0.691562 0.442048 0.273896 0.126010
H29   H     H_    0.191723 0.058067 0.773773 0.126085
H30   H     H_    0.191483 0.942099 0.274083 0.126121
H31   H     H_    0.744495 0.622533 0.846173 0.060897
H32   H     H_    0.559007 0.771154 0.657169 0.063237
H33   H     H_    0.744313 0.377541 0.346008 0.060860
H34   H     H_    0.244497 0.122537 0.846227 0.060876
H35   H     H_    0.244248 0.877571 0.345851 0.060764
H36   H     H_    0.710152 0.578499 0.990215 0.118339
H37   H     H_    0.710054 0.421555 0.490234 0.118509
H38   H     H_    0.210116 0.078475 0.990160 0.118365
H39   H     H_    0.210095 0.921527 0.490362 0.118405
H40   H     H_    0.009208 0.251614 0.452345 -0.126389
H41   H     H_    0.009831 0.748107 0.953836 -0.126342
H42   H     H_    0.509252 0.751671 0.452235 -0.126387
H43   H     H_    0.559235 0.228998 0.158360 0.063790
H44   H     H_    0.509533 0.247924 0.953132 -0.126233
H45   H     H_    0.101704 0.177349 0.554886 0.028089
H46   H     H_    0.102100 0.822446 0.056287 0.028160
H47   H     H_    0.601751 0.677387 0.554883 0.028080
H48   H     H_    0.601446 0.322664 0.053917 0.028144
H49   H     H_    0.070088 0.165978 0.739218 0.106555
H50   H     H_    0.070412 0.833905 0.240474 0.106605
H51   H     H_    0.569981 0.665921 0.738985 0.106533
H52   H     H_    0.570014 0.334353 0.238243 0.105875
H53   H     H_    0.996242 0.111720 0.135999 0.104979
H54   H     H_    0.304414 0.441166 0.425687 0.131815
H55   H     H_    0.996246 0.888048 0.637835 0.105464
H56   H     H_    0.496252 0.611648 0.135458 0.104965
H57   H     H_    0.494853 0.387796 0.635446 0.105499
H58   H     H_    0.747009 0.368848 0.803740 0.102571
H59   H     H_    0.747088 0.631195 0.303654 0.102649
H60   H     H_    0.247088 0.868792 0.803600 0.102593
H61   H     H_    0.247075 0.131188 0.303663 0.102675
H62   H     H_    0.165759 0.795031 0.683220 0.091501
H63   H     H_    0.165714 0.204910 0.183294 0.091171
H64   H     H_    0.665577 0.295142 0.683465 0.091850
H65   H     H_    0.304418 0.558835 0.925755 0.131795
H66   H     H_    0.665726 0.704912 0.183281 0.091097
H67   H     H_    0.835217 0.205218 0.506873 0.107756
H68   H     H_    0.835282 0.794824 0.006805 0.107712
H69   H     H_    0.335156 0.705254 0.506926 0.107793
H70   H     H_    0.335308 0.294834 0.006774 0.107530
H71   H     H_    0.253448 0.631504 0.385529 0.112083
H72   H     H_    0.253485 0.368522 0.885489 0.112052
H73   H     H_    0.753470 0.131488 0.385510 0.112127
H74   H     H_    0.753469 0.868514 0.885510 0.112033
H75   H     H_    0.918210 0.388391 0.322079 0.070070
H76   H     H_    0.804418 0.941167 0.425673 0.131779
H77   H     H_    0.918372 0.611724 0.821897 0.070221
H78   H     H_    0.418143 0.888436 0.322144 0.069996
H79   H     H_    0.418362 0.111714 0.821906 0.070223
H80   H     H_    0.078497 0.614329 0.872335 0.069779
H81   H     H_    0.078468 0.385632 0.372392 0.069721
H82   H     H_    0.578470 0.114345 0.872403 0.069731
H83   H     H_    0.578465 0.885631 0.372395 0.069716
H84   H     H_    0.042597 0.209364 0.237618 -0.027239
H85   H     H_    0.041702 0.789928 0.737860 -0.027432
H86   H     H_    0.542844 0.709167 0.237555 -0.027102
H87   H     H_    0.804403 0.058852 0.925714 0.131751
H88   H     H_    0.540984 0.289806 0.737160 -0.027762
H89   H     H_    0.994098 0.133312 0.925667 0.131490
H90   H     H_    0.995390 0.867193 0.427726 0.131022
H91   H     H_    0.493749 0.633457 0.925127 0.131605
H92   H     H_    0.496068 0.366999 0.426143 0.131160
H93   H     H_    0.076952 0.127081 0.074623 0.093659
H94   H     H_    0.077530 0.872706 0.579269 0.093436
H95   H     H_    0.576789 0.627036 0.073334 0.093719
H96   H     H_    0.577271 0.372948 0.581386 0.093104
H97   H     H_    0.178136 0.464923 0.388205 0.005273
H98   H     H_    0.251839 0.377283 0.345237 0.062890
H99   H     H_    0.178137 0.535084 0.888172 0.005305
H100  H     H_    0.678138 0.964920 0.388195 0.005263
H101  H     H_    0.678125 0.035076 0.888209 0.005267
H102  H     H_    0.162034 0.442001 0.173666 0.075438
H103  H     H_    0.162063 0.557999 0.673628 0.075447
H104  H     H_    0.662038 0.942004 0.173651 0.075439
H105  H     H_    0.662028 0.058000 0.673674 0.075580
H106  H     H_    0.936593 0.271698 0.109055 0.087336
H107  H     H_    0.911566 0.217735 0.946733 0.149850
H108  H     H_    0.913216 0.197546 0.158376 0.062773
N1    N     N_1   0.966053 0.096675 0.452081 -0.301649
N2    N     N_1   0.966553 0.903223 0.953105 -0.301706
N3    N     N_1   0.466090 0.596746 0.451244 -0.301754
N4    N     N_1   0.465506 0.402850 0.950708 -0.301973
O1    O     O_2   0.860260 0.414960 0.826400 -0.469398
O2    O     O_3   0.050074 0.759516 0.504629 -0.569891
O3    O     O_3   0.550029 0.740540 0.004368 -0.569367
O4    O     O_3   0.550301 0.259501 0.504412 -0.569949
O5    O     O_3   0.081330 0.529680 0.090830 -0.497733
O6    O     O_3   0.081330 0.470320 0.590830 -0.497748
O7    O     O_3   0.581330 0.029680 0.090830 -0.497764
O8    O     O_3   0.581330 0.970320 0.590830 -0.497741
O9    O     O_3   0.918600 0.470180 0.098890 -0.495475
O10   O     O_3   0.918600 0.529820 0.598890 -0.495424
O11   O     O_3   0.418600 0.970180 0.098890 -0.495500
O12   O     O_2   0.860260 0.585040 0.326400 -0.469509
O13   O     O_3   0.418600 0.029820 0.598890 -0.495394
O14   O     O_3   0.975750 0.362410 0.628650 -0.478615
O15   O     O_3   0.975750 0.637590 0.128650 -0.478828
O16   O     O_3   0.475750 0.862410 0.628650 -0.478596
O17   O     O_3   0.475750 0.137590 0.128650 -0.478532
O18   O     O_2   0.864478 0.312607 0.703681 -0.478520
O19   O     O_2   0.864442 0.687379 0.203460 -0.478473
O20   O     O_2   0.364502 0.812587 0.703732 -0.478622
O21   O     O_2   0.364452 0.187392 0.203511 -0.479070
O22   O     O_3   0.779412 0.481224 0.955279 -0.640735
O23   O     O_2   0.360260 0.914960 0.826400 -0.469393
O24   O     O_3   0.779374 0.518812 0.455343 -0.640675
O25   O     O_3   0.279409 0.981221 0.955261 -0.640726
O26   O     O_3   0.279368 0.018819 0.455373 -0.640660
O27   O     O_3   0.958887 0.239172 0.645282 -0.591052
O28   O     O_3   0.958952 0.760826 0.145596 -0.591233
O29   O     O_3   0.458872 0.739158 0.645093 -0.591121
O30   O     O_3   0.458985 0.260807 0.145500 -0.591794
O31   O     O_2   0.139400 0.414340 0.863230 -0.463118
O32   O     O_2   0.139400 0.585660 0.363230 -0.463174
O33   O     O_2   0.639400 0.914340 0.863230 -0.463121
O34   O     O_2   0.360260 0.085040 0.326400 -0.469541
O35   O     O_2   0.639400 0.085660 0.363230 -0.463062
O36   O     O_3   0.023740 0.362300 0.060930 -0.464100
O37   O     O_3   0.023740 0.637700 0.560930 -0.464565
O38   O     O_3   0.523740 0.862300 0.060930 -0.463949
O39   O     O_3   0.523740 0.137700 0.560930 -0.464692
O40   O     O_2   0.143499 0.321372 0.014828 -0.477996
O41   O     O_2   0.143489 0.678645 0.514721 -0.478155
O42   O     O_2   0.643502 0.821381 0.014861 -0.477985
O43   O     O_2   0.643623 0.178517 0.515216 -0.477931
O44   O     O_3   0.220144 0.480780 0.736628 -0.634405
O45   O     O_3   0.220136 0.519218 0.236621 -0.634398
O46   O     O_3   0.720136 0.980790 0.736629 -0.634456
O47   O     O_3   0.720140 0.019222 0.236623 -0.634416
O48   O     O_3   0.050032 0.240526 0.004415 -0.569383
P1    P     P_3+3 0.853370 0.434890 0.996520 0.974136
P2    P     P_3+3 0.086077 0.694399 0.607173 0.956441
P3    P     P_3+3 0.586062 0.805591 0.107209 0.957213
P4    P     P_3+3 0.586108 0.194378 0.607260 0.956574
P5    P     P_3+3 0.914191 0.694265 0.084613 0.964806
P6    P     P_3+3 0.914148 0.305763 0.584635 0.965153
P7    P     P_3+3 0.414186 0.194256 0.084615 0.964393
P8    P     P_3+3 0.414143 0.805767 0.584614 0.965143
P9    P     P_3+3 0.853370 0.565110 0.496520 0.974008
P10   P     P_3+3 0.353370 0.934890 0.996520 0.974150
P11   P     P_3+3 0.353370 0.065110 0.496520 0.973989
P12   P     P_3+3 0.146350 0.434230 0.693140 0.972530
P13   P     P_3+3 0.146350 0.565770 0.193140 0.972444
P14   P     P_3+3 0.646350 0.934230 0.693140 0.972490
P15   P     P_3+3 0.646350 0.065770 0.193140 0.972464
P16   P     P_3+3 0.086064 0.305591 0.107198 0.957100

loop_
_geom_bond_atom_site_label_1
_geom_bond_atom_site_label_2
_ccdc_geom_bond_type
C57   C66   A    
C54   C58   A    
C44   C51   A    
C87   O25   S    
C31   C70   A    
C5    H3    S    
C33   C37   A    
C49   C54   A    
C51   C55   A    
C17   H50   S    
C68   H81   S    
C88   H22   S    
C97   O30   S    
C48   H88   S    
Ba4   O34   S    
C67   H80   S    
C43   H73   S    
C4    H107  S    
C7    H11   S    
C73   H94   S    
Ba2   P9    S    
C78   H100  S    
C71   H93   S    
O45   P13   S    
C85   H18   S    
C45   H84   S    
C74   H56   S    
C95   H41   S    
Ba2   O6    S    
C17   H46   S    
O48   P16   S    
Ba4   O11   S    
C27   P13   S    
C15   H63   S    
C34   C38   A    
C4    H106  S    
C8    C60   A    
C92   H30   S    
C53   H70   S    
C17   C95   S    
C46   H85   S    
C13   H61   S    
Ba1   P1    S    
C20   P9    S    
C37   C62   A    
C80   H14   S    
C101  P3    S    
C28   H47   S    
C88   C92   S    
Ba4   P15   S    
C25   H78   S    
C16   C72   A    
Ba1   O1    S    
Ba1   Ba2   S    
Ba4   O7    S    
C92   H39   S    
O31   P12   D    
O24   P9    S    
C7    C48   S    
C96   H32   S    
Ba2   O9    S    
C79   H105  S    
C2    C11   A    
C58   C94   A    
C104  N3    T    
O9    P1    S    
C57   C62   A    
C69   C100  A    
C19   P1    S    
C64   P5    S    
C8    C12   A    
C41   C52   A    
C47   O3    S    
C83   C101  A    
C81   H65   S    
C86   H19   S    
C45   C71   S    
C86   C90   S    
O25   P10   S    
C75   H92   S    
C19   C23   A    
C10   H58   S    
C40   C83   A    
C73   H90   S    
C38   C58   A    
C78   H104  S    
C69   H82   S    
C6    H6    S    
Ba1   O36   S    
C76   C80   S    
C43   C49   A    
C28   H51   S    
C86   H24   S    
O46   P14   S    
C5    H4    S    
C27   C67   A    
C79   C84   S    
O42   P3    D    
C1    C102  S    
C30   P15   S    
C82   H76   S    
C84   H87   S    
C11   H59   S    
C19   C94   A    
O17   P7    S    
C91   H38   S    
O39   P4    S    
O14   P6    S    
C6    C47   S    
Ba1   O10   S    
O23   P10   D    
C22   P11   S    
C26   C66   A    
C77   C81   S    
C10   C94   A    
Ba2   P13   S    
C25   C65   A    
C52   H69   S    
C11   C18   A    
C40   C59   A    
C21   C25   A    
O13   P11   S    
C91   H29   S    
C87   H20   S    
C95   H21   S    
O10   P9    S    
C24   C64   A    
C73   H55   S    
O22   P1    S    
C10   C16   A    
C32   C36   A    
O44   P12   S    
C74   H95   S    
C29   C68   A    
Ba1   P12   S    
C96   O29   S    
C18   H66   S    
C90   H37   S    
C81   H15   S    
O36   P16   S    
C84   H13   S    
Ba3   P10   S    
C37   C61   A    
C41   H71   S    
C96   H42   S    
C78   C82   S    
C97   H43   S    
C29   C33   A    
Ba3   Ba4   S    
C28   C96   S    
O7    P15   S    
O16   P8    S    
O12   P9    D    
C31   C35   A    
C72   C100  A    
Ba3   O33   S    
C80   H98   S    
O3    P3    S    
C84   H17   S    
C89   H31   S    
C42   H72   S    
C55   C64   A    
O4    P4    S    
C103  N2    T    
C93   H1    S    
O34   P11   D    
Ba2   O15   S    
C9    C13   A    
C9    C62   A    
C87   H25   S    
Ba1   O6    S    
O47   P15   S    
Ba1   O14   S    
Ba4   O17   S    
C2    C20   A    
C102  N1    T    
C85   O22   S    
O41   P2    D    
O29   P8    S    
C32   C41   A    
O6    P12   S    
O30   P7    S    
C75   H57   S    
O27   P6    S    
C53   C57   A    
O38   P3    S    
C34   C43   A    
C17   C103  S    
C89   H36   S    
C6    H7    S    
C91   H34   S    
C3    N4    T    
C15   C61   A    
C12   C14   A    
O43   P4    D    
C77   H103  S    
C67   C98   A    
C1    C93   S    
C22   C26   A    
Ba4   O39   S    
C36   C50   A    
C100  P4    S    
O19   P5    D    
C42   C53   A    
C82   H16   S    
O15   P5    S    
C93   H40   S    
C9    C22   A    
C79   H101  S    
C74   H91   S    
C61   C99   A    
C39   H48   S    
C48   C75   S    
C46   C73   S    
Ba3   O7    S    
C99   P16   S    
C80   H54   S    
O33   P14   D    
C49   H67   S    
C76   H102  S    
C39   C97   S    
C45   O48   S    
O8    P14   S    
C3    C39   S    
C65   P8    S    
C46   O2    S    
C89   H27   S    
C88   O26   S    
C66   P7    S    
C98   P2    S    
O11   P10   S    
C16   H64   S    
C30   C34   A    
C90   H33   S    
C38   C72   A    
Ba3   O8    S    
C50   C98   A    
C79   O46   S    
C88   H26   S    
C5    C46   S    
C20   C24   A    
C78   O47   S    
C21   P10   S    
C4    H108  S    
C47   H86   S    
C18   C83   A    
C93   O27   S    
C71   H89   S    
O1    P1    D    
Ba1   O31   S    
C48   O4    S    
C35   C40   A    
C68   C99   A    
Ba2   O12   S    
Ba3   O38   S    
Ba3   O23   S    
C97   H44   S    
C1    H49   S    
C76   O45   S    
C85   H23   S    
C31   P14   S    
C77   H99   S    
C8    C21   A    
C56   C60   A    
C5    H5    S    
C26   H79   S    
O21   P7    D    
C63   P6    S    
C86   O24   S    
C33   C42   A    
C47   C74   S    
O20   P8    D    
O28   P5    S    
O18   P6    D    
C24   H77   S    
C39   H52   S    
C70   C101  A    
C44   H74   S    
Ba3   O16   S    
O40   P16   D    
C56   C65   A    
C12   H60   S    
C1    H45   S    
C36   C60   A    
C4    C45   S    
C81   H2    S    
C2    C59   A    
C13   C15   A    
C71   H53   S    
C55   C59   A    
C76   H97   S    
Ba4   O8    S    
C85   C89   S    
O26   P11   S    
C6    H8    S    
C23   H75   S    
C51   H68   S    
C23   C63   A    
C14   C50   A    
C30   C69   A    
C87   C91   S    
C70   H83   S    
O2    P2    S    
C52   C56   A    
C54   C63   A    
Ba2   O37   S    
C77   O44   S    
Ba3   P14   S    
C75   H96   S    
C28   C104  S    
C14   H62   S    
O35   P15   D    
Ba4   P11   S    
C27   C32   A    
C90   H28   S    
C82   H12   S    
O37   P2    S    
Ba4   O35   S    
C95   O28   S    
O32   P13   D    
C7    H10   S    
O5    P13   S    
Ba3   O13   S    
Ba2   O32   S    
Ba1   O5    S    
Ba2   O5    S    
C35   C44   A    
C92   H35   S    
C29   P12   S    
C7    H9    S    
