data_mof_unit_36587.cif
_audit_creation_date              2012-12-11T15:20:30-0500
_audit_creation_method            fapswitch 2.2
_symmetry_space_group_name_H-M    P1
_symmetry_Int_Tables_number       1
_space_group_crystal_system       triclinic
_cell_length_a                    12.901642
_cell_length_b                    13.038122
_cell_length_c                    15.330578
_cell_angle_alpha                 117.298556
_cell_angle_beta                  64.033935
_cell_angle_gamma                 97.371407
_cell_volume                      2051.76997813

loop_
_atom_site_label
_atom_site_type_symbol
_atom_type_description
_atom_site_fract_x
_atom_site_fract_y
_atom_site_fract_z
_atom_type_partial_charge
C1    C     C_R   0.996225 0.832281 0.060017 -0.120176
C2    C     C_R   0.307086 0.581885 0.786552 -0.157161
C3    C     C_R   0.259902 0.411730 0.041699 -0.167522
C4    C     C_R   0.679168 0.476471 0.217398 -0.136828
C5    C     C_R   0.059210 0.277334 0.684626 -0.121681
C6    C     C_R   0.363062 0.429780 0.969248 0.150101
C7    C     C_R   0.052729 0.167325 0.678076 0.061435
C8    C     C_R   0.305901 0.543230 0.687591 0.100562
C9    C     C_R   0.976232 0.165211 0.072019 0.022640
C10   C     C_R   0.189767 0.959590 0.382155 0.323992
C11   C     C_R   0.175336 0.056887 0.479535 -0.212476
C12   C     C_R   0.671118 0.547713 0.320361 0.084582
C13   C     C_R   0.099527 0.058123 0.579160 0.092806
C14   C     C_R   0.055831 0.955216 0.581305 -0.163668
C15   C     C_R   0.065089 0.861013 0.486216 -0.223995
C16   C     C_R   0.757060 0.514286 0.889067 -0.146878
C17   C     C_R   0.119546 0.867699 0.387305 0.090058
C18   C     C_R   0.540195 0.445681 0.412471 -0.264350
C19   C     C_R   0.451886 0.440813 0.502188 0.312762
C20   C     C_R   0.397246 0.545958 0.594139 0.028313
C21   C     C_R   0.430960 0.653453 0.597510 -0.269782
C22   C     C_R   0.520544 0.657956 0.506757 0.305351
C23   C     C_R   0.664849 0.450968 0.918583 0.105152
C24   C     C_R   0.573569 0.552702 0.414499 0.029646
C25   C     C_2   0.476913 0.384531 0.939696 -0.233158
C26   C     C_2   0.574857 0.416189 0.879385 0.269572
C27   C     C_2   0.815310 0.950554 0.112139 -0.196139
C28   C     C_R   0.019821 0.697460 0.301039 -0.138464
C29   C     C_2   0.810465 0.037170 0.205504 -0.145029
C30   C     C_R   0.678143 0.417577 0.986288 -0.170395
C31   C     C_R   0.098366 0.799170 0.208993 -0.150613
C32   C     C_R   0.781347 0.560570 0.315118 -0.112292
C33   C     C_R   0.894936 0.747008 0.963120 -0.151512
C34   C     C_R   0.081777 0.792168 0.301925 0.070682
C35   C     C_R   0.904021 0.850950 0.043417 0.141476
C36   C     C_3   0.058055 0.303583 0.201163 -1.047797
C37   C     C_3   0.829089 0.122292 0.995298 -1.048309
C38   C     C_3   0.280415 0.957478 0.277693 -1.076702
C39   C     C_3   0.420562 0.323982 0.499642 -1.004153
C40   C     C_3   0.557669 0.772978 0.508535 -0.994128
C41   C     C_3   0.591592 0.425682 0.779538 -1.007331
C42   C     C_R   0.339245 0.516380 0.951080 -0.116040
C43   C     C_R   0.980825 0.178671 0.781186 -0.146165
C44   C     C_R   0.203760 0.497093 0.691065 -0.135593
C45   C     C_R   0.033344 0.263095 0.104336 0.245038
C46   C     C_R   0.931499 0.180563 0.011210 0.252882
H1    H     H_    0.023529 0.893286 0.120863 0.096744
H2    H     H_    0.747273 0.950738 0.088728 0.141632
H3    H     H_    0.873515 0.041683 0.235857 0.132856
H4    H     H_    0.005229 0.654880 0.350941 0.087384
H5    H     H_    0.634965 0.351511 0.009734 0.092011
H6    H     H_    0.150720 0.856237 0.177469 0.115959
H7    H     H_    0.827740 0.729307 0.935443 0.103647
H8    H     H_    0.398885 0.559919 0.907105 0.116062
H9    H     H_    0.959323 0.110533 0.805193 0.123882
H10   H     H_    0.982662 0.292969 0.267790 0.257111
H11   H     H_    0.134970 0.251408 0.179224 0.246074
H12   H     H_    0.170320 0.473385 0.631441 0.095297
H13   H     H_    0.073310 0.396802 0.231601 0.252733
H14   H     H_    0.854700 0.029163 0.936862 0.247242
H15   H     H_    0.760149 0.130859 0.074393 0.258542
H16   H     H_    0.792201 0.164227 0.965101 0.250181
H17   H     H_    0.105024 0.300200 0.618987 0.090441
H18   H     H_    0.359392 0.993185 0.288246 0.263509
H19   H     H_    0.307567 0.867524 0.211392 0.255818
H20   H     H_    0.247727 0.011637 0.254826 0.250843
H21   H     H_    0.219629 0.132528 0.477037 0.129567
H22   H     H_    0.017442 0.789043 0.494128 0.124700
H23   H     H_    0.368650 0.635059 0.813694 0.098714
H24   H     H_    0.480819 0.251947 0.423648 0.249050
H25   H     H_    0.424321 0.320267 0.569151 0.258485
H26   H     H_    0.332211 0.309086 0.504116 0.238415
H27   H     H_    0.649032 0.780281 0.496772 0.246473
H28   H     H_    0.549711 0.780314 0.442320 0.256252
H29   H     H_    0.503452 0.846571 0.587025 0.249095
H30   H     H_    0.673716 0.375043 0.710811 0.251066
H31   H     H_    0.520883 0.389386 0.754431 0.260881
H32   H     H_    0.597252 0.517493 0.794365 0.235028
H33   H     H_    0.781802 0.540061 0.825335 0.106598
H34   H     H_    0.250214 0.351895 0.074483 0.130476
H35   H     H_    0.805543 0.603749 0.381910 0.100512
H36   H     H_    0.002867 0.949900 0.656280 0.116710
H37   H     H_    0.609089 0.442030 0.194699 0.107264
H38   H     H_    0.585473 0.365584 0.341034 0.149184
H39   H     H_    0.387024 0.732786 0.670476 0.143394
H40   H     H_    0.475877 0.356305 0.996386 0.100233
N1    N     N_R   0.037310 0.720000 0.995790 -0.045600
N2    N     N_R   0.824890 0.517960 0.936420 -0.039868
N3    N     N_R   0.003210 0.648190 0.211380 -0.035894
N4    N     N_R   0.774330 0.457010 0.995840 -0.033351
N5    N     N_R   0.053760 0.709140 0.151960 -0.040156
N6    N     N_R   0.853860 0.498840 0.211410 -0.040854
N7    N     N_R   0.974240 0.667310 0.936390 -0.042078
N8    N     N_R   0.225670 0.542990 0.004160 -0.046424
N9    N     N_R   0.946240 0.290860 0.848040 -0.037399
N10   N     N_R   0.146140 0.501160 0.788590 -0.038964
N11   N     N_R   0.025760 0.332690 0.063610 -0.070120
N12   N     N_R   0.962690 0.280000 0.004210 -0.072641
N13   N     N_R   0.209210 0.553840 0.847990 -0.038843
N14   N     N_R   0.175110 0.482040 0.063580 -0.038532
N15   N     N_R   0.996790 0.351810 0.788620 -0.039007
N16   N     N_R   0.790790 0.446160 0.152010 -0.038833
Ni1   Ni    Ni4+2 0.130310 0.630310 0.999970 0.207329
Ni2   Ni    Ni4+2 0.869690 0.369690 0.000030 0.210288
Ni3   Ni    Ni4+2 0.985640 0.509470 0.863740 0.211328
Ni4   Ni    Ni4+2 0.014360 0.490530 0.136260 0.210836

loop_
_geom_bond_atom_site_label_1
_geom_bond_atom_site_label_2
_ccdc_geom_bond_type
C27   H2    S    
C1    N1    A    
N13   Ni1   S    
C30   H5    S    
C9    C45   A    
C27   C29   D    
C19   C20   A    
C31   H6    S    
C30   N4    A    
C36   H13   S    
N11   N12   A    
C29   H3    S    
C32   H35   S    
C8    C20   S    
C18   C24   A    
C41   H31   S    
C6    C25   S    
C10   C17   A    
N10   N13   A    
C40   H27   S    
C5    H17   S    
C18   C19   A    
C23   C26   S    
N7    Ni3   S    
C28   H4    S    
C3    N14   A    
C38   H20   S    
C44   H12   S    
C4    N16   A    
N3    Ni4   S    
C43   N9    A    
C39   H26   S    
C28   N3    A    
C7    C43   A    
C4    C12   A    
C2    H23   S    
N6    N16   A    
C3    C6    A    
C46   N12   A    
C28   C34   A    
C9    C46   A    
C13   C14   A    
C12   C32   A    
C33   H7    S    
C3    H34   S    
C11   H21   S    
C37   H16   S    
C38   H18   S    
N15   Ni3   S    
C5    N15   A    
C23   C30   A    
C36   H11   S    
C41   H32   S    
C5    C7    A    
C1    H1    S    
C27   C35   S    
C25   C26   D    
C21   H39   S    
C36   H10   S    
C18   H38   S    
C38   H19   S    
N8    N14   A    
C22   C40   S    
C31   C34   A    
C36   C45   S    
N16   Ni2   S    
N4    Ni2   S    
C19   C39   S    
N1    Ni1   S    
N11   Ni4   S    
N6    Ni4   S    
N2    N4    A    
N8    Ni1   S    
C16   C23   A    
C31   N5    A    
C22   C24   A    
N3    N5    A    
C17   C34   S    
C14   H36   S    
N9    Ni2   S    
C1    C35   A    
N10   Ni3   S    
C43   H9    S    
C15   C17   A    
C44   N10   A    
C42   N8    A    
C2    C8    A    
C8    C44   A    
N5    Ni1   S    
C33   N7    A    
C2    N13   A    
C37   H15   S    
C12   C24   S    
N14   Ni4   S    
C40   H29   S    
C10   C38   S    
C16   H33   S    
C45   N11   A    
C42   H8    S    
C41   H30   S    
N2    Ni3   S    
C11   C13   A    
C32   N6    A    
C4    H37   S    
N12   Ni2   S    
C15   H22   S    
N1    N7    A    
C25   H40   S    
C33   C35   A    
C39   H24   S    
C40   H28   S    
C37   H14   S    
C10   C11   A    
C7    C13   S    
C20   C21   A    
C6    C42   A    
C16   N2    A    
C39   H25   S    
C14   C15   A    
C37   C46   S    
C21   C22   A    
N9    N15   A    
C26   C41   S    
