data_mof_unit_52576.cif
_audit_creation_date              2012-12-10T18:16:22-0500
_audit_creation_method            fapswitch 2.2
_symmetry_space_group_name_H-M    P1
_symmetry_Int_Tables_number       1
_space_group_crystal_system       triclinic
_cell_length_a                    12.625448
_cell_length_b                    13.04267
_cell_length_c                    27.666867
_cell_angle_alpha                 90.996013
_cell_angle_beta                  103.089452
_cell_angle_gamma                 81.784583
_cell_volume                      4391.44913972

loop_
_atom_site_label
_atom_site_type_symbol
_atom_type_description
_atom_site_fract_x
_atom_site_fract_y
_atom_site_fract_z
_atom_type_partial_charge
C1    C     C_R   0.438446 0.691515 0.495355 0.855270
C2    C     C_R   0.428248 0.536388 0.717898 -0.172613
C3    C     C_R   0.524476 0.486077 0.748821 0.234816
C4    C     C_R   0.544078 0.479209 0.902288 -0.055564
C5    C     C_R   0.538542 0.573923 0.877478 -0.001311
C6    C     C_R   0.536262 0.666264 0.903738 -0.142159
C7    C     C_R   0.548947 0.386322 0.875949 -0.082615
C8    C     C_R   0.507546 0.497089 0.646793 -0.152693
C9    C     C_R   0.499651 0.492310 0.353385 -0.035798
C10   C     C_R   0.548323 0.569083 0.031405 0.052159
C11   C     C_R   0.520439 0.386216 0.025280 0.054066
C12   C     C_R   0.501460 0.500250 0.593726 0.871693
C13   C     C_R   0.529939 0.477585 0.053227 0.063533
C14   C     C_R   0.567885 0.655703 0.061644 -0.220020
C15   C     C_R   0.562206 0.654468 0.111012 -0.132018
C16   C     C_R   0.536299 0.567156 0.131855 -0.013092
C17   C     C_R   0.519470 0.478074 0.103147 -0.064482
C18   C     C_R   0.491675 0.390208 0.124228 -0.065763
C19   C     C_R   0.485859 0.393682 0.174666 0.504160
C20   C     C_R   0.527860 0.566879 0.181217 0.502476
C21   C     C_R   0.403346 0.482690 0.267539 -0.098944
C22   C     C_R   0.401768 0.487885 0.317670 -0.222901
C23   C     C_R   0.561327 0.308534 0.506579 0.854248
C24   C     C_R   0.599163 0.489506 0.338399 -0.216141
C25   C     C_R   0.600533 0.483741 0.288447 -0.103931
C26   C     C_R   0.502669 0.481258 0.252951 0.321047
C27   C     C_R   0.544734 0.571520 0.979996 0.077272
C28   C     C_R   0.543790 0.477677 0.953230 0.007193
C29   C     C_R   0.541677 0.382658 0.976968 -0.045693
C30   C     C_R   0.539639 0.665234 0.954144 -0.216281
C31   C     C_R   0.562403 0.291686 0.901104 -0.279232
C32   C     C_R   0.482802 0.303474 0.045238 -0.186831
C33   C     C_R   0.469708 0.303733 0.093889 -0.020026
C34   C     C_R   0.499307 0.498467 0.406159 0.860420
C35   C     C_R   0.561991 0.287661 0.952037 0.481209
C36   C     C_R   0.687801 0.072226 0.583082 -0.178124
C37   C     C_R   0.597269 0.200126 0.519602 -0.049890
C38   C     C_R   0.303418 0.837237 0.455080 -0.220682
C39   C     C_R   0.275779 0.942395 0.443565 0.049080
C40   C     C_R   0.347313 0.011071 0.465380 -0.219690
C41   C     C_R   0.444714 0.975310 0.501281 0.071397
C42   C     C_R   0.461395 0.872431 0.518591 0.066987
C43   C     C_R   0.526281 0.038090 0.520497 0.083900
C44   C     C_R   0.609954 0.005963 0.563477 0.114490
C45   C     C_R   0.533980 0.574129 0.826538 0.508948
C46   C     C_R   0.612154 0.909391 0.585850 -0.031384
C47   C     C_R   0.540746 0.842319 0.562491 -0.257637
C48   C     C_R   0.527249 0.131698 0.497341 -0.228721
C49   C     C_R   0.680075 0.169805 0.561706 -0.188945
C50   C     C_R   0.397902 0.801786 0.491423 -0.122672
C51   C     C_R   0.093168 0.334562 0.435773 0.406452
C52   C     C_R   0.802457 0.624316 0.561837 -0.021900
C53   C     C_R   0.910999 0.640556 0.579299 -0.045119
C54   C     C_R   0.991767 0.588044 0.557519 -0.228753
C55   C     C_R   0.963878 0.523282 0.516530 0.028955
C56   C     C_R   0.543047 0.390136 0.824779 0.546455
C57   C     C_R   0.854698 0.501580 0.503625 0.240282
C58   C     C_R   0.041841 0.473770 0.490401 -0.102743
C59   C     C_R   0.014472 0.389822 0.458839 0.065354
C60   C     C_R   0.907936 0.364676 0.449581 -0.244176
C61   C     C_R   0.828618 0.422146 0.470232 -0.227564
C62   C     C_R   0.144699 0.506312 0.492553 0.059042
C63   C     C_R   0.199707 0.359728 0.447221 -0.144426
C64   C     C_R   0.612196 0.441577 0.728818 -0.093993
C65   C     C_R   0.603648 0.446758 0.677990 -0.278091
C66   C     C_R   0.419957 0.544350 0.666995 0.450586
H1    H     H_    0.687031 0.403391 0.752746 0.159568
H2    H     H_    0.574666 0.221845 0.880478 0.193358
H3    H     H_    0.457650 0.239375 0.022397 0.175717
H4    H     H_    0.676065 0.491585 0.365170 0.163060
H5    H     H_    0.677449 0.482233 0.277155 0.136596
H6    H     H_    0.734028 0.223518 0.579720 0.157698
H7    H     H_    0.752074 0.050766 0.615914 0.157457
H8    H     H_    0.361036 0.571940 0.733664 0.163933
H9    H     H_    0.469764 0.156207 0.462918 0.135998
H10   H     H_    0.253160 0.782836 0.434718 0.166214
H11   H     H_    0.323664 0.091977 0.454934 0.145049
H12   H     H_    0.545317 0.767182 0.579595 0.142211
H13   H     H_    0.263916 0.313785 0.432929 0.147599
H14   H     H_    0.884435 0.301745 0.425305 0.195878
H15   H     H_    0.738663 0.662833 0.578867 0.144035
H16   H     H_    0.530945 0.740123 0.885359 0.188927
H17   H     H_    0.076227 0.594661 0.574726 0.178660
H18   H     H_    0.748283 0.400289 0.460565 0.211086
H19   H     H_    0.324162 0.489612 0.328372 0.158510
H20   H     H_    0.327510 0.481057 0.239999 0.141718
H21   H     H_    0.577729 0.722872 0.132752 0.193537
H22   H     H_    0.590594 0.724907 0.048463 0.144298
H23   H     H_    0.533684 0.739771 0.971520 0.135124
H24   H     H_    0.671832 0.410877 0.662922 0.176907
N1    N     N_R   0.534312 0.483244 0.801228 -0.343470
N2    N     N_R   0.504324 0.480790 0.201551 -0.356042
N3    N     N_R   0.222180 0.444690 0.474320 -0.140434
N4    N     N_R   0.776980 0.554780 0.525420 -0.136388
O1    O     O_R   0.366730 0.627160 0.487740 -0.609923
O2    O     O_2   0.542950 0.652108 0.208920 -0.554761
O3    O     O_2   0.544218 0.301860 0.798571 -0.559686
O4    O     O_2   0.464189 0.310812 0.197245 -0.551101
O5    O     O_R   0.544830 0.662520 0.504140 -0.602274
O6    O     O_R   0.410970 0.482310 0.563040 -0.567472
O7    O     O_R   0.589070 0.517670 0.579450 -0.634268
O8    O     O_R   0.455170 0.337480 0.495860 -0.607971
O9    O     O_R   0.633270 0.372840 0.512260 -0.635641
O10   O     O_R   0.410930 0.482330 0.420550 -0.621288
O11   O     O_R   0.589030 0.517690 0.436960 -0.630873
O12   O     O_2   0.529411 0.664293 0.802384 -0.567192
Zn1   Zn    Zn3+2 0.381080 0.476390 0.489050 0.963290
Zn2   Zn    Zn3+2 0.618920 0.523610 0.510950 0.934221
O13   O     O_3   0.326995 0.600947 0.638031 -0.639726
C67   C     C_3   0.350940 0.699427 0.626618 0.064537
H25   H     H_    0.363434 0.698246 0.588168 0.156790
H26   H     H_    0.426173 0.722580 0.651756 0.128971
C68   C     C_3   0.253992 0.781872 0.630009 -0.300463
H27   H     H_    0.176400 0.758259 0.608076 0.241970
H28   H     H_    0.247491 0.789124 0.669357 0.228806
C69   C     C_3   0.268157 0.886845 0.610685 -0.904941
H29   H     H_    0.345544 0.912035 0.631996 0.268322
H30   H     H_    0.198023 0.945538 0.614833 0.270681
H31   H     H_    0.270118 0.882188 0.570768 0.275945
C70   C     C_1   0.431150 0.214088 0.110332 0.273998
N5    N     N_1   0.400251 0.142157 0.123261 -0.166738
O14   O     O_3   0.596228 0.196535 0.980808 -0.651795
C71   C     C_3   0.582468 0.102489 0.955284 0.081339
H32   H     H_    0.617578 0.038878 0.982958 0.178166
H33   H     H_    0.632470 0.089450 0.926946 0.143061
C72   C     C_3   0.460871 0.091378 0.934741 -0.406682
H34   H     H_    0.417445 0.097508 0.965623 0.224369
H35   H     H_    0.420505 0.153779 0.907157 0.227521
C73   C     C_3   0.449223 0.986999 0.909839 -0.900982
H36   H     H_    0.490683 0.979491 0.878302 0.274146
H37   H     H_    0.360863 0.980789 0.895481 0.272782
H38   H     H_    0.485997 0.922785 0.936953 0.249168
C74   C     C_1   0.685205 0.877388 0.632940 0.142977
N6    N     N_1   0.742826 0.851954 0.670884 -0.169942
C75   C     C_1   0.176704 0.978827 0.407353 0.197087
N7    N     N_1   0.096910 0.007615 0.378266 -0.179137
O15   O     O_3   0.068066 0.251786 0.405329 -0.644991
C76   C     C_3   0.065916 0.277482 0.355495 0.086485
H39   H     H_    0.081549 0.203932 0.335801 0.189328
H40   H     H_    0.131871 0.323396 0.351866 0.116184
C77   C     C_3   0.952840 0.334496 0.329683 -0.384217
H41   H     H_    0.888223 0.287022 0.332845 0.237397
H42   H     H_    0.936584 0.409767 0.347957 0.215873
C78   C     C_3   0.946489 0.355098 0.274906 -0.908127
H43   H     H_    0.009086 0.404179 0.270846 0.263174
H44   H     H_    0.863835 0.396260 0.257331 0.262699
H45   H     H_    0.960362 0.280935 0.255418 0.271556
C79   C     C_1   0.161847 0.611326 0.504944 0.244669
N8    N     N_1   0.172451 0.696566 0.514403 -0.227088
C80   C     C_1   0.940884 0.708036 0.620336 0.170777
N9    N     N_1   0.965991 0.762039 0.653300 -0.184685

loop_
_geom_bond_atom_site_label_1
_geom_bond_atom_site_label_2
_ccdc_geom_bond_type
C10   C27   A    
C58   C62   A    
C21   C26   A    
C45   O12   S    
C8    C66   A    
C72   H34   S    
C6    H16   S    
C41   C42   A    
C1    O5    A    
C74   N6    T    
C24   H4    S    
C75   N7    T    
C39   C75   S    
C53   C54   A    
C52   C53   A    
O5    Zn2   S    
C20   N2    A    
N4    Zn2   S    
C7    C56   A    
C28   C29   A    
C68   H27   S    
C77   H42   S    
C5    C6    A    
C9    C22   A    
C71   H33   S    
C23   O8    A    
C26   N2    S    
C15   C16   A    
C69   H29   S    
C3    N1    S    
C18   C19   A    
C22   H19   S    
C67   H25   S    
C19   N2    A    
C46   C47   A    
C56   N1    A    
C23   O9    A    
C16   C17   A    
C49   H6    S    
C52   N4    A    
O9    Zn2   S    
C25   H5    S    
C43   C48   A    
C2    H8    S    
C1    O1    A    
C73   H38   S    
O7    Zn2   S    
C20   O2    S    
C8    C65   A    
C62   C79   S    
C21   C22   A    
C38   H10   S    
C27   C30   A    
C41   C43   A    
C48   H9    S    
C31   H2    S    
C56   O3    S    
C78   H45   S    
C54   H17   S    
C4    C28   A    
C19   O4    S    
C44   C46   A    
C65   H24   S    
O11   Zn2   S    
C7    C31   A    
C64   H1    S    
C71   H32   S    
C51   C63   A    
C79   N8    T    
C78   H44   S    
C10   C14   A    
C77   C78   S    
C39   C40   A    
C78   H43   S    
C71   C72   S    
C63   H13   S    
C72   C73   S    
C4    C7    A    
C58   C59   A    
C23   C37   S    
C5    C45   A    
C61   H18   S    
C34   O10   A    
C60   C61   A    
C43   C44   A    
C37   C49   A    
C14   C15   A    
C8    C12   S    
C62   N3    A    
C17   C18   A    
O8    Zn1   S    
C16   C20   A    
C24   C25   A    
C37   C48   A    
C67   C68   S    
O1    Zn1   S    
C42   C50   A    
C38   C50   A    
C51   O15   S    
C40   C41   A    
C6    C30   A    
C11   C32   A    
C57   N4    A    
C55   C57   A    
C9    C34   S    
C31   C35   A    
C36   C44   A    
C51   C59   A    
C76   C77   S    
C70   N5    T    
C15   H21   S    
C73   H36   S    
C1    C50   S    
C63   N3    A    
C54   C55   A    
C60   H14   S    
O6    Zn1   S    
C72   H35   S    
C53   C80   S    
C80   N9    T    
C34   O11   A    
C35   O14   S    
C4    C5    A    
C2    C66   A    
C10   C13   A    
C21   H20   S    
C9    C24   A    
C57   C61   A    
C32   H3    S    
C76   H40   S    
O15   C76   S    
C29   C35   A    
C69   H31   S    
C13   C17   A    
C64   C65   A    
C68   C69   S    
C30   H23   S    
C2    C3    A    
C25   C26   A    
C14   H22   S    
C12   O7    A    
C77   H41   S    
C32   C33   A    
C46   C74   S    
C11   C13   A    
C38   C39   A    
C69   H30   S    
C42   C47   A    
C66   O13   S    
C3    C64   A    
C52   H15   S    
C45   N1    A    
C18   C33   A    
C67   H26   S    
C12   O6    A    
C76   H39   S    
C59   C60   A    
C11   C29   A    
C33   C70   S    
C55   C58   A    
C27   C28   A    
C40   H11   S    
C47   H12   S    
C73   H37   S    
O14   C71   S    
O13   C67   S    
C36   H7    S    
O10   Zn1   S    
N3    Zn1   S    
C36   C49   A    
C68   H28   S    
