data_mof_unit_34014.cif
_audit_creation_date              2013-03-05T16:05:19-0500
_audit_creation_method            fapswitch 2.2
_symmetry_space_group_name_H-M    P1
_symmetry_Int_Tables_number       1
_space_group_crystal_system       triclinic
_cell_length_a                    27.49104
_cell_length_b                    7.212646
_cell_length_c                    22.525372
_cell_angle_alpha                 89.91114
_cell_angle_beta                  101.102317
_cell_angle_gamma                 89.921391
_cell_volume                      4382.80061036

loop_
_atom_site_label
_atom_site_type_symbol
_atom_site_description
_atom_site_fract_x
_atom_site_fract_y
_atom_site_fract_z
_atom_type_partial_charge
O1    O     O_R   0.707300 0.594030 0.176840 -0.585976
O2    O     O_R   0.292700 0.405970 0.823160 -0.574431
O3    O     O_R   0.792700 0.094030 0.323160 -0.584143
O4    O     O_R   0.207300 0.905970 0.676840 -0.576332
O5    O     O_R   0.697330 0.262360 0.295660 -0.571658
O6    O     O_R   0.302670 0.737640 0.704340 -0.586234
O7    O     O_R   0.802670 0.762360 0.204340 -0.573053
O8    O     O_R   0.197330 0.237640 0.795660 -0.585898
C1    C     C_R   0.684861 0.432581 0.311537 0.932267
C2    C     C_R   0.314413 0.567643 0.687742 0.988332
C3    C     C_R   0.815200 0.932547 0.188529 0.927091
C4    C     C_R   0.185600 0.067636 0.812279 0.988512
O9    O     O_R   0.701410 0.264250 0.175600 -0.583489
O10   O     O_R   0.298590 0.735750 0.824400 -0.566588
O11   O     O_R   0.798590 0.764250 0.324400 -0.581543
O12   O     O_R   0.201410 0.235750 0.675600 -0.566279
O13   O     O_R   0.796800 0.094950 0.202240 -0.554646
O14   O     O_R   0.203200 0.905050 0.797760 -0.577689
O15   O     O_R   0.703200 0.594950 0.297760 -0.552961
O16   O     O_R   0.296800 0.405050 0.702240 -0.577388
C5    C     C_R   0.688683 0.433267 0.154054 0.949006
C6    C     C_R   0.310660 0.566539 0.846236 0.908591
C7    C     C_R   0.811749 0.932914 0.345516 0.942228
C8    C     C_R   0.189521 0.067056 0.653698 0.911125
O17   O     O_3   0.781290 0.427390 0.258880 -0.281702
O18   O     O_3   0.218710 0.572610 0.741120 -0.280867
O19   O     O_3   0.718710 0.927390 0.241120 -0.282452
O20   O     O_3   0.281290 0.072610 0.758880 -0.280796
V1    V     V_3+5 0.744190 0.152150 0.248350 1.218263
V2    V     V_3+5 0.255810 0.847850 0.751650 1.229416
V3    V     V_3+5 0.755810 0.652150 0.251650 1.220954
V4    V     V_3+5 0.244190 0.347850 0.748350 1.230624
C9    C     C_R   0.153725 0.055690 0.595661 -0.162939
C10   C     C_R   0.848387 0.935247 0.403532 -0.185389
C11   C     C_R   0.346656 0.552877 0.904266 -0.164817
C12   C     C_R   0.652596 0.437511 0.095539 -0.198601
C13   C     C_R   0.142531 0.003701 0.487969 -0.048308
C14   C     C_R   0.866144 0.827228 0.507233 -0.080069
C15   C     C_R   0.358110 0.489779 0.011472 -0.048552
C16   C     C_R   0.636630 0.346759 0.990228 -0.069968
C17   C     C_R   0.173250 0.020359 0.544165 -0.085569
C18   C     C_R   0.834180 0.844498 0.452107 -0.132022
C19   C     C_R   0.327229 0.517085 0.955824 -0.080832
C20   C     C_R   0.668315 0.361117 0.045713 -0.139521
C21   C     C_R   0.101395 0.068265 0.591346 0.084865
C22   C     C_R   0.897368 0.009463 0.410626 0.058064
C23   C     C_R   0.399044 0.561866 0.908392 0.084157
C24   C     C_R   0.602710 0.501443 0.089220 0.054183
C25   C     C_R   0.069393 0.019539 0.534689 0.064770
C26   C     C_R   0.933412 0.958518 0.463958 0.062916
C27   C     C_R   0.431099 0.503792 0.964218 0.068811
C28   C     C_R   0.567484 0.454991 0.034888 0.074123
C29   C     C_R   0.090696 0.006331 0.481930 -0.069778
C30   C     C_R   0.916000 0.878771 0.513839 -0.043925
C31   C     C_R   0.409780 0.478272 0.016604 -0.069996
C32   C     C_R   0.586023 0.387499 0.984113 -0.047930
C33   C     C_R   0.017529 0.978844 0.528092 0.022813
C34   C     C_R   0.986022 0.980479 0.469888 0.009212
C35   C     C_R   0.483295 0.468890 0.970626 0.023360
C36   C     C_R   0.514642 0.467505 0.028941 0.022821
C37   C     C_R   0.008740 0.968576 0.419432 -0.305192
C38   C     C_R   0.998415 0.901140 0.575827 -0.303020
C39   C     C_R   0.491953 0.440090 0.078911 -0.328027
C40   C     C_R   0.503378 0.402149 0.922154 -0.309665
C41   C     C_R   0.059990 0.982494 0.424436 0.344197
C42   C     C_R   0.948953 0.848024 0.569253 0.331159
C43   C     C_R   0.440487 0.439830 0.073323 0.351247
C44   C     C_R   0.553481 0.357934 0.928298 0.327728
H1    H     H_    0.797233 0.789885 0.447890 0.216619
H2    H     H_    0.213002 0.009339 0.547344 0.169928
H3    H     H_    0.706108 0.316262 0.049236 0.218821
H4    H     H_    0.287442 0.513811 0.953137 0.170159
H5    H     H_    0.160077 0.979799 0.449638 0.192176
H6    H     H_    0.851464 0.766929 0.544057 0.202669
H7    H     H_    0.340721 0.474149 0.050328 0.193552
H8    H     H_    0.652225 0.297651 0.952596 0.201464
H9    H     H_    0.987514 0.927432 0.376165 0.166621
H10   H     H_    0.023087 0.854077 0.615955 0.153107
H11   H     H_    0.514077 0.398979 0.122050 0.169861
H12   H     H_    0.479303 0.357086 0.881389 0.158626
C45   C     C_R   0.845256 0.033049 0.094383 0.387540
C46   C     C_R   0.164093 0.986255 0.913329 0.346543
C47   C     C_R   0.655091 0.531588 0.405978 0.387139
C48   C     C_R   0.336166 0.485817 0.586931 0.347178
C49   C     C_R   0.881550 0.032168 0.058376 -0.177363
C50   C     C_R   0.128063 0.969851 0.949882 -0.184303
C51   C     C_R   0.618764 0.531147 0.441953 -0.176586
C52   C     C_R   0.372228 0.469773 0.550419 -0.185554
H13   H     H_    0.873093 0.097237 0.014208 0.172481
H14   H     H_    0.138913 0.920130 0.995939 0.183050
H15   H     H_    0.627303 0.594871 0.486248 0.172812
H16   H     H_    0.361458 0.419737 0.504455 0.182579
C53   C     C_R   0.928545 0.953615 0.079218 0.124447
C54   C     C_R   0.078613 0.022954 0.928510 0.131918
C55   C     C_R   0.571649 0.454457 0.420969 0.123124
C56   C     C_R   0.421582 0.523590 0.571703 0.132019
C57   C     C_R   0.938067 0.872160 0.137246 0.009608
C58   C     C_R   0.065044 0.088707 0.868811 0.019156
C59   C     C_R   0.561982 0.374618 0.362809 0.014620
C60   C     C_R   0.435003 0.589721 0.631295 0.019484
H17   H     H_    0.974343 0.816081 0.155880 0.154905
H18   H     H_    0.026938 0.126350 0.850598 0.141574
H19   H     H_    0.525621 0.319920 0.344122 0.154221
H20   H     H_    0.473038 0.627799 0.649481 0.142319
C61   C     C_R   0.900771 0.861548 0.171856 -0.186739
C62   C     C_R   0.100447 0.107867 0.832156 -0.217964
C63   C     C_R   0.599234 0.363825 0.328149 -0.188309
C64   C     C_R   0.399537 0.608741 0.667881 -0.217147
H21   H     H_    0.908812 0.794408 0.215729 0.139559
H22   H     H_    0.088938 0.159267 0.786407 0.129723
H23   H     H_    0.591073 0.298030 0.284144 0.138561
H24   H     H_    0.410919 0.660647 0.713527 0.130041
C65   C     C_R   0.854107 0.942754 0.151099 -0.274370
C66   C     C_R   0.149976 0.057021 0.853633 -0.264058
C67   C     C_R   0.646041 0.443007 0.349059 -0.277427
C68   C     C_R   0.350110 0.557109 0.646475 -0.264610
C69   C     C_R   0.000484 0.818504 0.035186 0.395117
C70   C     C_R   0.008753 0.157714 0.974749 0.394517
C71   C     C_R   0.499756 0.319602 0.465010 0.395037
C72   C     C_R   0.491480 0.658237 0.525488 0.394128
C73   C     C_R   0.037342 0.843983 0.000278 -0.209839
C74   C     C_R   0.972365 0.133015 0.010109 -0.215918
C75   C     C_R   0.462922 0.345014 0.499955 -0.209893
C76   C     C_R   0.527893 0.633525 0.490152 -0.215195
H25   H     H_    0.061948 0.730121 0.995588 0.222972
H26   H     H_    0.948185 0.247952 0.014774 0.223411
H27   H     H_    0.438333 0.231307 0.504628 0.223059
H28   H     H_    0.552092 0.748225 0.485497 0.223319
C77   C     C_R   0.041378 0.010019 0.968794 -0.124108
C78   C     C_R   0.967603 0.966157 0.040996 -0.112161
C79   C     C_R   0.458865 0.510761 0.531453 -0.123615
C80   C     C_R   0.532633 0.466983 0.459230 -0.112367
N1    N     N_R   0.080128 0.972161 0.370183 0.238826
O21   O     O_R   0.063128 0.850261 0.328869 -0.359995
O22   O     O_R   0.108315 0.104881 0.357065 -0.339890
N2    N     N_R   0.933322 0.757433 0.619206 0.229053
O23   O     O_R   0.946124 0.825485 0.673429 -0.365563
O24   O     O_R   0.915094 0.590640 0.612683 -0.389289
N3    N     N_R   0.420195 0.395403 0.125816 0.239574
O25   O     O_R   0.440319 0.463780 0.178218 -0.358881
O26   O     O_R   0.388670 0.260018 0.123704 -0.349621
N4    N     N_R   0.570156 0.276679 0.877536 0.230668
O27   O     O_R   0.555197 0.345367 0.823645 -0.365127
O28   O     O_R   0.591522 0.114767 0.883015 -0.382026
N5    N     N_R   0.995416 0.639169 0.061221 0.236144
O29   O     O_R   0.951670 0.568601 0.059720 -0.397057
O30   O     O_R   0.034330 0.536192 0.079578 -0.355399
N6    N     N_R   0.013142 0.335756 0.947384 0.237979
O31   O     O_R   0.973971 0.437761 0.929428 -0.358024
O32   O     O_R   0.056601 0.405587 0.946431 -0.397877
N7    N     N_R   0.504784 0.140585 0.438866 0.236133
O33   O     O_R   0.548514 0.069580 0.440220 -0.397179
O34   O     O_R   0.465855 0.038250 0.420534 -0.355948
N8    N     N_R   0.487026 0.836142 0.552763 0.237823
O35   O     O_R   0.526167 0.937709 0.570731 -0.357665
O36   O     O_R   0.443537 0.906391 0.553563 -0.398049
C81   C     C_3   0.907383 0.165011 0.368152 -0.452877
C82   C     C_3   0.917160 0.349648 0.402219 -0.185533
C83   C     C_3   0.923937 0.507920 0.359492 -0.874379
H29   H     H_    0.955555 0.478354 0.336780 0.279782
H30   H     H_    0.889703 0.527935 0.324768 0.266145
H31   H     H_    0.931822 0.637966 0.385695 0.243025
H32   H     H_    0.885415 0.383235 0.424382 0.216279
H33   H     H_    0.951164 0.338995 0.437832 0.203828
H34   H     H_    0.937837 0.134738 0.344349 0.194710
H35   H     H_    0.875604 0.186569 0.330613 0.204175
C84   C     C_3   0.081884 0.157844 0.643945 -0.455000
C85   C     C_3   0.052439 0.335754 0.624509 -0.248331
C86   C     C_3   0.038238 0.431946 0.679070 -0.762856
H36   H     H_    0.014527 0.339775 0.700972 0.279082
H37   H     H_    0.071943 0.469951 0.712541 0.239033
H38   H     H_    0.017349 0.560308 0.664207 0.272287
H39   H     H_    0.075293 0.432145 0.602757 0.209039
H40   H     H_    0.018049 0.303731 0.591426 0.221628
H41   H     H_    0.060186 0.062846 0.666888 0.193024
H42   H     H_    0.112704 0.197525 0.680912 0.175351
C87   C     C_3   0.591404 0.646654 0.133942 -0.459554
C88   C     C_3   0.608780 0.839286 0.117702 -0.187975
C89   C     C_3   0.595735 0.987382 0.160489 -0.842771
H43   H     H_    0.555017 0.992778 0.158090 0.260074
H44   H     H_    0.614478 0.957525 0.207762 0.272446
H45   H     H_    0.607944 0.125075 0.147169 0.236838
H46   H     H_    0.649444 0.840151 0.119793 0.226798
H47   H     H_    0.590394 0.875572 0.070702 0.200723
H48   H     H_    0.551658 0.661420 0.134386 0.220526
H49   H     H_    0.609366 0.608093 0.180838 0.175531
C90   C     C_3   0.418532 0.656776 0.856608 -0.454582
C91   C     C_3   0.449648 0.829316 0.877881 -0.246943
C92   C     C_3   0.465138 0.928050 0.824487 -0.772117
H50   H     H_    0.487365 0.833609 0.801256 0.279461
H51   H     H_    0.431984 0.975922 0.791705 0.241586
H52   H     H_    0.488058 0.050321 0.840965 0.271735
H53   H     H_    0.427602 0.926729 0.900406 0.210117
H54   H     H_    0.483625 0.791069 0.910786 0.221220
H55   H     H_    0.438746 0.561969 0.831672 0.190747
H56   H     H_    0.387646 0.704928 0.820919 0.178323
N9    N     N_R   0.800126 0.131205 0.073246 0.215543
O37   O     O_R   0.793904 0.291676 0.096988 -0.405509
O38   O     O_R   0.773168 0.088355 0.021073 -0.393090
N10   N     N_R   0.214603 0.934221 0.938032 0.231068
O39   O     O_R   0.251512 0.020527 0.921825 -0.401711
O40   O     O_R   0.224059 0.813178 0.981667 -0.379790
N11   N     N_R   0.700551 0.626727 0.427512 0.215966
O41   O     O_R   0.707555 0.787069 0.404058 -0.403352
O42   O     O_R   0.727148 0.581479 0.479746 -0.389647
N12   N     N_R   0.285772 0.432911 0.562331 0.230784
O43   O     O_R   0.248685 0.519850 0.577958 -0.404883
O44   O     O_R   0.276604 0.310196 0.519340 -0.379411

loop_
_geom_bond_atom_site_label_1
_geom_bond_atom_site_label_2
_geom_bond_distance
_ccdc_geom_bond_type
O17   V3    1.759924 S    
C59   H19   1.082386 S    
N11   O41   1.300598 A    
C52   C56   1.404589 A    
O1    C5    1.331235 A    
C19   H4    1.084065 S    
C51   H15   1.083229 S    
C90   H56   1.106015 S    
O19   V1    1.762156 S    
C72   C79   1.414918 A    
C9    C21   1.425859 A    
C86   H36   1.110958 S    
O3    C7    1.331619 A    
C10   C18   1.393279 A    
C60   H20   1.082919 S    
C11   C23   1.426787 A    
N5    O29   1.300985 A    
C87   H48   1.099653 S    
C33   C38   1.401045 A    
C5    C12   1.489520 S    
C39   H11   1.083093 S    
C85   H40   1.110082 S    
C6    C11   1.482830 S    
N11   O42   1.300882 A    
C35   C40   1.400599 A    
C26   C30   1.424194 A    
C64   H24   1.083001 S    
C62   C66   1.402474 A    
C36   C39   1.401827 A    
C40   C44   1.394013 A    
O2    V4    1.982948 S    
C61   C65   1.404795 A    
N6    O32   1.301172 A    
C14   C18   1.381510 A    
C45   N9    1.426966 S    
O4    C8    1.326261 A    
C55   C59   1.409673 A    
C54   C58   1.405963 A    
O1    V3    1.982947 S    
O13   V1    1.979652 S    
C31   C43   1.415865 A    
C76   C80   1.407890 A    
C20   H3    1.075963 S    
C69   N5    1.437379 S    
C70   C74   1.404906 A    
O3    V1    1.981069 S    
C69   C73   1.409131 A    
C13   H5    1.080972 S    
C50   C54   1.404442 A    
C62   H22   1.082779 S    
C73   H25   1.081406 S    
C49   C53   1.405049 A    
C1    O15   1.335189 A    
C81   C82   1.536007 S    
C15   C31   1.405112 A    
C52   H16   1.083180 S    
C2    O16   1.333284 A    
N10   O39   1.301539 A    
C16   C32   1.402073 A    
C51   C55   1.405008 A    
O2    C6    1.326580 A    
N7    O33   1.300996 A    
C83   H30   1.110918 S    
C44   N4    1.436762 S    
C10   C22   1.429886 A    
C15   H7    1.080869 S    
C11   C19   1.392460 A    
C16   C20   1.383078 A    
O5    V1    1.988870 S    
C88   H46   1.109800 S    
C82   H33   1.110885 S    
C76   H28   1.079860 S    
C89   H45   1.108037 S    
C13   C29   1.405240 A    
C34   C37   1.400942 A    
O11   C7    1.331820 A    
O15   V3    1.979800 S    
C35   C36   1.425547 A    
O12   C8    1.330976 A    
C40   H12   1.074408 S    
C92   H50   1.110993 S    
C63   H23   1.083598 S    
O10   V2    1.993322 S    
C24   C87   1.526865 S    
N5    O30   1.301372 A    
C45   C49   1.401803 A    
C88   C89   1.527651 S    
C81   H35   1.103232 S    
C4    C66   1.477826 S    
C71   N7    1.437465 S    
C85   H39   1.112147 S    
C39   C43   1.396104 A    
C60   C64   1.399296 A    
C54   C77   1.495878 S    
O7    V3    1.988962 S    
C38   C42   1.393435 A    
C26   C34   1.435624 A    
C47   C67   1.412107 A    
N6    O31   1.301400 A    
C46   C66   1.419736 A    
C47   N11   1.427566 S    
C50   H14   1.083186 S    
C81   H34   1.099464 S    
C84   C85   1.533780 S    
C49   H13   1.083192 S    
O18   V4    1.759923 S    
C23   C27   1.450477 A    
C32   C44   1.412338 A    
C22   C81   1.532585 S    
C75   C79   1.406324 A    
O6    V2    1.988870 S    
C18   H1    1.076995 S    
O4    V2    1.981068 S    
C87   H49   1.111251 S    
C16   H8    1.080872 S    
C72   C76   1.405060 A    
C91   C92   1.526575 S    
C1    C67   1.485369 S    
C82   C83   1.526566 S    
C74   H26   1.079716 S    
C92   H52   1.106794 S    
O7    C3    1.341390 A    
C48   N12   1.441675 S    
O5    C1    1.341709 A    
C58   H18   1.082946 S    
C75   H27   1.081340 S    
C83   H29   1.110773 S    
C14   C30   1.400679 A    
C21   C25   1.447781 A    
O8    C4    1.339324 A    
C7    C10   1.488538 S    
C29   C41   1.414021 A    
C72   N8    1.438742 S    
C71   C80   1.418220 A    
C83   H31   1.108222 S    
O9    C5    1.332544 A    
N9    O38   1.300865 A    
C69   C78   1.418352 A    
C21   C84   1.534638 S    
C63   C67   1.404708 A    
N8    O35   1.301401 A    
C82   H32   1.112257 S    
C56   C79   1.496303 S    
C42   N2    1.436116 S    
N2    O24   1.301458 A    
C85   C86   1.526737 S    
C88   H47   1.112421 S    
C91   H53   1.112103 S    
C37   H9    1.077389 S    
N1    O21   1.301411 A    
C86   H38   1.105690 S    
N4    O28   1.301442 A    
C48   C68   1.419513 A    
C12   C20   1.392124 A    
C27   C35   1.436097 A    
C23   C90   1.534757 S    
C53   C78   1.502811 S    
C53   C57   1.409819 A    
C43   N3    1.437117 S    
C84   H41   1.100519 S    
O16   V4    1.979803 S    
O9    V1    1.993319 S    
C61   H21   1.083560 S    
C3    O13   1.335289 A    
C90   H55   1.101023 S    
N12   O43   1.301450 A    
N8    O36   1.301166 A    
C38   H10   1.074528 S    
C4    O14   1.332975 A    
C48   C52   1.409476 A    
C73   C77   1.406221 A    
N2    O23   1.301284 A    
C47   C51   1.402027 A    
O6    C2    1.339480 A    
C25   C33   1.435545 A    
C15   C19   1.385537 A    
N3    O25   1.301394 A    
O11   V3    1.996688 S    
C30   C42   1.411029 A    
C71   C75   1.409045 A    
O12   V4    1.996689 S    
C59   C63   1.404376 A    
C22   C26   1.448878 A    
C8    C9    1.479609 S    
C58   C62   1.399132 A    
C9    C17   1.392445 A    
O10   C6    1.332568 A    
C70   N6    1.438810 S    
C57   C61   1.404536 A    
C90   C91   1.535253 S    
C70   C77   1.414693 A    
C46   C50   1.409636 A    
N3    O26   1.301342 A    
C64   C68   1.402544 A    
C33   C34   1.425438 A    
C55   C80   1.502464 S    
O8    V4    1.988964 S    
C25   C29   1.425690 A    
C56   C60   1.406156 A    
O20   V2    1.762158 S    
C14   H6    1.080893 S    
C12   C24   1.427065 A    
C27   C31   1.426810 A    
N7    O34   1.301374 A    
C13   C17   1.385295 A    
N9    O37   1.300564 A    
C3    C65   1.485797 S    
C2    C68   1.477906 S    
C57   H17   1.082354 S    
C46   N10   1.441878 S    
O14   V2    1.979646 S    
C91   H54   1.109027 S    
C89   H43   1.110877 S    
C37   C41   1.395379 A    
C24   C28   1.446921 A    
C28   C36   1.435641 A    
C87   C88   1.536212 S    
C45   C65   1.411648 A    
N1    O22   1.301325 A    
N4    O27   1.301341 A    
C17   H2    1.084127 S    
C92   H51   1.111025 S    
N12   O44   1.301533 A    
C74   C78   1.408011 A    
N10   O40   1.301603 A    
C41   N1    1.437447 S    
C28   C32   1.424908 A    
C84   H42   1.105832 S    
C89   H44   1.110618 S    
C86   H37   1.111061 S    
