data_mof_unit_23968.cif
_audit_creation_date              2013-03-05T15:47:47-0500
_audit_creation_method            fapswitch 2.2
_symmetry_space_group_name_H-M    P1
_symmetry_Int_Tables_number       1
_space_group_crystal_system       triclinic
_cell_length_a                    21.70535
_cell_length_b                    7.200769
_cell_length_c                    18.579719
_cell_angle_alpha                 90.436733
_cell_angle_beta                  96.050554
_cell_angle_gamma                 89.672203
_cell_volume                      2887.62497365

loop_
_atom_site_label
_atom_site_type_symbol
_atom_site_description
_atom_site_fract_x
_atom_site_fract_y
_atom_site_fract_z
_atom_type_partial_charge
O1    O     O_R   0.449650 0.506500 0.414480 -0.581374
O2    O     O_R   0.550350 0.006500 0.585520 -0.581685
O3    O     O_R   0.432010 0.173150 0.560250 -0.592147
O4    O     O_R   0.567990 0.673150 0.439750 -0.578530
C1    C     C_R   0.416253 0.345387 0.580971 0.916738
C2    C     C_R   0.584511 0.844029 0.419857 0.914342
O5    O     O_R   0.442320 0.176650 0.413480 -0.580776
O6    O     O_R   0.557680 0.676650 0.586520 -0.580976
O7    O     O_R   0.560730 0.008380 0.437700 -0.591874
O8    O     O_R   0.439270 0.508380 0.562300 -0.589195
C3    C     C_R   0.428337 0.344962 0.387639 0.930500
C4    C     C_R   0.571388 0.845452 0.612554 0.928523
O9    O     O_3   0.538840 0.339860 0.508120 -0.275671
O10   O     O_3   0.461160 0.839860 0.491880 -0.278479
V1    V     V_3+5 0.492800 0.064220 0.498490 1.184513
V2    V     V_3+5 0.507200 0.564220 0.501510 1.193013
C5    C     C_R   0.871507 0.944855 0.688792 -0.155106
C6    C     C_R   0.128819 0.475538 0.310753 -0.154171
H1    H     H_    0.959539 0.965887 0.751418 0.184830
H2    H     H_    0.040845 0.503101 0.247460 0.162778
H3    H     H_    0.790235 0.930805 0.572314 0.161045
H4    H     H_    0.210473 0.469453 0.427159 0.163232
H5    H     H_    0.891952 0.955755 0.638227 0.144467
H6    H     H_    0.108876 0.501504 0.360983 0.143942
C7    C     C_R   0.885844 0.938758 0.819730 -0.123098
C8    C     C_R   0.113753 0.442419 0.180406 -0.117538
C9    C     C_R   0.584804 0.834830 0.745566 -0.280031
C10   C     C_R   0.414163 0.318650 0.254919 -0.277943
C11   C     C_R   0.620102 0.840380 0.813097 0.426934
C12   C     C_R   0.378589 0.317297 0.187552 0.425203
C13   C     C_R   0.684489 0.865142 0.816372 -0.302138
C14   C     C_R   0.314383 0.347709 0.184235 -0.302380
C15   C     C_R   0.714739 0.884555 0.753032 0.048196
C16   C     C_R   0.284575 0.379987 0.247357 0.049814
C17   C     C_R   0.677604 0.878851 0.684574 0.097822
C18   C     C_R   0.322037 0.382300 0.315635 0.100740
C19   C     C_R   0.780678 0.908243 0.755390 0.130458
C20   C     C_R   0.218800 0.410026 0.244892 0.128241
C21   C     C_R   0.807310 0.923989 0.688994 0.145454
C22   C     C_R   0.192700 0.443202 0.310881 0.146365
C23   C     C_R   0.769946 0.918387 0.622937 -0.176787
C24   C     C_R   0.230350 0.444593 0.376797 -0.184756
C25   C     C_R   0.706250 0.896570 0.620644 -0.167960
C26   C     C_R   0.293824 0.414321 0.379268 -0.178345
C27   C     C_R   0.821488 0.916740 0.820858 -0.239699
C28   C     C_R   0.177693 0.409062 0.179626 -0.239128
C29   C     C_R   0.910246 0.951454 0.753398 -0.111967
C30   C     C_R   0.089882 0.476164 0.246162 -0.110513
C31   C     C_R   0.612444 0.854084 0.681473 -0.203693
C32   C     C_R   0.387047 0.351077 0.318809 -0.207726
H7    H     H_    0.805045 0.907340 0.873426 0.107456
H8    H     H_    0.193630 0.384763 0.127372 0.109862
H9    H     H_    0.535114 0.815439 0.742570 0.158829
H10   H     H_    0.463678 0.294124 0.257951 0.163459
H11   H     H_    0.709918 0.867957 0.869259 0.168901
H12   H     H_    0.288789 0.345446 0.131447 0.169493
H13   H     H_    0.679556 0.892861 0.568020 0.113946
H14   H     H_    0.320748 0.416569 0.431763 0.117315
C33   C     C_R   0.646144 0.712590 0.323302 -0.123554
C34   C     C_R   0.362855 0.515178 0.675566 -0.157180
C35   C     C_R   0.635745 0.855248 0.372714 -0.170836
C36   C     C_R   0.366798 0.358748 0.630307 -0.173134
C37   C     C_R   0.673529 0.013910 0.375807 -0.167252
C38   C     C_R   0.322993 0.216613 0.631861 -0.172583
C39   C     C_R   0.720672 0.033328 0.329782 0.009396
C40   C     C_R   0.275114 0.229436 0.677312 0.007055
C41   C     C_R   0.729665 0.891317 0.278952 0.021086
C42   C     C_R   0.271901 0.386695 0.723038 0.029700
C43   C     C_R   0.692452 0.730131 0.276141 0.198030
C44   C     C_R   0.316115 0.529519 0.722097 0.195583
C45   C     C_R   0.758970 0.191387 0.333033 0.414338
C46   C     C_R   0.230071 0.089655 0.677962 0.423090
C47   C     C_R   0.804265 0.209062 0.285289 -0.218880
C48   C     C_R   0.183448 0.105506 0.724018 -0.219964
C49   C     C_R   0.813494 0.070264 0.233542 -0.045738
C50   C     C_R   0.179618 0.260703 0.770189 -0.046749
C51   C     C_R   0.775941 0.909881 0.230898 -0.010305
C52   C     C_R   0.224295 0.402090 0.769507 -0.001411
C53   C     C_R   0.784683 0.767028 0.180569 0.174202
C54   C     C_R   0.221366 0.559707 0.814808 0.172256
C55   C     C_R   0.747711 0.607300 0.178728 -0.148966
C56   C     C_R   0.265714 0.700282 0.813228 -0.152345
C57   C     C_R   0.702023 0.589199 0.225913 -0.161857
C58   C     C_R   0.312674 0.685204 0.767440 -0.126656
C59   C     C_R   0.859778 0.087116 0.185260 0.437835
C60   C     C_R   0.132015 0.277624 0.816495 0.447212
C61   C     C_R   0.867882 0.943966 0.133808 -0.279098
C62   C     C_R   0.130156 0.433764 0.864013 -0.271124
C63   C     C_R   0.830175 0.785164 0.132801 -0.232086
C64   C     C_R   0.174628 0.574208 0.861443 -0.255614
H15   H     H_    0.617323 0.589721 0.320419 0.137926
H16   H     H_    0.396604 0.625506 0.675168 0.136020
H17   H     H_    0.665827 0.122182 0.414607 0.192126
H18   H     H_    0.326035 0.097536 0.596523 0.193160
H19   H     H_    0.832054 0.333579 0.289500 0.227240
H20   H     H_    0.150383 0.993578 0.722896 0.226857
H21   H     H_    0.836032 0.674549 0.094133 0.173266
H22   H     H_    0.173529 0.694370 0.896821 0.172034
H23   H     H_    0.754166 0.495811 0.140686 0.150788
H24   H     H_    0.264035 0.822459 0.847405 0.143814
H25   H     H_    0.674199 0.464362 0.223212 0.147423
H26   H     H_    0.346126 0.796271 0.767119 0.143132
O11   O     O_R   0.060820 0.290050 0.937800 -0.547711
O12   O     O_R   0.939180 0.790050 0.062200 -0.591424
O13   O     O_R   0.057690 0.616620 0.086540 -0.591555
O14   O     O_R   0.942310 0.116620 0.913460 -0.571642
C65   C     C_R   0.071662 0.448880 0.112508 0.945989
C66   C     C_R   0.928141 0.948229 0.887569 0.961418
O15   O     O_R   0.068010 0.619890 0.939770 -0.584766
O16   O     O_R   0.931990 0.119890 0.060230 -0.549282
O17   O     O_R   0.949640 0.787940 0.914460 -0.584811
O18   O     O_R   0.050360 0.287940 0.085540 -0.569028
C67   C     C_R   0.082837 0.449958 0.916955 0.984711
C68   C     C_R   0.916500 0.952396 0.082329 0.983032
O19   O     O_3   0.961210 0.453080 0.991940 -0.279246
O20   O     O_3   0.038790 0.953080 0.008060 -0.272437
V3    V     V_3+5 0.007200 0.728820 0.001500 1.217175
V4    V     V_3+5 0.992800 0.228820 0.998500 1.248144
Cl1   Cl    Cl    0.752855 0.371116 0.397003 -0.681695
Cl2   Cl    Cl    0.229068 0.892327 0.620912 -0.678574
Cl3   Cl    Cl    0.909825 0.281932 0.192842 -0.692528
Cl4   Cl    Cl    0.073154 0.106699 0.810976 -0.704213
N1    N     N_R   0.590510 0.820446 0.878524 0.249837
O21   O     O_R   0.622840 0.825199 0.941631 -0.368862
O22   O     O_R   0.530860 0.797331 0.875646 -0.358396
N2    N     N_R   0.407709 0.284366 0.122335 0.249563
O23   O     O_R   0.375101 0.282341 0.059384 -0.369481
O24   O     O_R   0.467212 0.256210 0.125243 -0.355174

loop_
_geom_bond_atom_site_label_1
_geom_bond_atom_site_label_2
_geom_bond_distance
_ccdc_geom_bond_type
C40   C42   1.416286 A    
C12   N2    1.441978 S    
N2    O23   1.301740 A    
C50   C60   1.416685 A    
C9    C11   1.399934 A    
C58   H26   1.083733 S    
C65   O18   1.325266 A    
O1    C3    1.328313 A    
O2    C4    1.326684 A    
O16   V4    2.004379 S    
C2    O7    1.341645 A    
C37   C39   1.409182 A    
C4    C31   1.482077 S    
O15   V3    1.991584 S    
N1    O21   1.301768 A    
C21   C23   1.398371 A    
O5    C3    1.328705 A    
O13   C65   1.325720 A    
C5    H5    1.084026 S    
C48   C50   1.411055 A    
C6    H6    1.083928 S    
C2    C35   1.489235 S    
O11   C67   1.325272 A    
C50   C52   1.411085 A    
C60   C62   1.427256 A    
N1    O22   1.301775 A    
C27   H7    1.077343 S    
C28   H8    1.077207 S    
O20   V3    1.756352 S    
C34   C36   1.408151 A    
C5    C21   1.402759 A    
C62   C67   1.498637 S    
C35   C37   1.407463 A    
C6    C22   1.404435 A    
C61   C68   1.498826 S    
C36   C38   1.403473 A    
C10   C32   1.396968 A    
C49   C59   1.421888 A    
C40   C46   1.408196 A    
C18   C32   1.422727 A    
C26   H14   1.082938 S    
C39   C41   1.413341 A    
C41   C51   1.419965 A    
C17   C31   1.421616 A    
C13   C15   1.414932 A    
C59   Cl3   1.774801 S    
C12   C14   1.404462 A    
C17   C25   1.404510 A    
O16   C68   1.333256 A    
C16   C18   1.432867 A    
C8    C30   1.395568 A    
C34   H16   1.084283 S    
O6    V2    1.994112 S    
O14   V4    1.993952 S    
C47   C49   1.409628 A    
O13   V3    1.998626 S    
C24   C26   1.389650 A    
C55   C57   1.398391 A    
C51   C53   1.410343 A    
C42   C52   1.417996 A    
C33   C35   1.405589 A    
C53   C63   1.402764 A    
C59   C61   1.423261 A    
C48   H20   1.080876 S    
C46   C48   1.396098 A    
C53   C55   1.404349 A    
C10   H10   1.083821 S    
O5    V1    1.998791 S    
C55   H23   1.083808 S    
C39   C45   1.410391 A    
C15   C19   1.438360 A    
C63   H21   1.084487 S    
C41   C43   1.415346 A    
C38   C40   1.408685 A    
O4    V2    2.004422 S    
C60   Cl4   1.773722 S    
C43   C57   1.402831 A    
O18   V4    1.981682 S    
C25   H13   1.082932 S    
C34   C44   1.403456 A    
O6    C4    1.328450 A    
O19   V4    1.750838 S    
C46   Cl2   1.765086 S    
C52   C54   1.412988 A    
O1    V2    1.979307 S    
C33   H15   1.084221 S    
O2    V1    1.981481 S    
C49   C51   1.414933 A    
H2    C30   1.083520 S    
C33   C43   1.408135 A    
H3    C23   1.084267 S    
O4    C2    1.348757 A    
C62   C64   1.406561 A    
C56   C58   1.398070 A    
C61   C63   1.408868 A    
O12   C68   1.332062 A    
C18   C26   1.404568 A    
O11   V4    2.003022 S    
C47   H19   1.081215 S    
C19   C27   1.428380 A    
C7    C27   1.409115 A    
C44   C58   1.403553 A    
C45   C47   1.398827 A    
O12   V3    1.995505 S    
C7    C29   1.395580 A    
N2    O24   1.301732 A    
C57   H25   1.083712 S    
C16   C20   1.438718 A    
C56   H24   1.083755 S    
C23   C25   1.388506 A    
C5    C29   1.391750 A    
O3    C1    1.348712 A    
C6    C30   1.393087 A    
C8    C65   1.478412 S    
C9    H9    1.083873 S    
O15   C67   1.340480 A    
C37   H17   1.082051 S    
C66   O17   1.324027 A    
C45   Cl1   1.764369 S    
O17   V3    1.983906 S    
C10   C12   1.399686 A    
O7    V1    1.987136 S    
C38   H18   1.081924 S    
C1    O8    1.340485 A    
C19   C21   1.421980 A    
C3    C32   1.483029 S    
O8    V2    1.994024 S    
C20   C22   1.421843 A    
H4    C24   1.084173 S    
O14   C66   1.326811 A    
C11   N1    1.441932 S    
C22   C24   1.398839 A    
C15   C17   1.432714 A    
C54   C56   1.403449 A    
C14   H12   1.075088 S    
C1    C36   1.485477 S    
H1    C29   1.080042 S    
C54   C64   1.404809 A    
C20   C28   1.427738 A    
C8    C28   1.408671 A    
C11   C13   1.404773 A    
O9    V2    1.751947 S    
C42   C44   1.412117 A    
O10   V1    1.757458 S    
O3    V1    1.991628 S    
C13   H11   1.075236 S    
C64   H22   1.084301 S    
C9    C31   1.396878 A    
C7    C66   1.480421 S    
C14   C16   1.414980 A    
