data_mof_unit_36173.cif
_audit_creation_date              2012-12-11T15:23:33-0500
_audit_creation_method            fapswitch 2.2
_symmetry_space_group_name_H-M    P1
_symmetry_Int_Tables_number       1
_space_group_crystal_system       triclinic
_cell_length_a                    6.931568
_cell_length_b                    17.545546
_cell_length_c                    19.315687
_cell_angle_alpha                 109.498935
_cell_angle_beta                  90.474063
_cell_angle_gamma                 90.123009
_cell_volume                      2214.30372601

loop_
_atom_site_label
_atom_site_type_symbol
_atom_type_description
_atom_site_fract_x
_atom_site_fract_y
_atom_site_fract_z
_atom_type_partial_charge
O1    O     O_R   0.505810 0.439670 0.562310 -0.536657
O2    O     O_R   0.169070 0.404920 0.411210 -0.535584
O3    O     O_R   0.005550 0.560330 0.437690 -0.529102
C1    C     C_R   0.338571 0.381887 0.382975 0.816141
O4    O     O_R   0.175650 0.430000 0.560110 -0.533615
O5    O     O_R   0.012170 0.585580 0.587650 -0.529522
C2    C     C_R   0.344992 0.417313 0.583768 0.718115
O6    O     O_R   0.499180 0.414420 0.412350 -0.542880
O7    O     O_3   0.341430 0.551020 0.508860 -0.364360
V1    V     V_3+5 0.063930 0.490540 0.498360 1.558765
O8    O     O_R   0.682850 0.595080 0.588790 -0.552558
C3    C     C_R   0.852635 0.618300 0.616766 0.758038
O9    O     O_R   0.676280 0.570000 0.439890 -0.529262
C4    C     C_R   0.843980 0.584214 0.417502 0.744018
V2    V     V_3+5 0.564760 0.509460 0.501640 1.536008
O10   O     O_3   0.837130 0.448980 0.491140 -0.372200
C5    C     C_R   0.021335 0.889796 0.196633 0.345936
C6    C     C_R   0.918542 0.864710 0.129627 -0.235760
C7    C     C_R   0.812128 0.791636 0.108482 0.266751
C8    C     C_R   0.804930 0.745775 0.156039 0.062362
C9    C     C_R   0.895708 0.773501 0.225922 -0.090847
C10   C     C_R   0.000996 0.847135 0.247479 -0.048170
C11   C     C_R   0.712110 0.670625 0.133015 -0.211048
C12   C     C_R   0.702313 0.622785 0.178128 0.391135
C13   C     C_R   0.775296 0.653017 0.251216 0.041068
C14   C     C_R   0.880771 0.727252 0.273884 -0.099674
C15   C     C_R   0.968346 0.755934 0.344656 -0.008251
C16   C     C_R   0.052283 0.834656 0.369211 0.145111
C17   C     C_R   0.075728 0.878160 0.319958 0.310317
C18   C     C_R   0.746164 0.611537 0.302254 0.164055
C19   C     C_R   0.851342 0.634922 0.369151 -0.236681
C20   C     C_R   0.965860 0.706180 0.389476 0.342904
H1    H     H_    0.650669 0.647098 0.078181 0.183260
C21   C     C_3   0.807782 0.816803 0.741620 -0.222693
C22   C     C_3   0.976454 0.766871 0.697841 0.378236
H2    H     H_    0.747542 0.872107 0.734067 0.149791
C23   C     C_3   0.867170 0.687796 0.687547 -0.122297
C24   C     C_3   0.696174 0.736539 0.731929 -0.252905
C25   C     C_3   0.794808 0.732639 0.802531 0.382211
C26   C     C_3   0.963232 0.683177 0.758629 0.110037
C27   C     C_3   0.075380 0.763052 0.768389 -0.259790
C28   C     C_3   0.904150 0.811689 0.812691 -0.102742
H3    H     H_    0.540977 0.724778 0.717718 0.154200
H4    H     H_    0.230625 0.774604 0.782604 0.150474
C29   C     C_3   0.555758 0.287567 0.273060 -0.251532
C30   C     C_3   0.506860 0.198228 0.262214 0.268429
H5    H     H_    0.696643 0.317700 0.292241 0.176655
C31   C     C_3   0.412146 0.187839 0.187476 -0.186716
C32   C     C_3   0.456021 0.277505 0.197775 0.154370
C33   C     C_3   0.259561 0.303320 0.237179 0.090968
C34   C     C_3   0.217694 0.213884 0.226985 0.260407
C35   C     C_3   0.313585 0.223121 0.300945 0.255052
C36   C     C_3   0.357119 0.312289 0.312047 -0.210801
C37   C     C_R   0.255203 0.126578 0.821658 -0.177467
C38   C     C_R   0.413957 0.134787 0.869368 -0.070992
C39   C     C_R   0.559747 0.190477 0.870246 -0.169173
C40   C     C_R   0.547320 0.238102 0.824688 0.117085
C41   C     C_R   0.387683 0.230041 0.776813 0.044861
C42   C     C_R   0.238635 0.174201 0.775552 -0.024527
C43   C     C_R   0.694062 0.293327 0.826418 -0.293957
C44   C     C_R   0.685530 0.342165 0.781728 0.423530
C45   C     C_R   0.525500 0.335310 0.733482 0.063165
C46   C     C_R   0.378148 0.277518 0.730150 -0.106085
C47   C     C_R   0.222007 0.266757 0.679996 -0.009619
C48   C     C_R   0.076476 0.209139 0.677274 0.184046
C49   C     C_R   0.080114 0.165603 0.726524 0.318736
C50   C     C_R   0.508626 0.385200 0.689011 0.390214
C51   C     C_R   0.356494 0.371758 0.636492 -0.189778
C52   C     C_R   0.215173 0.313447 0.633324 -0.121151
H6    H     H_    0.148551 0.080813 0.819628 0.123858
H7    H     H_    0.682657 0.197270 0.906973 0.135460
H8    H     H_    0.817059 0.298357 0.862768 0.129157
H9    H     H_    0.099972 0.304855 0.593432 0.176256
O11   O     O_R   0.271890 0.085690 0.087580 -0.512482
O12   O     O_R   0.595690 0.070020 0.939870 -0.551618
O13   O     O_R   0.758900 0.914390 0.912370 -0.539866
C53   C     C_R   0.426178 0.085032 0.918152 0.688282
O14   O     O_R   0.602020 0.095100 0.088770 -0.520885
O15   O     O_R   0.765280 0.939660 0.062330 -0.538758
C54   C     C_R   0.432269 0.117639 0.117240 0.818174
O16   O     O_R   0.265520 0.060430 0.937620 -0.550190
O17   O     O_3   0.429560 0.949050 0.991100 -0.372890
V3    V     V_3+5 0.707160 0.009450 0.001650 1.540521
O18   O     O_R   0.094540 0.929890 0.060190 -0.525904
C55   C     C_R   0.926520 0.915202 0.081737 0.798650
O19   O     O_R   0.088200 0.904800 0.911290 -0.553228
C56   C     C_R   0.918437 0.881500 0.883315 0.709076
V4    V     V_3+5 0.206300 0.990390 0.998440 1.540280
O20   O     O_3   0.934030 0.050940 0.008900 -0.362639
O21   O     O_3   0.138814 0.956916 0.211108 -0.600819
H10   H     H_    0.266937 0.941538 0.225332 0.319960
O22   O     O_3   0.699040 0.715350 0.858975 -0.624869
H11   H     H_    0.636615 0.661956 0.835350 0.323156
I1    I     I_    0.086076 0.578115 0.773702 -0.345614
O23   O     O_3   0.633590 0.142558 0.275256 -0.612518
H12   H     H_    0.676081 0.167365 0.327097 0.324782
I2    I     I_    0.563331 0.314907 0.110547 -0.261986
I3    I     I_    0.056083 0.385702 0.218245 -0.261726
O24   O     O_3   0.041021 0.174853 0.203536 -0.589725
H13   H     H_    0.944755 0.207911 0.238187 0.326978
O25   O     O_3   0.717870 0.761951 0.041167 -0.620998
H14   H     H_    0.769660 0.787710 0.006820 0.315397
O26   O     O_3   0.237655 0.194475 0.354491 -0.620735
H15   H     H_    0.225352 0.135138 0.330505 0.355876
O27   O     O_3   0.835132 0.394992 0.783293 -0.585613
H16   H     H_    0.936635 0.390538 0.818216 0.303013
O28   O     O_3   0.638522 0.447903 0.699159 -0.589098
H17   H     H_    0.569124 0.494540 0.692949 0.289466
I4    I     I_    0.841608 0.184943 0.600128 -0.267839
O29   O     O_3   0.927428 0.114128 0.724073 -0.610247
H18   H     H_    0.896825 0.117438 0.774923 0.282167
O30   O     O_3   0.634111 0.544402 0.149155 -0.590511
H19   H     H_    0.591429 0.532844 0.097509 0.315882
I5    I     I_    0.527863 0.519262 0.284546 -0.236847
O31   O     O_3   0.082829 0.726255 0.451198 -0.600771
H20   H     H_    0.019247 0.709723 0.489661 0.318042
I6    I     I_    0.100931 0.901398 0.484081 -0.215834
O32   O     O_3   0.156099 0.954670 0.344175 -0.606001
H21   H     H_    0.263970 0.955133 0.378227 0.324083
O33   O     O_3   0.071999 0.783979 0.641259 -0.626676
H22   H     H_    0.128504 0.838678 0.664206 0.310315

loop_
_geom_bond_atom_site_label_1
_geom_bond_atom_site_label_2
_ccdc_geom_bond_type
C9    C14   A    
C35   O26   S    
O25   H14   S    
C10   C17   A    
C1    C36   S    
C27   C28   S    
O27   H16   S    
O23   H12   S    
C21   C28   S    
C4    C19   S    
C1    O6    A    
C50   O28   S    
C40   C41   A    
C29   C30   S    
O33   H22   S    
C14   C15   A    
C45   C46   A    
C45   C50   A    
C16   C17   A    
C22   C23   S    
C6    C7    A    
C23   C26   S    
C16   I6    S    
C42   C49   A    
O5    C3    A    
C18   C19   A    
C38   C53   S    
O19   V4    S    
C43   H8    S    
V2    O10   S    
C30   C35   S    
C41   C46   A    
C39   C40   A    
C21   C22   S    
C3    C23   S    
O29   H18   S    
O1    C2    A    
C2    C51   S    
O32   H21   S    
O8    V2    S    
O14   V3    S    
C31   C34   S    
C30   O23   S    
C7    C8    A    
C51   C52   A    
C11   H1    S    
C12   O30   S    
C11   C12   A    
C52   H9    S    
O1    V2    S    
C29   C32   S    
C44   O27   S    
O7    V1    S    
C29   C36   S    
O11   C54   A    
O9    C4    A    
C22   O33   S    
O13   V3    S    
O30   H19   S    
C5    C6    A    
C25   C28   S    
C37   C42   A    
C29   H5    S    
C34   O24   S    
V3    O20   S    
C30   C31   S    
C33   I3    S    
C33   C36   S    
C34   C35   S    
C6    C55   S    
C12   C13   A    
C25   C26   S    
O4    C2    A    
O19   C56   A    
C40   C43   A    
C13   C14   A    
C49   O29   S    
C50   C51   A    
C43   C44   A    
O2    C1    A    
C23   C24   S    
C19   C20   A    
C37   H6    S    
C8    C11   A    
C53   O16   A    
O28   H17   S    
C39   H7    S    
C8    C9    A    
C38   C39   A    
C33   C34   S    
O14   C54   A    
C47   C52   A    
O18   C55   A    
O12   C53   A    
O13   C56   A    
C48   I4    S    
O3    C4    A    
C31   C32   S    
C32   C33   S    
O6    V2    S    
O9    V2    S    
C27   H4    S    
O2    V1    S    
C25   O22   S    
O15   C55   A    
C35   C36   S    
C18   I5    S    
C13   C18   A    
C37   C38   A    
C26   C27   S    
C15   C20   A    
C21   C24   S    
C5    O21   S    
O18   V4    S    
C26   I1    S    
O5    V1    S    
O8    C3    A    
C17   O32   S    
C5    C10   A    
O24   H13   S    
C47   C48   A    
C31   C54   S    
C41   C42   A    
C24   H3    S    
O3    V1    S    
V1    O10   S    
O15   V3    S    
C7    O25   S    
O12   V3    S    
O21   H10   S    
C24   C25   S    
O17   V4    S    
O22   H11   S    
C21   H2    S    
C48   C49   A    
C20   O31   S    
O7    V2    S    
C44   C45   A    
C22   C27   S    
O16   V4    S    
C32   I2    S    
C46   C47   A    
O4    V1    S    
V4    O20   S    
O17   V3    S    
O26   H15   S    
C28   C56   S    
O11   V4    S    
C9    C10   A    
O31   H20   S    
C15   C16   A    
