data_mof_unit_22756.cif
_audit_creation_date              2012-12-10T17:37:17-0500
_audit_creation_method            fapswitch 2.2
_symmetry_space_group_name_H-M    P1
_symmetry_Int_Tables_number       1
_space_group_crystal_system       triclinic
_cell_length_a                    12.324817
_cell_length_b                    13.227397
_cell_length_c                    15.848992
_cell_angle_alpha                 77.921079
_cell_angle_beta                  101.116896
_cell_angle_gamma                 116.568656
_cell_volume                      2245.18444581

loop_
_atom_site_label
_atom_site_type_symbol
_atom_type_description
_atom_site_fract_x
_atom_site_fract_y
_atom_site_fract_z
_atom_type_partial_charge
C1    C     C_R   0.854606 0.286771 0.511093 0.789405
C2    C     C_3   0.998987 0.499624 0.916951 0.127382
C3    C     C_3   0.105999 0.582771 0.028844 -0.214072
C4    C     C_3   0.000647 0.501305 0.082777 0.160132
C5    C     C_3   0.011362 0.602490 0.955225 -0.131011
C6    C     C_3   0.905984 0.520813 0.010526 -0.212856
C7    C     C_1   0.998501 0.499602 0.825178 -0.045314
C8    C     C_1   0.001179 0.500631 0.174708 -0.014437
C9    C     C_R   0.276705 0.019915 0.396522 -0.197673
C10   C     C_R   0.227454 0.835047 0.483117 -0.144377
C11   C     C_R   0.806304 0.104241 0.606610 -0.295491
C12   C     C_R   0.999437 0.499740 0.659930 0.806760
C13   C     C_R   0.718640 0.015801 0.654505 -0.151947
C14   C     C_R   0.594895 0.986832 0.628533 0.493571
C15   C     C_R   0.556939 0.030738 0.543501 -0.024528
C16   C     C_R   0.646448 0.126188 0.497840 0.026105
C17   C     C_R   0.433857 0.986625 0.503266 0.025918
C18   C     C_R   0.398904 0.054810 0.431603 0.104585
C19   C     C_R   0.487406 0.152621 0.391122 -0.205039
C20   C     C_R   0.609775 0.182378 0.419671 -0.156208
C21   C     C_R   0.347973 0.873263 0.525911 0.318348
C22   C     C_R   0.190937 0.911315 0.423390 -0.241066
C23   C     C_R   0.145108 0.713138 0.490966 0.795373
C24   C     C_R   0.770585 0.166854 0.533225 -0.093094
C25   C     C_R   0.345025 0.327189 0.636365 -0.295603
C26   C     C_R   0.760179 0.645620 0.383856 0.082888
C27   C     C_R   0.663792 0.677156 0.358438 -0.252454
C28   C     C_R   0.559926 0.621998 0.401974 -0.172715
C29   C     C_R   0.551323 0.534163 0.472042 -0.003127
C30   C     C_R   0.652708 0.504927 0.495845 0.288257
C31   C     C_R   0.446682 0.474629 0.519462 -0.034901
C32   C     C_R   0.445569 0.387031 0.588851 0.173292
C33   C     C_R   0.545028 0.359951 0.610931 -0.277053
C34   C     C_R   0.000472 0.500147 0.340071 0.820201
C35   C     C_R   0.646499 0.418120 0.565975 -0.170740
C36   C     C_R   0.342331 0.497895 0.501556 0.065909
C37   C     C_R   0.245702 0.354356 0.615530 0.081404
C38   C     C_3   0.988557 0.401051 0.042956 0.454786
C39   C     C_3   0.893112 0.417837 0.970472 -0.222219
C40   C     C_1   0.998626 0.499669 0.749575 -0.173682
C41   C     C_1   0.001181 0.500267 0.250386 -0.171642
C42   C     C_3   0.094113 0.480101 0.988888 -0.218474
Cu1   Cu    Cu3+1 0.098270 0.475420 0.519690 0.956051
Cu2   Cu    Cu3+1 0.901730 0.524580 0.480310 0.928848
H1    H     H_    0.806684 0.349097 0.946113 0.141877
H2    H     H_    0.901177 0.133440 0.633878 0.168475
H3    H     H_    0.747317 0.978377 0.717220 0.163688
H4    H     H_    0.675375 0.251271 0.380323 0.160881
H5    H     H_    0.167664 0.308511 0.651878 0.120154
H6    H     H_    0.544960 0.293357 0.664176 0.151407
H7    H     H_    0.343429 0.260004 0.689405 0.136384
H8    H     H_    0.335140 0.562871 0.450072 0.127578
H9    H     H_    0.840482 0.688901 0.349730 0.126066
H10   H     H_    0.488089 0.649838 0.379460 0.140097
H11   H     H_    0.669588 0.744562 0.304800 0.148519
H12   H     H_    0.718410 0.392188 0.589138 0.204977
H13   H     H_    0.829501 0.538124 0.020552 0.149030
H14   H     H_    0.020785 0.686123 0.917295 0.141200
H15   H     H_    0.192751 0.650621 0.053813 0.148444
H16   H     H_    0.170044 0.461619 0.979412 0.143678
H17   H     H_    0.098552 0.883462 0.391021 0.168940
H18   H     H_    0.462428 0.201769 0.333416 0.144267
H19   H     H_    0.248912 0.073854 0.344216 0.152166
N1    N     N_R   0.246280 0.438200 0.549540 -0.183153
N2    N     N_R   0.754330 0.561180 0.450980 -0.206859
O1    O     O_R   0.972510 0.318130 0.524770 -0.579051
O2    O     O_R   0.806530 0.359650 0.491510 -0.604862
O3    O     O_R   0.082970 0.479240 0.637550 -0.578612
O4    O     O_R   0.916990 0.520750 0.604290 -0.591915
O5    O     O_R   0.193470 0.640350 0.508490 -0.556791
O6    O     O_R   0.027490 0.681870 0.475230 -0.588371
O7    O     O_R   0.083010 0.479250 0.395710 -0.574068
O8    O     O_R   0.917030 0.520760 0.362450 -0.587483
O9    O     O_3   0.386688 0.797176 0.580891 -0.683917
H20   H     H_    0.322900 0.749406 0.620146 0.337916
O10   O     O_3   0.517354 0.928678 0.691880 -0.714275
H21   H     H_    0.447400 0.949595 0.677650 0.312100
O11   O     O_3   0.976719 0.296003 0.091205 -0.730802
H22   H     H_    0.970690 0.248413 0.048283 0.312822

loop_
_geom_bond_atom_site_label_1
_geom_bond_atom_site_label_2
_ccdc_geom_bond_type
C12   O4    A    
C3    C42   S    
Cu1   O7    S    
C19   C20   A    
C6    H13   S    
C4    C8    S    
C11   H2    S    
C10   C22   A    
C12   O3    A    
C26   C27   A    
C30   C35   A    
C28   C29   A    
C38   C42   S    
C5    C6    S    
C27   H11   S    
C9    C22   A    
C19   H18   S    
C15   C16   A    
C11   C24   A    
Cu2   O6    S    
C18   C19   A    
C33   C35   A    
C2    C39   S    
C2    C7    S    
Cu1   O3    S    
C7    C40   T    
C36   H8    S    
C39   H1    S    
C25   C37   A    
C25   C32   A    
C16   C24   A    
C9    H19   S    
C13   C14   A    
C23   O5    A    
Cu2   N2    S    
C34   C41   S    
Cu1   N1    S    
C1    O1    A    
C10   C21   A    
O9    H20   S    
C23   O6    A    
C8    C41   T    
C4    C6    S    
C42   H16   S    
C13   H3    S    
C28   H10   S    
O11   H22   S    
C38   O11   S    
C33   H6    S    
C21   O9    S    
C17   C21   A    
C14   O10   S    
C12   C40   S    
Cu1   Cu2   S    
C25   H7    S    
C29   C30   A    
C37   H5    S    
C31   C32   A    
C14   C15   A    
C16   C20   A    
C17   C18   A    
Cu2   O4    S    
O10   H21   S    
C20   H4    S    
C5    H14   S    
C4    C38   S    
Cu1   O5    S    
C2    C5    S    
C3    C4    S    
C26   H9    S    
C34   O7    A    
C37   N1    A    
C15   C17   A    
C35   H12   S    
C31   C36   A    
C26   N2    A    
C3    C5    S    
C10   C23   S    
C32   C33   A    
C29   C31   A    
C22   H17   S    
C11   C13   A    
C38   C39   S    
C2    C42   S    
Cu1   O1    S    
C1    O2    A    
Cu2   O8    S    
C30   N2    A    
C34   O8    A    
C9    C18   A    
C1    C24   S    
C27   C28   A    
C6    C39   S    
Cu2   O2    S    
C36   N1    A    
C3    H15   S    
