data_mof_unit_61228.cif
_audit_creation_date              2012-12-10T18:24:49-0500
_audit_creation_method            fapswitch 2.2
_symmetry_space_group_name_H-M    P1
_symmetry_Int_Tables_number       1
_space_group_crystal_system       triclinic
_cell_length_a                    16.045997
_cell_length_b                    16.053177
_cell_length_c                    19.572106
_cell_angle_alpha                 95.468241
_cell_angle_beta                  90.801274
_cell_angle_gamma                 84.072543
_cell_volume                      4991.74437882

loop_
_atom_site_label
_atom_site_type_symbol
_atom_type_description
_atom_site_fract_x
_atom_site_fract_y
_atom_site_fract_z
_atom_type_partial_charge
C1    C     C_R   0.275812 0.510825 0.490962 0.505874
C2    C     C_2   0.522927 0.537520 0.980915 -0.107141
C3    C     C_2   0.468247 0.509370 0.021941 -0.103142
C4    C     C_R   0.724056 0.489182 0.509040 0.501472
C5    C     C_R   0.504741 0.492332 0.236830 0.035354
C6    C     C_1   0.186268 0.515650 0.486927 -0.002627
C7    C     C_2   0.020757 0.524954 0.479122 0.100837
C8    C     C_2   0.978944 0.478754 0.517836 -0.065560
C9    C     C_1   0.888870 0.481819 0.515248 -0.001878
C10   C     C_1   0.110984 0.519838 0.483417 -0.052450
C11   C     C_1   0.813597 0.484920 0.512631 0.023343
C12   C     C_R   0.510995 0.529656 0.906227 0.028442
C13   C     C_1   0.515613 0.185086 0.487444 0.006242
C14   C     C_2   0.520733 0.019349 0.482977 -0.102909
C15   C     C_2   0.477075 0.981211 0.526988 0.021784
C16   C     C_R   0.511736 0.274917 0.490801 0.503198
C17   C     C_1   0.481153 0.890594 0.519855 -0.045347
C18   C     C_1   0.518321 0.109623 0.485090 -0.050982
C19   C     C_1   0.484429 0.814971 0.514510 -0.002450
C20   C     C_R   0.488202 0.725061 0.509218 0.501860
C21   C     C_R   0.509298 0.490224 0.311432 0.507201
C22   C     C_R   0.490341 0.510150 0.688280 0.497691
C23   C     C_R   0.518391 0.600046 0.870988 -0.144241
C24   C     C_R   0.492829 0.518745 0.763213 0.044563
C25   C     C_R   0.485255 0.447308 0.798771 0.085515
C26   C     C_R   0.495246 0.452629 0.870200 0.153335
C27   C     C_3   0.421351 0.029229 0.582299 -0.253240
C28   C     C_3   0.333235 0.051077 0.554680 -0.427182
C29   C     C_3   0.522226 0.673648 0.764407 -0.261158
C30   C     C_3   0.441318 0.732569 0.764017 -0.412961
C31   C     C_R   0.509552 0.595849 0.799653 -0.014169
C32   C     C_R   0.532773 0.558985 0.134824 -0.109734
C33   C     C_R   0.544218 0.552122 0.204818 -0.124686
C34   C     C_R   0.454803 0.438640 0.197753 -0.121713
C35   C     C_R   0.443397 0.445489 0.127974 -0.114216
C36   C     C_R   0.482203 0.505442 0.095947 0.039050
H1    H     H_    0.404297 0.403621 0.098840 0.109164
H2    H     H_    0.517303 0.345242 0.731171 0.258079
H3    H     H_    0.413213 0.378994 0.733522 0.227542
H4    H     H_    0.992399 0.640424 0.447254 0.233209
H5    H     H_    0.999528 0.561068 0.383933 0.233568
H6    H     H_    0.335092 0.091786 0.512014 0.163213
H7    H     H_    0.304894 0.992827 0.535861 0.158420
H8    H     H_    0.293352 0.085465 0.596269 0.136241
H9    H     H_    0.417576 0.990402 0.626057 0.141195
H10   H     H_    0.447844 0.087816 0.603037 0.151040
H11   H     H_    0.451931 0.788554 0.737329 0.135705
H12   H     H_    0.012633 0.437702 0.552245 0.094530
H13   H     H_    0.390815 0.700266 0.736728 0.185224
H14   H     H_    0.420969 0.753924 0.817404 0.143255
H15   H     H_    0.571675 0.707809 0.791640 0.131144
H16   H     H_    0.545000 0.657407 0.711045 0.154926
H17   H     H_    0.435001 0.355923 0.897067 0.243103
H18   H     H_    0.539672 0.333128 0.885691 0.252064
H19   H     H_    0.559135 0.981902 0.443685 0.120754
H20   H     H_    0.582055 0.595012 0.234130 0.135035
H21   H     H_    0.423340 0.392157 0.221264 0.136823
H22   H     H_    0.413512 0.482569 0.999346 0.142055
H23   H     H_    0.531560 0.658652 0.899376 0.112999
H24   H     H_    0.561863 0.607472 0.112077 0.101725
H25   H     H_    0.577585 0.566002 0.001301 0.110393
N1    N     N_3   0.467191 0.368638 0.763348 -0.649211
N2    N     N_3   0.976925 0.579360 0.433516 -0.604851
N3    N     N_3   0.493209 0.378896 0.906011 -0.625690
O1    O     O_3   0.500000 0.500000 0.500000 -0.436177
O2    O     O_R   0.462330 0.445560 0.340470 -0.547379
O3    O     O_R   0.440930 0.559110 0.655640 -0.548737
O4    O     O_R   0.554010 0.538050 0.348260 -0.543234
O5    O     O_R   0.542730 0.457290 0.655630 -0.548552
O6    O     O_R   0.555880 0.314540 0.535300 -0.538281
O7    O     O_R   0.439840 0.689760 0.546310 -0.542947
O8    O     O_R   0.320170 0.458170 0.449830 -0.536616
O9    O     O_R   0.684110 0.537530 0.468570 -0.529563
O10   O     O_R   0.310830 0.559620 0.535340 -0.536486
O11   O     O_R   0.684890 0.444680 0.546270 -0.539879
O12   O     O_R   0.463420 0.314900 0.449800 -0.537537
O13   O     O_R   0.540870 0.680800 0.468590 -0.535224
Zn1   Zn    Zn3+2 0.569660 0.430340 0.558290 0.934197
Zn2   Zn    Zn3+2 0.437560 0.430860 0.436130 0.941699
Zn3   Zn    Zn3+2 0.568560 0.563000 0.447270 0.947002
Zn4   Zn    Zn3+2 0.424220 0.575810 0.558310 0.928089

loop_
_geom_bond_atom_site_label_1
_geom_bond_atom_site_label_2
_ccdc_geom_bond_type
O4    Zn3   S    
C7    C10   S    
O1    Zn2   S    
C21   O2    A    
O6    Zn1   S    
C14   C18   S    
C35   C36   A    
O12   Zn2   S    
C2    C12   S    
C7    C8    D    
C23   H23   S    
O2    Zn2   S    
C12   C23   A    
H4    N2    S    
C13   C18   T    
C1    O10   A    
C32   C36   A    
C35   H1    S    
O8    Zn2   S    
H17   N3    S    
C34   C35   A    
C26   N3    S    
C4    O11   A    
C15   C27   S    
C19   C20   S    
C8    C9    S    
C5    C33   A    
C34   H21   S    
C20   O7    A    
C22   O5    A    
C2    H25   S    
C27   H9    S    
C33   H20   S    
C14   H19   S    
C30   H14   S    
O1    Zn3   S    
O5    Zn1   S    
C1    O8    A    
C1    C6    S    
C30   H11   S    
C16   O6    A    
C24   C25   A    
C25   C26   A    
C28   H8    S    
C12   C26   A    
C23   C31   A    
C8    H12   S    
C29   C30   S    
O1    Zn4   S    
C5    C34   A    
C4    C11   S    
C9    C11   T    
C7    N2    S    
C4    O9    A    
C20   O13   A    
C27   H10   S    
C30   H13   S    
O3    Zn4   S    
C21   O4    A    
C22   C24   S    
H5    N2    S    
O10   Zn4   S    
C29   H15   S    
O13   Zn3   S    
C15   C17   S    
H3    N1    S    
O1    Zn1   S    
C16   O12   A    
C6    C10   T    
C28   H7    S    
C32   C33   A    
C2    C3    D    
C24   C31   A    
C29   C31   S    
H18   N3    S    
C3    C36   S    
C28   H6    S    
C17   C19   T    
O9    Zn3   S    
C25   N1    S    
O11   Zn1   S    
C22   O3    A    
C3    H22   S    
C5    C21   S    
C13   C16   S    
C27   C28   S    
C32   H24   S    
C14   C15   D    
O7    Zn4   S    
H2    N1    S    
C29   H16   S    
