data_mof_unit_38344.cif
_audit_creation_date              2013-03-05T15:49:57-0500
_audit_creation_method            fapswitch 2.2
_symmetry_space_group_name_H-M    P1
_symmetry_Int_Tables_number       1
_space_group_crystal_system       triclinic
_cell_length_a                    6.943727
_cell_length_b                    19.901615
_cell_length_c                    23.795454
_cell_angle_alpha                 93.612752
_cell_angle_beta                  91.343842
_cell_angle_gamma                 88.458554
_cell_volume                      3279.82403652

loop_
_atom_site_label
_atom_site_type_symbol
_atom_site_description
_atom_site_fract_x
_atom_site_fract_y
_atom_site_fract_z
_atom_type_partial_charge
O1    O     O_R   0.620100 0.812200 0.810870 -0.598496
O2    O     O_R   0.379900 0.187800 0.189130 -0.598495
O3    O     O_R   0.296960 0.671650 0.794750 -0.591517
O4    O     O_R   0.703040 0.328350 0.205250 -0.591516
O5    O     O_R   0.120160 0.687800 0.689130 -0.599237
O6    O     O_R   0.879840 0.312200 0.310870 -0.599233
C1    C     C_R   0.468950 0.646998 0.804583 0.922872
C2    C     C_R   0.531049 0.353002 0.195417 0.922873
O7    O     O_R   0.290810 0.810670 0.817290 -0.601476
O8    O     O_R   0.709190 0.189330 0.182710 -0.601475
O9    O     O_R   0.113980 0.827820 0.711840 -0.588639
O10   O     O_R   0.886020 0.172180 0.288160 -0.588640
C3    C     C_R   0.459450 0.831787 0.834307 0.946721
C4    C     C_R   0.540549 0.168213 0.165693 0.946721
O11   O     O_R   0.626290 0.672180 0.788160 -0.592457
O12   O     O_R   0.373710 0.327820 0.211840 -0.592455
O13   O     O_3   0.451520 0.755460 0.715370 -0.264712
O14   O     O_3   0.548480 0.244540 0.284630 -0.264716
V1    V     V_3+5 0.179200 0.748980 0.756420 1.161384
V2    V     V_3+5 0.820800 0.251020 0.243580 1.161381
O15   O     O_R   0.783880 0.828350 0.705250 -0.586024
O16   O     O_R   0.216120 0.171650 0.294750 -0.586024
C5    C     C_R   0.949617 0.852651 0.694786 0.933764
C6    C     C_R   0.050382 0.147349 0.305214 0.933763
O17   O     O_R   0.790030 0.689320 0.682700 -0.589402
O18   O     O_R   0.209970 0.310680 0.317300 -0.589412
C7    C     C_R   0.959007 0.668270 0.665648 0.950341
C8    C     C_R   0.040993 0.331730 0.334352 0.950344
V3    V     V_3+5 0.678400 0.751010 0.743570 1.174057
V4    V     V_3+5 0.321600 0.248990 0.256430 1.174047
O19   O     O_3   0.955950 0.744540 0.784620 -0.277182
O20   O     O_3   0.044050 0.255460 0.215380 -0.277180
C9    C     C_R   0.176344 0.427397 0.395006 -0.149465
C10   C     C_R   0.823670 0.572595 0.604998 -0.149385
C11   C     C_R   0.031045 0.380382 0.384172 -0.172871
C12   C     C_R   0.968961 0.619616 0.615829 -0.172894
C13   C     C_R   0.873947 0.380769 0.420433 -0.162016
C14   C     C_R   0.126074 0.619221 0.579576 -0.161996
C15   C     C_R   0.862721 0.426320 0.468289 -0.005850
C16   C     C_R   0.137314 0.573665 0.531722 -0.005897
C17   C     C_R   0.006218 0.475543 0.477162 0.041536
C18   C     C_R   0.993813 0.524446 0.522846 0.041504
C19   C     C_R   0.162872 0.475760 0.440415 0.174732
C20   C     C_R   0.837159 0.524226 0.559594 0.174819
C21   C     C_R   0.710198 0.425024 0.506891 0.331922
C22   C     C_R   0.289856 0.574945 0.493131 0.332047
C23   C     C_R   0.697154 0.475013 0.551121 -0.326394
C24   C     C_R   0.302896 0.524959 0.448899 -0.326442
H1    H     H_    0.297061 0.427728 0.366914 0.113781
H2    H     H_    0.702950 0.572263 0.633090 0.113758
H3    H     H_    0.760726 0.345364 0.410675 0.176242
H4    H     H_    0.239299 0.654622 0.589338 0.176290
H5    H     H_    0.579728 0.474156 0.580291 0.170160
H6    H     H_    0.420332 0.525805 0.419737 0.170175
C25   C     C_R   0.947237 0.914130 0.663119 -0.107075
C26   C     C_R   0.052764 0.085869 0.336881 -0.107080
C27   C     C_R   0.861255 0.032308 0.659331 -0.162608
C28   C     C_R   0.138761 0.967694 0.340670 -0.162623
C29   C     C_R   0.879861 0.974633 0.689355 -0.163215
C30   C     C_R   0.120156 0.025370 0.310647 -0.163213
C31   C     C_R   0.995469 0.911602 0.605856 -0.225414
C32   C     C_R   0.004517 0.088394 0.394141 -0.225420
C33   C     C_R   0.973921 0.969678 0.573728 0.110281
C34   C     C_R   0.026069 0.030320 0.426271 0.110286
C35   C     C_R   0.905943 0.030337 0.602017 0.166757
C36   C     C_R   0.094059 0.969662 0.397982 0.166775
C37   C     C_R   0.014244 0.969680 0.514680 0.049071
C38   C     C_R   0.985744 0.030317 0.485317 0.049054
C39   C     C_R   0.918577 0.088912 0.516026 -0.166224
C40   C     C_R   0.081414 0.911086 0.483973 -0.166238
C41   C     C_R   0.880182 0.088739 0.572999 -0.210844
C42   C     C_R   0.119817 0.911260 0.427001 -0.210873
H7    H     H_    0.828163 0.135073 0.594601 0.153012
H8    H     H_    0.171843 0.864928 0.405399 0.152996
H9    H     H_    0.956214 0.136642 0.412401 0.117777
H10   H     H_    0.043757 0.863352 0.587595 0.117770
H11   H     H_    0.159966 0.022954 0.266788 0.110281
H12   H     H_    0.840064 0.977051 0.733215 0.110279
H13   H     H_    0.808559 0.078564 0.680866 0.122655
H14   H     H_    0.191468 0.921441 0.319136 0.122654
H15   H     H_    0.893218 0.136225 0.497217 0.157207
H16   H     H_    0.106774 0.863774 0.502782 0.157189
C43   C     C_R   0.490766 0.585338 0.835602 -0.105749
C44   C     C_R   0.509235 0.414661 0.164397 -0.105746
C45   C     C_R   0.609462 0.470469 0.837608 -0.158659
C46   C     C_R   0.390549 0.529532 0.162392 -0.158660
C47   C     C_R   0.568069 0.527342 0.808153 -0.164942
C48   C     C_R   0.431943 0.472659 0.191848 -0.164945
C49   C     C_R   0.455000 0.586204 0.893425 -0.218994
C50   C     C_R   0.544991 0.413795 0.106573 -0.218992
C51   C     C_R   0.500368 0.529184 0.925358 0.085946
C52   C     C_R   0.499627 0.470815 0.074641 0.085946
C53   C     C_R   0.579295 0.470425 0.896116 0.117259
C54   C     C_R   0.420708 0.529575 0.103884 0.117260
C55   C     C_R   0.473592 0.529156 0.985171 0.006031
C56   C     C_R   0.526402 0.470843 0.014828 0.006031
C57   C     C_R   0.603830 0.414120 0.983807 -0.216486
C58   C     C_R   0.396167 0.585878 0.016192 -0.216488
C59   C     C_R   0.629713 0.413040 0.925741 0.256630
C60   C     C_R   0.370288 0.586959 0.074259 0.256634
H17   H     H_    0.601190 0.366872 0.087955 0.100839
H18   H     H_    0.398789 0.633124 0.912043 0.100842
H19   H     H_    0.401360 0.473665 0.236361 0.110711
H20   H     H_    0.598659 0.526337 0.763640 0.110711
H21   H     H_    0.669256 0.426992 0.813923 0.141509
H22   H     H_    0.330763 0.573010 0.186077 0.141507
H23   H     H_    0.647429 0.369085 0.003785 0.137651
H24   H     H_    0.352570 0.630914 0.996214 0.137651
C61   C     C_R   0.685756 0.074320 0.103629 -0.253881
C62   C     C_R   0.314243 0.925680 0.896370 -0.253881
C63   C     C_R   0.530133 0.119154 0.116098 -0.143847
C64   C     C_R   0.469867 0.880846 0.883902 -0.143846
C65   C     C_R   0.362750 0.116077 0.081550 -0.257447
C66   C     C_R   0.637249 0.883923 0.918451 -0.257448
C67   C     C_R   0.350757 0.069414 0.034844 0.150404
C68   C     C_R   0.649243 0.930586 0.965156 0.150404
C69   C     C_R   0.506168 0.023932 0.023201 0.028180
C70   C     C_R   0.493831 0.976068 0.976799 0.028180
C71   C     C_R   0.673769 0.026162 0.057931 0.149264
C72   C     C_R   0.326230 0.973838 0.942069 0.149264
C73   C     C_R   0.185975 0.067365 0.999542 -0.217354
C74   C     C_R   0.814024 0.932635 0.000458 -0.217354
C75   C     C_R   0.173984 0.020102 0.953532 -0.207218
C76   C     C_R   0.826016 0.979898 0.046468 -0.207219
H25   H     H_    0.814710 0.075981 0.130203 0.135406
H26   H     H_    0.185290 0.924018 0.869797 0.135406
H27   H     H_    0.242434 0.150572 0.090651 0.140883
H28   H     H_    0.757565 0.849428 0.909349 0.140883
H29   H     H_    0.065502 0.102031 0.007751 0.142231
H30   H     H_    0.934498 0.897968 0.992249 0.142230
H31   H     H_    0.044709 0.019411 0.927137 0.142493
H32   H     H_    0.955290 0.980589 0.072863 0.142493
C77   C     C_3   0.714000 0.349632 0.896410 -1.015898
H33   H     H_    0.744478 0.309347 0.925873 0.252287
H34   H     H_    0.610950 0.329455 0.863589 0.252246
H35   H     H_    0.852053 0.360874 0.876770 0.253788
C78   C     C_3   0.286005 0.650368 0.103590 -1.015905
H36   H     H_    0.255522 0.690653 0.074127 0.252288
H37   H     H_    0.147955 0.639126 0.123232 0.253787
H38   H     H_    0.389060 0.670546 0.136409 0.252244
N1    N     N_R   0.573266 0.371786 0.503840 0.233421
O21   O     O_R   0.397408 0.384161 0.519991 -0.408963
O22   O     O_R   0.633119 0.309313 0.497063 -0.411168
N2    N     N_R   0.426798 0.628166 0.496198 0.233420
O23   O     O_R   0.602628 0.615777 0.480061 -0.409025
O24   O     O_R   0.366987 0.690638 0.502987 -0.411203

loop_
_geom_bond_atom_site_label_1
_geom_bond_atom_site_label_2
_geom_bond_distance
_ccdc_geom_bond_type
C43   C47   1.391084 A    
C33   C35   1.419568 A    
C67   C73   1.403426 A    
C25   C29   1.395393 A    
C49   H18   1.075617 S    
O13   V3    1.700113 S    
C17   C18   1.415232 A    
C27   H13   1.084034 S    
C1    C43   1.473936 S    
C55   C56   1.430883 A    
O4    C2    1.300591 A    
V1    O19   1.710205 S    
C70   C72   1.411496 A    
C64   C66   1.408227 A    
C55   C58   1.410395 A    
C15   C17   1.419030 A    
C71   C76   1.403284 A    
C24   H6    1.084217 S    
C78   H37   1.110457 S    
C76   H32   1.083313 S    
C18   C20   1.411831 A    
C34   C38   1.439104 A    
C11   C13   1.406179 A    
C3    C64   1.485196 S    
O3    C1    1.300591 A    
C69   C71   1.411498 A    
C13   H3    1.081245 S    
C46   C48   1.388526 A    
C27   C29   1.391272 A    
C14   H4    1.081225 S    
C28   C30   1.391271 A    
C52   C56   1.439733 A    
C58   H24   1.073917 S    
C59   C77   1.513453 S    
C31   C33   1.428084 A    
C39   C41   1.388013 A    
O7    C3    1.301768 A    
C32   C34   1.428077 A    
C46   C54   1.412798 A    
C9    C11   1.402876 A    
O5    C7    1.296977 A    
C45   C53   1.412798 A    
C28   C36   1.403660 A    
C36   C42   1.394228 A    
C8    C11   1.484348 S    
O8    V2    1.995071 S    
C38   C39   1.410909 A    
C67   C69   1.410844 A    
C77   H35   1.110457 S    
O3    V1    1.985757 S    
O14   V4    1.700113 S    
C49   C51   1.429175 A    
C19   C24   1.400679 A    
C53   C59   1.411438 A    
O14   V2    2.159160 S    
C20   C23   1.400767 A    
C28   H14   1.084009 S    
C15   C21   1.419906 A    
C26   C32   1.408245 A    
C73   H29   1.083315 S    
C21   C23   1.404740 A    
C2    O12   1.292929 A    
C21   N1    1.439865 S    
C17   C19   1.411804 A    
C46   H22   1.081156 S    
C44   C50   1.402839 A    
C45   H21   1.081154 S    
C29   H12   1.083719 S    
O1    V3    1.992380 S    
C57   C59   1.396283 A    
O7    V1    1.995069 S    
O11   V3    1.994076 S    
C22   C24   1.404745 A    
C45   C47   1.388528 A    
C31   H10   1.077163 S    
O17   V3    1.995859 S    
C4    C63   1.485197 S    
C43   C49   1.402838 A    
C78   H38   1.110376 S    
C33   C37   1.439106 A    
C30   H11   1.083706 S    
C10   H2    1.084752 S    
C37   C38   1.438961 A    
C9    C19   1.404109 A    
C10   C20   1.404104 A    
C42   H8    1.084443 S    
O8    C4    1.301768 A    
C62   C72   1.405951 A    
C41   H7    1.084459 S    
N2    O23   1.301050 A    
C22   N2    1.439638 S    
C1    O11   1.292929 A    
C35   C41   1.394227 A    
O15   V3    2.001465 S    
C26   C30   1.395356 A    
N1    O22   1.301784 A    
O4    V2    1.985755 S    
C16   C22   1.419812 A    
C50   H17   1.075618 S    
V4    O20   2.144562 S    
C51   C53   1.425799 A    
C66   H28   1.083994 S    
C50   C52   1.429174 A    
C54   C60   1.411436 A    
O9    V1    1.985269 S    
C56   C57   1.410395 A    
O10   V2    1.985270 S    
C52   C54   1.425803 A    
C63   C65   1.408227 A    
C68   C74   1.403426 A    
C62   H26   1.084031 S    
O5    V1    1.991175 S    
N2    O24   1.301690 A    
O18   V4    1.995858 S    
C58   C60   1.396285 A    
O15   C5    1.295715 A    
C77   H33   1.110786 S    
O16   C6    1.295717 A    
C32   H9    1.077133 S    
C6    C26   1.476370 S    
O12   V4    1.994076 S    
C74   C76   1.400171 A    
C12   C14   1.406148 A    
C48   H19   1.084015 S    
C61   C71   1.405950 A    
V2    O20   1.710205 S    
C40   H16   1.076296 S    
C61   H25   1.084031 S    
O16   V4    2.001463 S    
C75   H31   1.083312 S    
C2    C44   1.473936 S    
C44   C48   1.391085 A    
C27   C35   1.403673 A    
C16   C18   1.418995 A    
C66   C68   1.405096 A    
C72   C75   1.403285 A    
C5    C25   1.476368 S    
C65   H27   1.083996 S    
C7    C12   1.484350 S    
O17   C7    1.300501 A    
O6    V2    1.991174 S    
C78   H36   1.110785 S    
O10   C6    1.297934 A    
O18   C8    1.300498 A    
C23   H5    1.084310 S    
O2    V4    1.992379 S    
C37   C40   1.410900 A    
C61   C63   1.407726 A    
V3    O19   2.144563 S    
C69   C70   1.414679 A    
C14   C16   1.412431 A    
C25   C31   1.408255 A    
O9    C5    1.297934 A    
O13   V1    2.159159 S    
C68   C70   1.410844 A    
C10   C12   1.402901 A    
O2    C4    1.298350 A    
C62   C64   1.407726 A    
C73   C75   1.400170 A    
C39   H15   1.076301 S    
C60   C78   1.513452 S    
C51   C55   1.439732 A    
C47   H20   1.084014 S    
C57   H23   1.073918 S    
O6    C8    1.296980 A    
O1    C3    1.298349 A    
C13   C15   1.412421 A    
C77   H34   1.110375 S    
C40   C42   1.388008 A    
N1    O21   1.301298 A    
C9    H1    1.084728 S    
C74   H30   1.083315 S    
C34   C36   1.419546 A    
C65   C67   1.405095 A    
