data_mof_unit_14562.cif
_audit_creation_date              2012-12-10T17:45:27-0500
_audit_creation_method            fapswitch 2.2
_symmetry_space_group_name_H-M    P1
_symmetry_Int_Tables_number       1
_space_group_crystal_system       triclinic
_cell_length_a                    11.537805
_cell_length_b                    10.632677
_cell_length_c                    9.937519
_cell_angle_alpha                 90.016812
_cell_angle_beta                  89.952256
_cell_angle_gamma                 91.693668
_cell_volume                      1218.5794521

loop_
_atom_site_label
_atom_site_type_symbol
_atom_type_description
_atom_site_fract_x
_atom_site_fract_y
_atom_site_fract_z
_atom_type_partial_charge
C1    C     C_R   0.502881 0.260756 0.499986 0.849115
C2    C     C_R   0.511481 0.872084 0.499803 -0.075999
C3    C     C_R   0.348498 0.334525 0.139829 -0.147545
C4    C     C_R   0.282088 0.499561 0.500061 0.889048
C5    C     C_R   0.273940 0.252887 0.069812 -0.197726
C6    C     C_R   0.273825 0.252959 0.930527 -0.181644
C7    C     C_R   0.348387 0.334556 0.860354 -0.144096
C8    C     C_R   0.425425 0.418425 0.927810 0.161917
C9    C     C_R   0.425453 0.418451 0.072255 0.168394
C10   C     C_R   0.571441 0.577960 0.071350 -0.108830
C11   C     C_R   0.571440 0.577912 0.928407 -0.115308
C12   C     C_R   0.785604 0.075325 0.693871 0.601152
C13   C     C_R   0.503581 0.739427 0.500003 0.866196
C14   C     C_R   0.717910 0.500289 0.499968 0.877459
C15   C     C_1   0.161550 0.499012 0.500221 -0.185650
C16   C     C_1   0.059314 0.498818 0.500288 0.008939
C17   C     C_1   0.940603 0.499104 0.500175 0.004856
C18   C     C_1   0.838397 0.499658 0.499989 -0.202007
C19   C     C_R   0.695790 0.137730 0.627455 -0.309010
C20   C     C_3   0.848264 0.246699 0.822695 -0.306714
C21   C     C_R   0.785172 0.944166 0.690790 -0.202861
C22   C     C_R   0.695580 0.875742 0.628070 -0.292114
C23   C     C_R   0.602922 0.937639 0.566221 0.099705
C24   C     C_R   0.603001 0.069339 0.565922 0.040107
C25   C     C_R   0.511339 0.128694 0.499501 -0.053950
C26   C     C_R   0.424953 0.061723 0.430249 -0.215171
C27   C     C_R   0.425051 0.933255 0.430369 -0.201177
H1    H     H_    0.355930 0.109176 0.378594 0.139388
H2    H     H_    0.343060 0.329180 0.246543 0.197371
H3    H     H_    0.215734 0.189306 0.124166 0.152059
H4    H     H_    0.766009 0.232165 0.880263 0.162683
H5    H     H_    0.842255 0.327495 0.752535 0.180060
H6    H     H_    0.917304 0.271335 0.896572 0.195640
H7    H     H_    0.215459 0.189491 0.876314 0.167989
H8    H     H_    0.342897 0.329215 0.753625 0.203755
H9    H     H_    0.629827 0.641728 0.874801 0.147811
H10   H     H_    0.700583 0.238967 0.620812 0.159146
H11   H     H_    0.855449 0.894575 0.737050 0.161909
H12   H     H_    0.701081 0.774421 0.626691 0.168529
H13   H     H_    0.356157 0.881140 0.378722 0.155736
H14   H     H_    0.629842 0.641798 0.124794 0.150663
N1    N     N_R   0.498930 0.498800 0.142780 -0.120648
N2    N     N_R   0.498900 0.498720 0.857170 -0.120748
O1    O     O_R   0.500000 0.316780 0.614690 -0.641244
O2    O     O_R   0.499990 0.316750 0.385360 -0.630971
O3    O     O_R   0.334450 0.500030 0.614670 -0.623147
O4    O     O_R   0.334440 0.500000 0.385330 -0.629400
O5    O     O_R   0.500010 0.683250 0.614640 -0.611114
O6    O     O_R   0.500000 0.683220 0.385310 -0.611581
O7    O     O_R   0.665560 0.500000 0.614670 -0.632253
O8    O     O_R   0.665550 0.499970 0.385330 -0.600936
O9    O     O_3   0.880511 0.137525 0.752662 -0.618437
Zn1   Zn    Zn3+2 0.500010 0.500020 0.653130 0.928887
Zn2   Zn    Zn3+2 0.499990 0.499980 0.346870 0.941769

loop_
_geom_bond_atom_site_label_1
_geom_bond_atom_site_label_2
_ccdc_geom_bond_type
C13   O5    A    
C23   C24   A    
C11   N2    A    
C2    C27   A    
C3    C9    A    
C10   N1    A    
C14   C18   S    
C1    O1    A    
C26   H1    S    
C14   O8    A    
C8    N2    A    
C27   H13   S    
O8    Zn2   S    
C4    C15   S    
C19   C24   A    
C26   C27   A    
C7    C8    A    
C20   O9    S    
C4    O3    A    
C21   C22   A    
N1    Zn2   S    
C10   H14   S    
C1    C25   S    
C5    C6    A    
C1    O2    A    
C9    N1    A    
C6    C7    A    
O4    Zn2   S    
C13   O6    A    
C22   H12   S    
O1    Zn1   S    
O3    Zn1   S    
C11   H9    S    
C12   O9    S    
O2    Zn2   S    
C17   C18   T    
O5    Zn1   S    
C20   H4    S    
O7    Zn1   S    
C10   C11   A    
C14   O7    A    
O6    Zn2   S    
C6    H7    S    
C24   C25   A    
C12   C19   A    
C20   H6    S    
C5    H3    S    
C20   H5    S    
C2    C23   A    
C3    H2    S    
C2    C13   S    
C22   C23   A    
C16   C17   S    
C19   H10   S    
C25   C26   A    
C7    H8    S    
C12   C21   A    
N2    Zn1   S    
C21   H11   S    
C15   C16   T    
C8    C9    A    
C3    C5    A    
C4    O4    A    
