data_mof_unit_5106.cif
_audit_creation_date              2012-12-10T20:49:42-0500
_audit_creation_method            fapswitch 2.2
_symmetry_space_group_name_H-M    P1
_symmetry_Int_Tables_number       1
_space_group_crystal_system       triclinic
_cell_length_a                    8.107547
_cell_length_b                    8.933645
_cell_length_c                    16.497876
_cell_angle_alpha                 89.997088
_cell_angle_beta                  85.428622
_cell_angle_gamma                 90.000234
_cell_volume                      1191.13895474

loop_
_atom_site_label
_atom_site_type_symbol
_atom_type_description
_atom_site_fract_x
_atom_site_fract_y
_atom_site_fract_z
_atom_type_partial_charge
C1    C     C_R   0.500000 0.782025 0.499999 0.930680
C2    C     C_R   0.500000 0.217970 0.500000 0.942042
C3    C     C_1   0.500000 0.934800 0.499999 -0.175155
C4    C     C_1   0.500000 0.065171 0.500000 -0.177111
C5    C     C_R   0.477620 0.504692 0.654236 0.859949
C6    C     C_R   0.522384 0.504650 0.345764 0.859911
C7    C     C_R   0.464228 0.555034 0.738098 -0.048463
C8    C     C_R   0.535816 0.554903 0.261885 -0.048380
C9    C     C_R   0.565954 0.673090 0.759449 -0.241833
C10   C     C_R   0.434508 0.673247 0.240529 -0.241752
C11   C     C_R   0.545743 0.737505 0.836721 -0.009037
C12   C     C_R   0.454883 0.737563 0.163231 -0.008845
C13   C     C_R   0.428144 0.673799 0.894742 0.092921
C14   C     C_R   0.572145 0.673445 0.105197 0.092829
C15   C     C_R   0.321363 0.560642 0.871589 -0.156740
C16   C     C_R   0.678472 0.559934 0.128347 -0.156925
C17   C     C_R   0.337927 0.502678 0.793209 -0.166811
C18   C     C_R   0.661818 0.502127 0.206750 -0.166912
C19   C     C_2   0.428814 0.703465 0.982043 -0.108793
C20   C     C_2   0.571597 0.703159 0.017901 -0.108838
H1    H     H_    0.229606 0.512467 0.915375 0.141821
H2    H     H_    0.769968 0.511422 0.084549 0.141887
H3    H     H_    0.655761 0.719915 0.714171 0.186098
H4    H     H_    0.344956 0.720362 0.285825 0.185964
H5    H     H_    0.744312 0.414205 0.223828 0.155065
H6    H     H_    0.255114 0.414989 0.776138 0.155075
H7    H     H_    0.688312 0.692317 0.981114 0.136665
H8    H     H_    0.312046 0.693059 0.018825 0.136711
N1    N     N_1   0.926360 0.500000 0.499990 -0.022924
N2    N     N_1   0.073640 0.500000 0.500010 -0.022916
O1    O     O_R   0.363150 0.714660 0.500000 -0.611912
O2    O     O_R   0.636850 0.285340 0.500000 -0.609109
O3    O     O_R   0.636850 0.714660 0.500000 -0.611933
O4    O     O_R   0.363150 0.285340 0.500000 -0.609092
O5    O     O_R   0.346950 0.500000 0.615800 -0.608758
O6    O     O_R   0.653050 0.500000 0.384200 -0.608739
O7    O     O_R   0.620700 0.500000 0.615800 -0.612392
O8    O     O_R   0.379300 0.500000 0.384200 -0.612316
Zn1   Zn    Zn3+2 0.317220 0.500000 0.500010 1.006148
Zn2   Zn    Zn3+2 0.682780 0.500000 0.499990 1.006104
C21   C     C_2   0.358361 0.874064 0.146175 0.886857
O9    O     O_2   0.225966 0.898697 0.184751 -0.628924
O10   O     O_R   0.420755 0.976881 0.087594 -0.753272
H9    H     H_    0.344109 0.065243 0.081894 0.353232
C22   C     C_2   0.642883 0.873687 0.853772 0.886863
O11   O     O_2   0.775424 0.897867 0.815214 -0.628933
O12   O     O_R   0.580940 0.976675 0.912355 -0.753199
H10   H     H_    0.657987 0.064781 0.918051 0.353187

loop_
_geom_bond_atom_site_label_1
_geom_bond_atom_site_label_2
_ccdc_geom_bond_type
C2    C4    S    
O10   H9    S    
C6    O8    A    
C15   C17   A    
N1    N2    T    
C20   H7    S    
C5    O7    A    
C11   C13   A    
C21   O9    D    
C21   O10   S    
O5    Zn1   S    
C19   C20   D    
O1    Zn1   S    
C1    O1    A    
C16   H2    S    
C2    O4    A    
C13   C15   A    
C1    O3    A    
C22   O11   D    
C19   H8    S    
C9    C11   A    
C12   C21   S    
C18   H5    S    
C10   C12   A    
C17   H6    S    
C5    O5    A    
N1    Zn2   S    
C16   C18   A    
C6    O6    A    
N2    Zn1   S    
O7    Zn2   S    
C5    C7    S    
O2    Zn2   S    
O8    Zn1   S    
C14   C16   A    
C15   H1    S    
C11   C22   S    
O3    Zn2   S    
C13   C19   S    
C3    C4    T    
O12   H10   S    
C14   C20   S    
O6    Zn2   S    
C2    O2    A    
C22   O12   S    
C7    C9    A    
C9    H3    S    
C6    C8    S    
C10   H4    S    
C8    C10   A    
C8    C18   A    
O4    Zn1   S    
C12   C14   A    
C1    C3    S    
C7    C17   A    
