data_mof_unit_53593.cif
_audit_creation_date              2012-12-10T21:36:35-0500
_audit_creation_method            fapswitch 2.2
_symmetry_space_group_name_H-M    P1
_symmetry_Int_Tables_number       1
_space_group_crystal_system       triclinic
_cell_length_a                    10.5312
_cell_length_b                    16.254835
_cell_length_c                    16.76514
_cell_angle_alpha                 85.958035
_cell_angle_beta                  91.484967
_cell_angle_gamma                 92.724405
_cell_volume                      2858.79817431

loop_
_atom_site_label
_atom_site_type_symbol
_atom_type_description
_atom_site_fract_x
_atom_site_fract_y
_atom_site_fract_z
_atom_type_partial_charge
C1    C     C_R   0.500499 0.487806 0.652642 0.931339
C2    C     C_R   0.503657 0.512249 0.347077 0.925584
C3    C     C_R   0.508215 0.464588 0.904414 0.084811
C4    C     C_R   0.551955 0.527457 0.096438 0.082959
C5    C     C_R   0.595368 0.421861 0.863191 0.357818
C6    C     C_R   0.504115 0.595269 0.131283 0.375825
C7    C     C_R   0.590153 0.426391 0.779677 -0.028757
C8    C     C_R   0.484135 0.590874 0.213713 -0.024013
C9    C     C_R   0.416196 0.761078 0.477712 0.032710
C10   C     C_R   0.571148 0.235107 0.532253 -0.004858
C11   C     C_R   0.414226 0.847680 0.484669 0.302536
C12   C     C_R   0.558360 0.148300 0.536623 0.363812
C13   C     C_R   0.524902 0.890929 0.512402 0.126281
C14   C     C_R   0.461429 0.108506 0.491639 0.102223
C15   C     C_R   0.627610 0.844240 0.541050 -0.159903
C16   C     C_R   0.373738 0.158187 0.448660 -0.162599
C17   C     C_R   0.616109 0.756707 0.546190 0.469366
C18   C     C_R   0.389147 0.246043 0.446293 0.495050
C19   C     C_R   0.742196 0.500300 0.500761 0.884702
C20   C     C_R   0.257900 0.499670 0.499073 0.889551
C21   C     C_3   0.956377 0.450704 0.564185 -0.370914
C22   C     C_3   0.043974 0.548840 0.435460 -0.352863
C23   C     C_3   0.048516 0.527384 0.566902 0.121049
C24   C     C_3   0.951810 0.472180 0.432792 0.105255
C25   C     C_3   0.123740 0.498429 0.498334 -0.045514
C26   C     C_3   0.876509 0.501292 0.501343 -0.049675
C27   C     C_3   0.031947 0.422717 0.494084 0.156573
C28   C     C_3   0.968584 0.576932 0.505567 0.163218
C29   C     C_R   0.502746 0.477656 0.738794 -0.136923
C30   C     C_R   0.522508 0.521298 0.261254 -0.154764
C31   C     C_R   0.419343 0.522385 0.780218 -0.444821
C32   C     C_R   0.582406 0.458025 0.226889 -0.426349
C33   C     C_R   0.417668 0.513769 0.863621 0.451890
C34   C     C_R   0.593230 0.458406 0.144323 0.436117
H1    H     H_    0.918921 0.411510 0.616025 0.152557
H2    H     H_    0.081500 0.588022 0.383628 0.151652
H3    H     H_    0.619410 0.407349 0.264477 0.184186
H4    H     H_    0.356365 0.563919 0.747288 0.173294
N1    N     N_2   0.515127 0.460207 0.987873 -0.089204
N2    N     N_2   0.548193 0.528492 0.012505 -0.123147
N3    N     N_R   0.515540 0.716920 0.509720 -0.155276
N4    N     N_R   0.484460 0.283080 0.490280 -0.169081
N5    N     N_2   0.538889 0.979577 0.513661 -0.064740
N6    N     N_2   0.445582 0.020047 0.489264 -0.070663
O1    O     O_R   0.494440 0.422540 0.612660 -0.625810
O2    O     O_R   0.505560 0.577460 0.387340 -0.609688
O3    O     O_R   0.504420 0.561850 0.618900 -0.616557
O4    O     O_R   0.495580 0.438150 0.381100 -0.609578
O5    O     O_R   0.681060 0.430360 0.496900 -0.643964
O6    O     O_R   0.318940 0.569640 0.503100 -0.598542
O7    O     O_R   0.691040 0.569670 0.503140 -0.568805
O8    O     O_R   0.308960 0.430330 0.496860 -0.572226
Zn1   Zn    Zn3+2 0.493340 0.406980 0.495830 0.956247
Zn2   Zn    Zn3+2 0.506660 0.593020 0.504170 0.974673
N7    N     N_3   0.106498 0.558803 0.639177 -0.460605
H5    H     H_    0.033310 0.565721 0.678624 0.176597
H6    H     H_    0.162332 0.512532 0.665815 0.156289
N8    N     N_3   0.894174 0.440211 0.360671 -0.452722
H7    H     H_    0.968035 0.429585 0.322862 0.192877
H8    H     H_    0.842216 0.487321 0.331923 0.173357
N9    N     N_3   0.745252 0.886425 0.561725 -0.396377
H9    H     H_    0.766711 0.873473 0.622176 0.180967
H10   H     H_    0.816998 0.863842 0.528518 0.208116
N10   N     N_3   0.266772 0.118220 0.410203 -0.418125
H11   H     H_    0.187091 0.154031 0.411597 0.217197
H12   H     H_    0.289152 0.111166 0.350836 0.189942
O9    O     O_3   0.710201 0.711118 0.583936 -0.574661
C35   C     C_3   0.687462 0.702639 0.667020 0.155288
H13   H     H_    0.586430 0.684836 0.680256 0.149758
H14   H     H_    0.711493 0.761165 0.695361 0.099237
C36   C     C_3   0.771162 0.636855 0.706318 -0.809901
H15   H     H_    0.872474 0.658397 0.702039 0.240442
H16   H     H_    0.747433 0.625168 0.770410 0.189755
H17   H     H_    0.756616 0.578317 0.676237 0.260032
O10   O     O_3   0.302027 0.294954 0.405022 -0.567054
C37   C     C_3   0.326624 0.298857 0.322278 0.129677
H18   H     H_    0.298916 0.239744 0.296137 0.105362
H19   H     H_    0.428851 0.313600 0.309964 0.133290
C38   C     C_3   0.247557 0.365198 0.279461 -0.789967
H20   H     H_    0.264555 0.424903 0.307119 0.256671
H21   H     H_    0.273191 0.373391 0.215457 0.194338
H22   H     H_    0.145013 0.346564 0.283464 0.241121
N11   N     N_3   0.068235 0.338547 0.485421 -0.379721
H23   H     H_    0.984461 0.301907 0.480946 0.182185
H24   H     H_    0.114208 0.318260 0.538689 0.194185
N12   N     N_3   0.933885 0.661458 0.513751 -0.375667
H25   H     H_    0.018283 0.697540 0.518000 0.180417
H26   H     H_    0.888250 0.681770 0.460371 0.193870
O11   O     O_3   0.648347 0.394148 0.109274 -0.588256
C39   C     C_3   0.588920 0.317151 0.135066 0.108059
H27   H     H_    0.484409 0.321238 0.142592 0.124041
H28   H     H_    0.633208 0.293412 0.192517 0.131912
C40   C     C_3   0.607498 0.254905 0.073301 -0.761518
H29   H     H_    0.710377 0.247600 0.064788 0.254604
H30   H     H_    0.563032 0.194091 0.094020 0.183641
H31   H     H_    0.561978 0.275816 0.015418 0.283167
O12   O     O_3   0.338615 0.558696 0.907477 -0.563278
C41   C     C_3   0.210560 0.549398 0.880939 0.106064
H32   H     H_    0.183272 0.483958 0.869831 0.123496
H33   H     H_    0.193700 0.589599 0.825637 0.137774
C42   C     C_3   0.124884 0.576303 0.945020 -0.807788
H34   H     H_    0.148654 0.641680 0.956924 0.268307
H35   H     H_    0.023876 0.570495 0.924621 0.183705
H36   H     H_    0.137866 0.536893 0.001235 0.258182
O13   O     O_3   0.684806 0.374522 0.904272 -0.598849
C43   C     C_3   0.792910 0.425642 0.921875 0.151275
H37   H     H_    0.773792 0.463494 0.972528 0.185120
H38   H     H_    0.822530 0.467799 0.869580 0.095404
C44   C     C_3   0.903588 0.371710 0.945909 -0.828389
H39   H     H_    0.924835 0.333107 0.896250 0.244048
H40   H     H_    0.989341 0.410962 0.959597 0.204893
H41   H     H_    0.879927 0.331016 0.999901 0.269280
O14   O     O_3   0.459391 0.660978 0.083463 -0.575449
C45   C     C_3   0.563135 0.715700 0.062432 0.118060
H42   H     H_    0.634999 0.684811 0.028796 0.137381
H43   H     H_    0.609624 0.740623 0.116698 0.117167
C46   C     C_3   0.515078 0.787652 0.008986 -0.807103
H44   H     H_    0.444522 0.820807 0.041178 0.250445
H45   H     H_    0.595778 0.831290 0.992007 0.194998
H46   H     H_    0.469494 0.764653 0.953820 0.267857
N13   N     N_3   0.677575 0.382572 0.736333 -0.467071
H47   H     H_    0.770097 0.404260 0.749698 0.181337
H48   H     H_    0.668836 0.320018 0.755656 0.216627
N14   N     N_3   0.421003 0.655381 0.248397 -0.450097
H49   H     H_    0.331720 0.661076 0.220332 0.208216
H50   H     H_    0.473938 0.710804 0.237005 0.196350
N15   N     N_3   0.678942 0.271265 0.572159 -0.424167
H51   H     H_    0.649736 0.319099 0.604071 0.245621
H52   H     H_    0.744233 0.293420 0.529106 0.216830
N16   N     N_3   0.313502 0.718598 0.437479 -0.396793
H53   H     H_    0.350448 0.696670 0.386408 0.217852
H54   H     H_    0.242387 0.758041 0.417211 0.198918
O15   O     O_3   0.642892 0.103430 0.584636 -0.563092
C47   C     C_3   0.595237 0.094208 0.662956 0.141066
H55   H     H_    0.502196 0.058519 0.663914 0.124864
H56   H     H_    0.583261 0.155346 0.687349 0.135665
C48   C     C_3   0.688632 0.047458 0.717610 -0.821974
H57   H     H_    0.783078 0.080927 0.717022 0.259378
H58   H     H_    0.653495 0.041882 0.779728 0.198439
H59   H     H_    0.698460 0.984641 0.697335 0.252193
O16   O     O_3   0.306175 0.889158 0.461567 -0.585223
C49   C     C_3   0.224398 0.884806 0.527461 0.103846
H60   H     H_    0.268888 0.918118 0.577696 0.141844
H61   H     H_    0.200515 0.819580 0.549025 0.130925
C50   C     C_3   0.100926 0.925119 0.502431 -0.802818
H62   H     H_    0.052424 0.891690 0.453856 0.243028
H63   H     H_    0.037374 0.923154 0.554404 0.202922
H64   H     H_    0.120477 0.990513 0.481011 0.278850

loop_
_geom_bond_atom_site_label_1
_geom_bond_atom_site_label_2
_ccdc_geom_bond_type
N7    H5    S    
C18   O10   S    
C7    C29   A    
C10   N4    A    
C24   C27   S    
C21   C26   S    
C47   C48   S    
C45   H42   S    
C5    O13   S    
C9    N16   S    
C2    O2    A    
C48   H58   S    
C40   H29   S    
N14   H50   S    
C24   C26   S    
C46   H45   S    
N4    Zn1   S    
N12   H26   S    
C20   C25   S    
C3    C33   A    
N8    H8    S    
O12   C41   S    
N9    H10   S    
C19   C26   S    
C20   O6    A    
C44   H40   S    
C4    N2    S    
C35   H13   S    
C22   C25   S    
C31   C33   A    
C14   C16   A    
C21   C27   S    
O1    Zn1   S    
C42   H35   S    
C22   C28   S    
C49   C50   S    
C7    N13   S    
C50   H63   S    
C50   H62   S    
C21   C23   S    
O4    Zn1   S    
C48   H59   S    
C4    C34   A    
C17   O9    S    
O9    C35   S    
C42   H34   S    
C37   H18   S    
C4    C6    A    
C44   H39   S    
C44   H41   S    
N1    N2    D    
C5    C7    A    
N12   H25   S    
C1    O3    A    
C6    C8    A    
C2    O4    A    
N8    H7    S    
C32   H3    S    
C45   H43   S    
N10   H12   S    
N16   H54   S    
O10   C37   S    
N15   H52   S    
C6    O14   S    
C36   H17   S    
C11   O16   S    
C19   O5    A    
C39   H28   S    
N11   H23   S    
C13   C15   A    
O2    Zn2   S    
C1    C29   S    
C15   N9    S    
O6    Zn2   S    
C23   C28   S    
C9    C11   A    
N13   H47   S    
C10   C12   A    
O3    Zn2   S    
C24   N8    S    
N11   H24   S    
C12   C14   A    
C40   H31   S    
C41   H33   S    
C12   O15   S    
N7    H6    S    
N5    N6    D    
C28   N12   S    
O15   C47   S    
C22   C24   S    
C46   H46   S    
C25   C27   S    
N15   H51   S    
C13   N5    S    
C50   H64   S    
O8    Zn1   S    
C39   C40   S    
C14   N6    S    
O14   C45   S    
C48   H57   S    
C15   C17   A    
C20   O8    A    
C9    N3    A    
C8    N14   S    
C37   H19   S    
C3    C5    A    
C38   H22   S    
C47   H56   S    
C38   H21   S    
C23   N7    S    
C47   H55   S    
C21   H1    S    
C42   H36   S    
C41   C42   S    
C22   H2    S    
O13   C43   S    
C26   C28   S    
C31   H4    S    
C2    C30   S    
O7    Zn2   S    
C8    C30   A    
N10   H11   S    
C18   N4    A    
N16   H53   S    
C34   O11   S    
C36   H15   S    
C29   C31   A    
O16   C49   S    
C30   C32   A    
C11   C13   A    
C1    O1    A    
C39   H27   S    
C40   H30   S    
C43   H38   S    
C35   C36   S    
O5    Zn1   S    
C27   N11   S    
C33   O12   S    
C23   C25   S    
N9    H9    S    
C17   N3    A    
N3    Zn2   S    
N13   H48   S    
C45   C46   S    
C3    N1    S    
C38   H20   S    
C19   O7    A    
C37   C38   S    
C16   C18   A    
C41   H32   S    
C43   H37   S    
C36   H16   S    
C35   H14   S    
C49   H60   S    
C16   N10   S    
O11   C39   S    
C46   H44   S    
C49   H61   S    
C10   N15   S    
C32   C34   A    
N14   H49   S    
C43   C44   S    
