data_mof_unit_59732.cif
_audit_creation_date              2013-03-05T16:12:08-0500
_audit_creation_method            fapswitch 2.2
_symmetry_space_group_name_H-M    P1
_symmetry_Int_Tables_number       1
_space_group_crystal_system       triclinic
_cell_length_a                    10.736398
_cell_length_b                    9.430688
_cell_length_c                    27.806362
_cell_angle_alpha                 89.83932
_cell_angle_beta                  89.896593
_cell_angle_gamma                 90.001897
_cell_volume                      2815.42353419

loop_
_atom_site_label
_atom_site_type_symbol
_atom_site_description
_atom_site_fract_x
_atom_site_fract_y
_atom_site_fract_z
_atom_type_partial_charge
O1    O     O_R   0.317570 0.620260 0.500030 -0.611522
O2    O     O_R   0.317570 0.379740 0.500030 -0.612031
C1    C     C_R   0.259687 0.500198 0.499968 0.730044
O3    O     O_R   0.499900 0.620250 0.430280 -0.530512
O4    O     O_R   0.499900 0.379750 0.430280 -0.531446
C2    C     C_R   0.499696 0.500231 0.407471 0.848965
Cu1   Cu    Cu3+1 0.499860 0.642410 0.500020 1.001229
Cu2   Cu    Cu3+1 0.499860 0.357590 0.500020 1.014019
O5    O     O_R   0.682190 0.620260 0.500010 -0.557650
O6    O     O_R   0.682190 0.379740 0.500010 -0.561340
O7    O     O_R   0.499860 0.620280 0.569750 -0.553932
O8    O     O_R   0.499860 0.379720 0.569750 -0.506336
C3    C     C_R   0.740065 0.500201 0.499933 0.783296
C4    C     C_R   0.499069 0.499980 0.592646 0.856321
C5    C     C_R   0.393700 0.465812 0.178053 0.612611
O9    O     O_2   0.291484 0.426640 0.203133 -0.493054
N1    N     N_R   0.499165 0.504737 0.201913 -0.455499
C6    C     C_R   0.604426 0.545666 0.177837 0.672993
C7    C     C_R   0.498737 0.631717 0.279010 0.689483
C8    C     C_R   0.498848 0.630436 0.329154 -0.252536
C9    C     C_R   0.499049 0.373160 0.328687 -0.169269
C10   C     C_R   0.498997 0.374595 0.278529 -0.167536
C11   C     C_R   0.499089 0.503710 0.253523 0.203082
C12   C     C_R   0.497388 0.510551 0.101811 -0.079165
C13   C     C_R   0.390758 0.467694 0.127691 -0.064393
C14   C     C_R   0.281490 0.433167 0.103098 -0.133710
C15   C     C_R   0.606455 0.549883 0.126906 -0.184657
C16   C     C_R   0.499268 0.501161 0.354482 -0.161706
H1    H     H_    0.498894 0.271969 0.347176 0.232211
H2    H     H_    0.499167 0.275380 0.259014 0.197944
H3    H     H_    0.196916 0.410023 0.122943 0.242789
C17   C     C_R   0.495722 0.501733 0.645815 -0.191882
C18   C     C_R   0.394173 0.446768 0.975480 0.056801
C19   C     C_R   0.586017 0.587278 0.974453 0.076939
C20   C     C_R   0.489132 0.517479 0.949683 0.084517
C21   C     C_R   0.312656 0.357224 0.949850 -0.114311
C22   C     C_R   0.314492 0.352929 0.899794 -0.119126
C23   C     C_R   0.399505 0.435878 0.873806 -0.030231
C24   C     C_R   0.487555 0.517907 0.898763 -0.052678
C25   C     C_R   0.574417 0.599862 0.872891 -0.034094
C26   C     C_R   0.572758 0.596775 0.822438 0.567930
N2    N     N_R   0.486778 0.515657 0.798667 -0.453044
C27   C     C_R   0.400370 0.436758 0.823330 0.561625
C28   C     C_R   0.509905 0.382420 0.723261 -0.167200
C29   C     C_R   0.512618 0.377056 0.673149 0.597701
C30   C     C_R   0.474732 0.630639 0.669956 -0.258017
C31   C     C_R   0.470710 0.635055 0.720041 -0.087959
C32   C     C_R   0.488791 0.511081 0.746984 0.245133
O10   O     O_2   0.314918 0.360263 0.799083 -0.524317
C33   C     C_R   0.386813 0.464691 0.026114 -0.041534
C34   C     C_R   0.494370 0.513682 0.050895 0.018820
C35   C     C_R   0.598611 0.565586 0.024856 -0.089295
C36   C     C_R   0.276637 0.436292 0.052974 0.278195
H4    H     H_    0.524716 0.286159 0.743820 0.183219
H5    H     H_    0.248885 0.284396 0.881584 0.198695
H6    H     H_    0.248719 0.286865 0.968147 0.184501
O11   O     O_2   0.706208 0.581500 0.203420 -0.434036
C37   C     C_R   0.714477 0.587148 0.100464 0.275684
H7    H     H_    0.498365 0.730679 0.348048 0.233791
C38   C     C_R   0.664857 0.678563 0.948004 -0.113553
C39   C     C_R   0.660049 0.683597 0.897985 -0.123573
O12   O     O_2   0.657760 0.672314 0.797359 -0.513440
C40   C     C_R   0.711871 0.590576 0.049875 0.206467
H8    H     H_    0.729193 0.749371 0.965622 0.189238
H9    H     H_    0.460516 0.728390 0.650188 0.211244
H10   H     H_    0.724355 0.752638 0.879091 0.199463
H11   H     H_    0.453530 0.735027 0.737955 0.177582
C41   C     C_3   0.071177 0.655370 0.499550 -0.379463
C42   C     C_3   0.071533 0.424629 0.545481 -0.383217
H12   H     H_    0.105534 0.712959 0.467117 0.174217
H13   H     H_    0.105779 0.313262 0.546677 0.172167
H14   H     H_    0.104991 0.713690 0.531759 0.169797
H15   H     H_    0.106228 0.478786 0.578357 0.164940
C43   C     C_3   0.928560 0.655374 0.499484 -0.357063
C44   C     C_3   0.927716 0.424719 0.545485 -0.343358
H16   H     H_    0.894217 0.713920 0.531612 0.199367
H17   H     H_    0.892778 0.479039 0.578338 0.180761
H18   H     H_    0.894724 0.712745 0.466974 0.187796
H19   H     H_    0.893338 0.313399 0.546730 0.201760
H20   H     H_    0.106970 0.476965 0.421599 0.169504
H21   H     H_    0.106366 0.312163 0.454018 0.172247
H22   H     H_    0.893486 0.476734 0.421582 0.180914
H23   H     H_    0.893928 0.312044 0.454063 0.187355
C45   C     C_3   0.072017 0.423517 0.454717 -0.371798
C46   C     C_3   0.121688 0.500903 0.499927 0.153480
C47   C     C_3   0.878049 0.500907 0.499903 0.102268
C48   C     C_3   0.928182 0.423436 0.454719 -0.356175
C49   C     C_3   0.606226 0.083793 0.472684 0.545352
C50   C     C_3   0.607318 0.916578 0.473346 0.551701
H24   H     H_    0.696070 0.121209 0.487821 0.079771
H25   H     H_    0.696424 0.881512 0.489803 0.077223
C51   C     C_3   0.511200 0.083415 0.550485 0.463217
C52   C     C_3   0.509100 0.915880 0.550591 0.413608
C53   C     C_3   0.384095 0.083755 0.480064 -0.390682
C54   C     C_3   0.384838 0.916706 0.479459 -0.378752
N3    N     N_3   0.500250 0.143650 0.501060 -0.265316
N4    N     N_3   0.500250 0.856350 0.501060 -0.248279
H26   H     H_    0.302001 0.119466 0.501235 0.158554
H27   H     H_    0.301832 0.878787 0.499649 0.160394
H28   H     H_    0.370508 0.125054 0.442943 0.246356
H29   H     H_    0.373805 0.878173 0.441944 0.244134
H30   H     H_    0.432204 0.121788 0.572889 0.110525
H31   H     H_    0.427503 0.879861 0.572130 0.061846
F1    F     F_    0.497463 0.757432 0.255149 -0.617285
N5    N     N_R   0.830329 0.613039 0.124335 0.199929
O13   O     O_R   0.910812 0.510987 0.129328 -0.250870
O14   O     O_R   0.859718 0.741160 0.137301 -0.241060
N6    N     N_R   0.828330 0.598268 0.024435 0.147277
O15   O     O_R   0.907111 0.699843 0.033131 -0.256198
O16   O     O_R   0.856980 0.501115 0.993162 -0.265780
F2    F     F_    0.602425 0.132082 0.425626 -0.621490
F3    F     F_    0.607581 0.865625 0.426692 -0.618360
F4    F     F_    0.620292 0.131019 0.571716 -0.569253
F5    F     F_    0.614926 0.864608 0.573362 -0.610460
F6    F     F_    0.532866 0.250009 0.651899 -0.609274
N7    N     N_R   0.156109 0.431027 0.030709 0.133335
O17   O     O_R   0.070088 0.347468 0.047715 -0.272212
O18   O     O_R   0.126389 0.524760 0.998263 -0.261398

loop_
_geom_bond_atom_site_label_1
_geom_bond_atom_site_label_2
_geom_bond_distance
_ccdc_geom_bond_type
H23   C48   1.113214 S    
C49   N3    1.495024 S    
C1    C46   1.481631 S    
C26   N2    1.370854 A    
C20   C24   1.416021 A    
C7    C8    1.394352 A    
Cu2   N3    2.017732 S    
C45   C48   1.544265 S    
H20   C45   1.113129 S    
C52   H31   1.112888 S    
Cu1   Cu2   2.686048 S    
N6    O15   1.301341 A    
Cu1   O7    1.949555 S    
N5    O14   1.300879 A    
C50   F3    1.384675 S    
N1    C11   1.435093 S    
C43   H16   1.113755 S    
C21   C22   1.392682 A    
C23   C24   1.406783 A    
O7    C4    1.299401 A    
C54   H27   1.111001 S    
C5    C13   1.400874 A    
C53   H26   1.111805 S    
C41   C43   1.531201 S    
H22   C48   1.113129 S    
C51   N3    1.490485 S    
C18   C21   1.411580 A    
N7    O17   1.301462 A    
Cu1   O5    1.968687 S    
C19   C20   1.412367 A    
C17   C29   1.410162 A    
C42   H13   1.113203 S    
O5    C3    1.291561 A    
C44   C47   1.550607 S    
C49   F2    1.384977 S    
C39   H10   1.083227 S    
C2    C16   1.473446 S    
N7    O18   1.301437 A    
C3    C47   1.481469 S    
C54   H29   1.112128 S    
C12   C15   1.414251 A    
C42   H15   1.113146 S    
C50   H25   1.111188 S    
C10   H2    1.082946 S    
C51   F4    1.387745 S    
C36   N7    1.436442 S    
C51   H30   1.112537 S    
C12   C34   1.416426 A    
C14   H3    1.083579 S    
O6    C3    1.294833 A    
C9    C10   1.394746 A    
C19   C38   1.411613 A    
C41   C46   1.554430 S    
C26   O12   1.349654 S    
O3    Cu1   1.951026 S    
C31   H11   1.083216 S    
N1    C6    1.367528 A    
C33   C36   1.422833 A    
C34   C35   1.418264 A    
C12   C13   1.409681 A    
C30   H9    1.082922 S    
O3    C2    1.299003 A    
C24   C25   1.406773 A    
C47   C48   1.550749 S    
C27   O10   1.349682 S    
C8    C16   1.406255 A    
C13   C14   1.397874 A    
C9    H1    1.082705 S    
C35   C40   1.422028 A    
C43   C47   1.554391 S    
C25   C39   1.400387 A    
C50   N4    1.494055 S    
C41   H14   1.113704 S    
O1    C1    1.291591 A    
C7    C11   1.401562 A    
C22   C23   1.400573 A    
C21   H6    1.080360 S    
C28   H4    1.083350 S    
C7    F1    1.357069 S    
C29   F6    1.354793 S    
C6    O11   1.348536 S    
C31   C32   1.400545 A    
C53   H28   1.112070 S    
Cu2   O8    1.950719 S    
C33   C34   1.423527 A    
N2    C32   1.438014 S    
C45   C46   1.550780 S    
C8    H7    1.082816 S    
C53   N3    1.489816 S    
C44   H17   1.113142 S    
Cu2   O6    1.968674 S    
C25   C26   1.403463 A    
C9    C16   1.405892 A    
C49   H24   1.111030 S    
N2    C27   1.370912 A    
C14   C36   1.395060 A    
C52   N4    1.491961 S    
H21   C45   1.113237 S    
C42   C46   1.550589 S    
C28   C29   1.394741 A    
C37   C40   1.407308 A    
C5    N1    1.364224 A    
C30   C31   1.394009 A    
Cu1   N4    2.017894 S    
O1    Cu1   1.968248 S    
C17   C30   1.408288 A    
O2    Cu2   1.968262 S    
C6    C15   1.416781 A    
C4    C17   1.478958 S    
C15   C37   1.415828 A    
O4    Cu2   1.949860 S    
C54   N4    1.490288 S    
N5    O13   1.300739 A    
C19   C35   1.422478 A    
C38   H8    1.079835 S    
C37   N5    1.432201 S    
O2    C1    1.294896 A    
C18   C33   1.420596 A    
C23   C27   1.403558 A    
O4    C2    1.299693 A    
C51   C52   1.580125 S    
C18   C20   1.411841 A    
N6    O16   1.301458 A    
C42   C44   1.544085 S    
C52   F5    1.388005 S    
C53   C54   1.575548 S    
C22   H5    1.083221 S    
C28   C32   1.400981 A    
O8    C4    1.302187 A    
C49   C50   1.577051 S    
C41   H12   1.113737 S    
C43   H18   1.113717 S    
C10   C11   1.400490 A    
C38   C39   1.392587 A    
C40   N6    1.437207 S    
C44   H19   1.113236 S    
C5    O9    1.350150 S    
