data_mof_unit_38569.cif
_audit_creation_date              2012-12-11T14:13:28-0500
_audit_creation_method            fapswitch 2.2
_symmetry_space_group_name_H-M    P1
_symmetry_Int_Tables_number       1
_space_group_crystal_system       triclinic
_cell_length_a                    8.236316
_cell_length_b                    15.140246
_cell_length_c                    17.391668
_cell_angle_alpha                 95.575886
_cell_angle_beta                  95.465657
_cell_angle_gamma                 99.736606
_cell_volume                      2113.55230991

loop_
_atom_site_label
_atom_site_type_symbol
_atom_type_description
_atom_site_fract_x
_atom_site_fract_y
_atom_site_fract_z
_atom_type_partial_charge
Ba1   Ba    Ba6+2 0.849890 0.543710 0.463630 1.708066
Ba2   Ba    Ba6+2 0.339940 0.456360 0.536380 1.688945
C1    C     C_3   0.675112 0.879861 0.269843 -0.345629
C2    C     C_R   0.133241 0.480320 0.249307 -0.022868
C3    C     C_R   0.079139 0.464569 0.167092 0.354865
C4    C     C_3   0.110154 0.737655 0.254318 0.313824
C5    C     C_R   0.186781 0.502689 0.114341 -0.082016
C6    C     C_R   0.346747 0.549471 0.142955 -0.176913
C7    C     C_R   0.399886 0.561065 0.222725 0.024917
C8    C     C_R   0.125475 0.511963 0.823250 -0.049318
C9    C     C_R   0.058286 0.509881 0.745132 0.090321
C10   C     C_R   0.797690 0.427035 0.774259 -0.037399
C11   C     C_R   0.861594 0.431354 0.852782 -0.076067
C12   C     C_3   0.644737 0.785793 0.295344 0.340374
C13   C     C_R   0.027147 0.473234 0.877877 0.015686
C14   C     C_1   0.089684 0.483595 0.960528 0.100566
C15   C     C_1   0.136557 0.492591 0.030063 0.148484
C16   C     C_3   0.090755 0.764078 0.172281 -0.296850
C17   C     C_R   0.897265 0.465011 0.721230 -0.267797
C18   C     C_R   0.760256 0.231936 0.531496 -0.270589
C19   C     C_R   0.857698 0.171988 0.558123 -0.037758
C20   C     C_R   0.795999 0.078767 0.546519 -0.071185
C21   C     C_R   0.638550 0.043890 0.503453 0.037411
C22   C     C_R   0.550152 0.107233 0.471586 -0.105099
C23   C     C_3   0.427564 0.327645 0.300121 0.298867
C24   C     C_R   0.609864 0.199915 0.486052 0.050427
C25   C     C_R   0.404307 0.911507 0.453621 -0.124715
C26   C     C_R   0.337601 0.819666 0.442163 0.014490
C27   C     C_R   0.587377 0.785528 0.507435 0.057966
C28   C     C_3   0.273687 0.728237 0.630972 0.268774
C29   C     C_R   0.658241 0.877863 0.515948 -0.097621
C30   C     C_R   0.568198 0.943466 0.489650 0.002803
C31   C     C_R   0.430662 0.756692 0.466815 -0.297662
C32   C     C_3   0.360162 0.825111 0.657016 -0.195300
C33   C     C_3   0.933202 0.270959 0.372020 0.314223
C34   C     C_3   0.360259 0.297782 0.215351 -0.317404
C35   C     C_3   0.895796 0.169190 0.350041 -0.387801
C36   C     C_3   0.833546 0.728670 0.710313 0.670554
C37   C     C_3   0.777866 0.684562 0.782642 0.330420
C38   C     C_3   0.013171 0.229029 0.741485 0.304574
C39   C     C_3   0.072933 0.226363 0.826549 -0.275096
C40   C     C_3   0.565831 0.222769 0.761166 0.248072
C41   C     C_3   0.464382 0.135971 0.781493 0.281934
C42   C     C_R   0.291549 0.529717 0.274903 -0.359499
H1    H     H_    0.731642 0.785563 0.348178 0.089521
H2    H     H_    0.916002 0.688843 0.681317 -0.097088
H3    H     H_    0.804523 0.897252 0.255697 0.150838
H4    H     H_    0.662084 0.707073 0.797980 0.078064
H5    H     H_    0.745061 0.610643 0.766397 -0.085442
H6    H     H_    0.515136 0.770937 0.309557 -0.058743
H7    H     H_    0.655222 0.929956 0.317469 0.063550
H8    H     H_    0.329058 0.354027 0.329787 0.001000
H9    H     H_    0.537128 0.382251 0.302822 0.081633
H10   H     H_    0.239576 0.251069 0.211705 0.126439
H11   H     H_    0.341980 0.357140 0.185207 0.072691
H12   H     H_    0.466832 0.826504 0.701430 0.204929
H13   H     H_    0.448511 0.262677 0.185400 0.156138
H14   H     H_    0.587984 0.882838 0.217727 0.127739
H15   H     H_    0.116731 0.709422 0.130379 0.092244
H16   H     H_    0.003257 0.299907 0.733607 -0.039005
H17   H     H_    0.889598 0.185006 0.727177 0.059049
H18   H     H_    0.194123 0.272215 0.842844 0.128713
H19   H     H_    0.982073 0.248862 0.863844 0.097142
H20   H     H_    0.086812 0.156621 0.836816 0.165559
H21   H     H_    0.681323 0.241351 0.802243 -0.015348
H22   H     H_    0.596217 0.211559 0.700306 -0.002461
H23   H     H_    0.404449 0.858299 0.607475 0.032534
H24   H     H_    0.357953 0.111178 0.736145 0.098486
H25   H     H_    0.022365 0.673759 0.256041 0.087226
H26   H     H_    0.416285 0.148974 0.838283 0.033507
H27   H     H_    0.250757 0.547236 0.842116 0.103009
H28   H     H_    0.431065 0.575751 0.103054 0.125626
H29   H     H_    0.781671 0.404773 0.894278 0.122752
H30   H     H_    0.334729 0.539902 0.336401 0.082827
H31   H     H_    0.845424 0.464636 0.661617 0.062645
H32   H     H_    0.322224 0.955962 0.436194 0.078572
H33   H     H_    0.875027 0.035636 0.569816 0.112005
H34   H     H_    0.273843 0.865525 0.681326 0.208591
H35   H     H_    0.781313 0.896906 0.545400 0.144473
H36   H     H_    0.239151 0.726396 0.267473 -0.057899
H37   H     H_    0.437425 0.087065 0.432715 0.061732
H38   H     H_    0.376184 0.685784 0.459868 0.070604
H39   H     H_    0.807891 0.303743 0.540421 0.054166
H40   H     H_    0.962222 0.774974 0.156859 0.169144
H41   H     H_    0.179166 0.827089 0.168191 0.118949
H42   H     H_    0.361746 0.691272 0.603417 0.006462
H43   H     H_    0.165357 0.728452 0.587997 0.055580
H44   H     H_    0.886234 0.945819 0.821862 0.411157
H45   H     H_    0.823031 0.294117 0.392183 -0.008658
H46   H     H_    0.180294 0.711331 0.903619 0.362916
H47   H     H_    0.705229 0.104806 0.903443 0.343566
H48   H     H_    0.760619 0.279038 0.172309 0.349498
H49   H     H_    0.037400 0.287527 0.419206 0.066870
H50   H     H_    0.782479 0.150189 0.307672 0.128193
H51   H     H_    0.876359 0.133831 0.401965 0.056226
H52   H     H_    0.001701 0.146798 0.323551 0.131116
O1    O     O_2   0.849470 0.455720 0.314640 -0.409808
O2    O     O_2   0.198650 0.178431 0.552420 -0.466892
O3    O     O_3   0.126034 0.197494 0.694846 -0.563885
O4    O     O_3   0.110000 0.453900 0.408940 -0.512799
O5    O     O_3   0.586730 0.607760 0.539780 -0.481577
O6    O     O_2   0.329480 0.280220 0.460820 -0.459981
O7    O     O_3   0.473807 0.253556 0.333559 -0.643007
O8    O     O_2   0.484313 0.461503 0.772535 -0.456133
O9    O     O_3   0.470645 0.290679 0.769185 -0.596253
O10   O     O_3   0.647080 0.618870 0.362820 -0.508766
O11   O     O_2   0.739324 0.560642 0.227284 -0.415443
O12   O     O_3   0.685512 0.728242 0.662948 -0.689391
O13   O     O_3   0.973810 0.311037 0.305881 -0.606510
O14   O     O_3   0.672453 0.722938 0.235250 -0.595400
O15   O     O_2   0.860230 0.719810 0.539220 -0.466211
O16   O     O_3   0.074870 0.664270 0.401430 -0.500397
O17   O     O_2   0.002196 0.823200 0.450870 -0.482917
O18   O     O_2   0.097210 0.851259 0.783629 -0.235555
O19   O     O_2   0.962999 0.888299 0.662841 -0.340738
O20   O     O_3   0.809815 0.898751 0.785997 -0.410980
O21   O     O_2   0.913591 0.797124 0.911350 -0.220466
O22   O     O_2   0.864689 0.635780 0.922759 -0.308936
O23   O     O_3   0.074759 0.806525 0.306952 -0.600976
O24   O     O_3   0.114095 0.701200 0.851908 -0.507686
O25   O     O_2   0.484445 0.968020 0.812630 -0.227376
O26   O     O_2   0.643623 0.027142 0.710667 -0.284546
O27   O     O_3   0.752025 0.087327 0.855018 -0.528353
O28   O     O_2   0.786049 0.454169 0.082707 -0.259698
O29   O     O_2   0.923990 0.324780 0.066225 -0.340808
O30   O     O_3   0.768982 0.344602 0.187272 -0.495875
O31   O     O_2   0.340240 0.544310 0.685400 -0.446608
O32   O     O_3   0.079710 0.546180 0.591070 -0.514216
O33   O     O_3   0.542640 0.381210 0.637190 -0.460610
O34   O     O_3   0.221904 0.688812 0.696075 -0.568231
O35   O     O_3   0.602990 0.392320 0.460230 -0.485954
O36   O     O_3   0.114850 0.335810 0.598580 -0.479897
P1    P     P_3+3 0.017890 0.428700 0.326140 1.052930
P2    P     P_3+3 0.687140 0.705880 0.561850 1.018314
P3    P     P_3+3 0.121590 0.780434 0.401482 0.949613
P4    P     P_3+3 0.171830 0.571380 0.673870 1.034759
P5    P     P_3+3 0.073114 0.218734 0.599625 0.993587
P6    P     P_3+3 0.613813 0.614245 0.261451 0.991862
P7    P     P_3+3 0.506500 0.279460 0.434721 0.953805
P8    P     P_3+3 0.576858 0.388749 0.739192 0.992450
S1    S     S_3+6 0.933670 0.844375 0.735184 -0.009456
S2    S     S_3+6 0.919129 0.705753 0.870427 -0.044901
S3    S     S_3+6 0.586661 0.050442 0.788446 -0.077102
S4    S     S_3+6 0.886392 0.395976 0.125074 -0.063993

loop_
_geom_bond_atom_site_label_1
_geom_bond_atom_site_label_2
_ccdc_geom_bond_type
C6    C7    A    
C4    H25   S    
O19   S1    D    
C32   H12   S    
C38   H16   S    
C26   P3    S    
O25   S3    D    
C41   S3    S    
Ba1   O32   S    
C19   P5    S    
C38   O3    S    
C5    C6    A    
O5    P2    S    
C9    C17   A    
C39   H18   S    
C33   C35   S    
C23   H9    S    
C8    C13   A    
O32   P4    S    
Ba1   O16   S    
C36   C37   S    
O10   P6    S    
Ba2   O6    S    
O29   S4    D    
C13   C14   S    
C27   C31   A    
Ba2   O33   S    
C35   H51   S    
Ba1   Ba2   S    
O30   S4    S    
C4    H36   S    
C14   C15   T    
C5    C15   S    
C40   H21   S    
Ba2   O36   S    
C21   C22   A    
C10   P8    S    
O1    P1    D    
C28   H42   S    
C31   H38   S    
C32   H34   S    
C33   O13   S    
Ba1   O10   S    
C37   H4    S    
C8    H27   S    
C27   P2    S    
Ba2   O4    S    
C34   H10   S    
H47   O27   S    
C19   C20   A    
O26   S3    D    
Ba1   P1    S    
Ba1   O4    S    
C12   H1    S    
C33   H49   S    
C4    C16   S    
C6    H28   S    
C16   H41   S    
C28   C32   S    
O2    P5    D    
O13   P1    S    
O18   S1    D    
O14   P6    S    
O24   S2    S    
O31   P4    D    
C34   H13   S    
O3    P5    S    
Ba1   O1    S    
C3    C5    A    
C1    H7    S    
C23   O7    S    
C3    S4    S    
C2    C42   A    
Ba2   O5    S    
Ba1   O35   S    
O36   P5    S    
C28   O34   S    
O23   P3    S    
C38   H17   S    
O8    P8    D    
C35   H52   S    
H46   O24   S    
H44   O20   S    
C22   H37   S    
O12   P2    S    
O7    P7    S    
C7    P6    S    
C16   H40   S    
C29   C30   A    
C37   S2    S    
Ba2   O35   S    
C18   C19   A    
C42   H30   S    
C1    C12   S    
C33   H45   S    
C38   C39   S    
C37   H5    S    
C11   H29   S    
C26   C31   A    
C24   P7    S    
C41   H26   S    
C11   C13   A    
C36   S1    S    
C40   C41   S    
C39   H19   S    
O16   P3    S    
Ba1   P2    S    
Ba1   O5    S    
C4    O23   S    
O4    P1    S    
C12   O14   S    
C7    C42   A    
C25   C30   A    
O34   P4    S    
C20   H33   S    
C22   C24   A    
C2    C3    A    
O22   S2    D    
H48   O30   S    
C32   H23   S    
O15   P2    D    
C29   H35   S    
C41   H24   S    
C21   C30   S    
O11   P6    D    
C17   H31   S    
O21   S2    D    
C23   H8    S    
C27   C29   A    
C34   H11   S    
C9    P4    S    
Ba2   O31   S    
O9    P8    S    
C12   H6    S    
O33   P8    S    
C18   C24   A    
C10   C17   A    
C1    H3    S    
C35   H50   S    
O6    P7    D    
C36   O12   S    
C40   O9    S    
Ba2   P4    S    
C36   H2    S    
O35   P7    S    
C8    C9    A    
C23   C34   S    
O20   S1    S    
C1    H14   S    
C16   H15   S    
C10   C11   A    
O17   P3    D    
C18   H39   S    
O27   S3    S    
C25   C26   A    
C40   H22   S    
C20   C21   A    
O28   S4    D    
C39   H20   S    
C28   H43   S    
Ba1   O15   S    
C25   H32   S    
C2    P1    S    
Ba2   O32   S    
