data_mof_unit_40173.cif
_audit_creation_date              2012-12-10T18:03:31-0500
_audit_creation_method            fapswitch 2.2
_symmetry_space_group_name_H-M    P1
_symmetry_Int_Tables_number       1
_space_group_crystal_system       triclinic
_cell_length_a                    10.858241
_cell_length_b                    9.497587
_cell_length_c                    19.381617
_cell_angle_alpha                 89.877958
_cell_angle_beta                  89.857046
_cell_angle_gamma                 90.797651
_cell_volume                      1998.56513879

loop_
_atom_site_label
_atom_site_type_symbol
_atom_type_description
_atom_site_fract_x
_atom_site_fract_y
_atom_site_fract_z
_atom_type_partial_charge
C1    C     C_R   0.872100 0.506214 0.496531 -0.380546
C2    C     C_R   0.128330 0.498395 0.501620 -0.379623
C3    C     C_R   0.487968 0.631798 0.962796 0.371917
C4    C     C_R   0.458697 0.377963 0.036090 0.383743
C5    C     C_R   0.496134 0.631888 0.035017 0.375978
C6    C     C_R   0.468222 0.375679 0.963951 0.368714
C7    C     C_R   0.478266 0.505220 0.072000 -0.181970
C8    C     C_R   0.479667 0.503113 0.927059 -0.162023
C9    C     C_R   0.262159 0.499118 0.501256 0.932861
C10   C     C_R   0.738004 0.501605 0.498999 0.917700
C11   C     C_R   0.498582 0.500205 0.367784 0.839426
C12   C     C_R   0.499460 0.499866 0.632051 0.852086
C13   C     C_R   0.062714 0.389687 0.468106 0.339970
C14   C     C_R   0.938290 0.618407 0.527718 0.363919
C15   C     C_R   0.934663 0.396273 0.463747 0.339168
C16   C     C_R   0.066433 0.609836 0.533895 0.348166
C17   C     C_R   0.390647 0.446751 0.740723 -0.314022
C18   C     C_R   0.409802 0.588568 0.259037 -0.327981
C19   C     C_R   0.571103 0.415469 0.254398 -0.322411
C20   C     C_R   0.594441 0.553586 0.744382 -0.336125
C21   C     C_R   0.384687 0.445757 0.813184 0.489049
C22   C     C_R   0.402829 0.590605 0.186505 0.492908
C23   C     C_R   0.570766 0.421150 0.182209 0.506214
C24   C     C_R   0.590071 0.556732 0.816852 0.488470
C25   C     C_R   0.484781 0.501870 0.850952 0.039221
C26   C     C_R   0.483252 0.504957 0.148230 0.025106
C27   C     C_R   0.434918 0.073653 0.451686 -0.025635
C28   C     C_R   0.565116 0.926365 0.548310 -0.044211
C29   C     C_R   0.565427 0.075292 0.548187 -0.013301
C30   C     C_R   0.434682 0.924714 0.451762 -0.057464
C31   C     C_R   0.495096 0.499583 0.706939 -0.128574
C32   C     C_R   0.493476 0.501506 0.292585 -0.138254
Cu1   Cu    Cu3+1 0.500000 0.640660 0.500000 0.946361
Cu2   Cu    Cu3+1 0.500000 0.359340 0.500000 0.967805
H1    H     H_    0.313208 0.409850 0.710325 0.155079
H2    H     H_    0.346911 0.649908 0.289790 0.150288
H3    H     H_    0.632795 0.345122 0.280687 0.159514
H4    H     H_    0.675741 0.590211 0.716910 0.163302
N1    N     N_R   0.500000 0.852070 0.500000 -0.163537
N2    N     N_R   0.500000 0.147930 0.500000 -0.157698
O1    O     O_R   0.319640 0.618740 0.500000 -0.580609
O2    O     O_R   0.680360 0.381260 0.500000 -0.544973
O3    O     O_R   0.680360 0.618740 0.500000 -0.572824
O4    O     O_R   0.319640 0.381260 0.500000 -0.560995
O5    O     O_R   0.500020 0.618830 0.400190 -0.598108
O6    O     O_R   0.499980 0.381170 0.599810 -0.601665
O7    O     O_R   0.499980 0.618830 0.599810 -0.574802
O8    O     O_R   0.500020 0.381170 0.400190 -0.574622
H5    H     H_    0.382927 0.129244 0.412969 0.149345
H6    H     H_    0.617581 0.870841 0.586866 0.150326
H7    H     H_    0.618222 0.132125 0.586609 0.124667
H8    H     H_    0.381987 0.867881 0.413290 0.117996
O9    O     O_3   0.124231 0.282815 0.434571 -0.550421
C33   C     C_3   0.115279 0.159020 0.474830 -0.262584
H9    H     H_    0.160134 0.173407 0.525939 0.152685
H10   H     H_    0.163685 0.073729 0.447390 0.145837
H11   H     H_    0.018312 0.123105 0.482027 0.178650
O10   O     O_3   0.877813 0.729345 0.558562 -0.544167
C34   C     C_3   0.871380 0.843080 0.511193 -0.281084
H12   H     H_    0.863088 0.942355 0.540794 0.165771
H13   H     H_    0.788957 0.833729 0.477952 0.199629
H14   H     H_    0.953131 0.854119 0.476789 0.112254
O11   O     O_3   0.870485 0.291983 0.428704 -0.545008
C35   C     C_3   0.864784 0.330008 0.358502 -0.276764
H15   H     H_    0.958226 0.341242 0.335229 0.179159
H16   H     H_    0.815886 0.244655 0.330307 0.174845
H17   H     H_    0.812370 0.428868 0.351372 0.125800
O12   O     O_3   0.128089 0.691827 0.582404 -0.541142
C36   C     C_3   0.157647 0.826458 0.555567 -0.204807
H18   H     H_    0.165247 0.829912 0.498206 0.111902
H19   H     H_    0.248492 0.859902 0.576411 0.182516
H20   H     H_    0.089748 0.903970 0.574024 0.158636
O13   O     O_3   0.278820 0.403480 0.848608 -0.568439
C37   C     C_3   0.232914 0.273211 0.823894 -0.250661
H21   H     H_    0.307593 0.197532 0.812044 0.167590
H22   H     H_    0.173533 0.289475 0.778083 0.147337
H23   H     H_    0.174469 0.224511 0.864721 0.179856
O14   O     O_3   0.311490 0.663233 0.151562 -0.570540
C38   C     C_3   0.297536 0.800924 0.177566 -0.245769
H24   H     H_    0.387417 0.852616 0.190274 0.182750
H25   H     H_    0.235195 0.800039 0.223072 0.132199
H26   H     H_    0.253489 0.865837 0.137159 0.178693
O15   O     O_3   0.649618 0.338162 0.143939 -0.541365
C39   C     C_3   0.772822 0.379857 0.156230 -0.349418
H27   H     H_    0.804977 0.339822 0.206815 0.152226
H28   H     H_    0.786012 0.496201 0.153128 0.144405
H29   H     H_    0.831803 0.332667 0.115854 0.192825
O16   O     O_3   0.690667 0.600265 0.856111 -0.573977
C40   C     C_3   0.739232 0.730384 0.832370 -0.251478
H30   H     H_    0.666038 0.805322 0.817008 0.169871
H31   H     H_    0.804768 0.713707 0.789177 0.161190
H32   H     H_    0.791728 0.780223 0.875076 0.176093
O17   O     O_3   0.496347 0.757665 0.926981 -0.559478
C41   C     C_3   0.377292 0.813882 0.921694 -0.266334
H33   H     H_    0.338972 0.839501 0.973421 0.197761
H34   H     H_    0.313816 0.741018 0.893623 0.157780
H35   H     H_    0.383242 0.913354 0.891701 0.184254
O18   O     O_3   0.438383 0.253355 0.071622 -0.514941
C42   C     C_3   0.310239 0.231724 0.078204 -0.255538
H36   H     H_    0.265692 0.219452 0.026849 0.176592
H37   H     H_    0.266810 0.318677 0.107585 0.150176
H38   H     H_    0.293559 0.132835 0.107502 0.168400
O19   O     O_3   0.514737 0.757651 0.069535 -0.537199
C43   C     C_3   0.642166 0.787538 0.071292 -0.260880
H39   H     H_    0.680627 0.802618 0.018469 0.187540
H40   H     H_    0.692781 0.703666 0.099020 0.128653
H41   H     H_    0.657100 0.887333 0.099899 0.191318
O20   O     O_3   0.459798 0.248686 0.929390 -0.554880
C44   C     C_3   0.578297 0.190306 0.925910 -0.267251
H42   H     H_    0.614092 0.165565 0.978252 0.206039
H43   H     H_    0.643926 0.261235 0.897874 0.150840
H44   H     H_    0.572325 0.090048 0.896782 0.184728

loop_
_geom_bond_atom_site_label_1
_geom_bond_atom_site_label_2
_ccdc_geom_bond_type
C5    O19   S    
O17   C41   S    
C4    O18   S    
C10   O2    A    
Cu1   O5    S    
O13   C37   S    
Cu2   O2    S    
C39   H29   S    
C43   H40   S    
O9    C33   S    
Cu1   N1    S    
C7    C26   S    
C23   O15   S    
Cu2   N2    S    
C28   C29   A    
C39   H28   S    
C44   H43   S    
C21   O13   S    
O20   C44   S    
C23   C26   A    
C36   H19   S    
C2    C13   A    
C21   C25   A    
C19   H3    S    
C28   H6    S    
O15   C39   S    
O12   C36   S    
C9    O4    A    
C37   H23   S    
C1    C15   A    
C40   H31   S    
C2    C16   A    
C34   H12   S    
Cu2   O6    S    
C27   C30   A    
C8    C25   S    
C11   O8    A    
C36   H18   S    
C12   O7    A    
C19   C32   A    
C43   H39   S    
C13   O9    S    
C14   O10   S    
C33   H10   S    
C34   H13   S    
C37   H21   S    
Cu1   O3    S    
C35   H17   S    
C20   C24   A    
Cu2   O4    S    
C24   C25   A    
C22   O14   S    
C4    C6    A    
C3    C8    A    
C44   H44   S    
C5    C7    A    
O14   C38   S    
C6    C8    A    
C28   N1    A    
C4    C7    A    
O10   C34   S    
C17   C21   A    
C38   H24   S    
C35   H16   S    
C36   H20   S    
C19   C23   A    
C20   H4    S    
C42   H36   S    
C27   N2    A    
Cu1   Cu2   S    
C3    O17   S    
C39   H27   S    
C40   H32   S    
C41   H34   S    
C24   O16   S    
C37   H22   S    
C16   O12   S    
C12   O6    A    
C42   H37   S    
C11   C32   S    
C13   C15   A    
C12   C31   S    
Cu1   O7    S    
C14   C16   A    
C11   O5    A    
Cu2   O8    S    
C38   H25   S    
C29   H7    S    
C30   H8    S    
C33   H9    S    
C34   H14   S    
C15   O11   S    
C10   O3    A    
C18   C22   A    
C1    C10   S    
C3    C5    A    
C38   H26   S    
C9    O1    A    
C41   H35   S    
Cu1   O1    S    
C35   H15   S    
C44   H42   S    
C17   C31   A    
C29   N2    A    
C30   N1    A    
C41   H33   S    
O11   C35   S    
C42   H38   S    
C18   C32   A    
O16   C40   S    
O18   C42   S    
C22   C26   A    
O19   C43   S    
C6    O20   S    
C1    C14   A    
C17   H1    S    
C40   H30   S    
C2    C9    S    
C18   H2    S    
C20   C31   A    
C43   H41   S    
C27   H5    S    
C33   H11   S    
