data_mof_unit_41334.cif
_audit_creation_date              2013-03-05T15:55:20-0500
_audit_creation_method            fapswitch 2.2
_symmetry_space_group_name_H-M    P1
_symmetry_Int_Tables_number       1
_space_group_crystal_system       triclinic
_cell_length_a                    14.667688
_cell_length_b                    14.73656
_cell_length_c                    33.141108
_cell_angle_alpha                 95.974202
_cell_angle_beta                  96.080898
_cell_angle_gamma                 61.127708
_cell_volume                      6226.22593118

loop_
_atom_site_label
_atom_site_type_symbol
_atom_site_description
_atom_site_fract_x
_atom_site_fract_y
_atom_site_fract_z
_atom_type_partial_charge
O1    O     O_R   0.679450 0.499830 0.463150 -0.536146
O2    O     O_R   0.480650 0.664000 0.464630 -0.511565
C1    C     C_R   0.389079 0.703724 0.446920 0.866217
O3    O     O_R   0.323930 0.675950 0.455370 -0.527209
O4    O     O_R   0.354700 0.475360 0.451930 -0.554941
C2    C     C_R   0.404043 0.384784 0.434281 0.805616
O5    O     O_R   0.494470 0.320860 0.448390 -0.487576
O6    O     O_R   0.662580 0.357570 0.460050 -0.518874
C3    C     C_R   0.701422 0.409829 0.447575 0.836746
O7    O     O_R   0.680900 0.502040 0.551870 -0.552577
O8    O     O_R   0.481990 0.666040 0.546870 -0.531183
C4    C     C_R   0.393287 0.701816 0.561319 0.830376
O9    O     O_R   0.325370 0.678160 0.544080 -0.537170
O10   O     O_R   0.356040 0.477400 0.534170 -0.544666
C5    C     C_R   0.406526 0.388576 0.548920 0.810083
O11   O     O_R   0.495910 0.323070 0.537100 -0.529367
O12   O     O_R   0.663920 0.359620 0.542290 -0.537999
C6    C     C_R   0.706152 0.411039 0.561708 0.765851
Cr1   Cr    Cr6+3 0.576280 0.580550 0.506370 1.039191
Cr2   Cr    Cr6+3 0.346780 0.572400 0.496520 0.990043
Cr3   Cr    Cr6+3 0.576960 0.347070 0.497150 1.046478
O13   O     O_3   0.500010 0.500010 0.500010 -0.357221
C7    C     C_R   0.363251 0.358938 0.393691 -0.225473
C8    C     C_R   0.268938 0.433801 0.374413 -0.146414
C9    C     C_R   0.250026 0.422714 0.331788 -0.080694
C10   C     C_R   0.321348 0.333705 0.309592 0.016432
C11   C     C_R   0.403637 0.250196 0.329863 -0.155716
C12   C     C_R   0.425471 0.263637 0.371806 0.329681
C13   C     C_R   0.401485 0.253168 0.164986 -0.105883
C14   C     C_R   0.395752 0.247370 0.121779 -0.109121
C15   C     C_R   0.213956 0.384313 0.121618 0.290975
C16   C     C_R   0.223238 0.396829 0.164144 0.345388
C17   C     C_R   0.313972 0.327478 0.185730 -0.166533
C18   C     C_1   0.314767 0.330823 0.229402 0.096237
C19   C     C_1   0.316223 0.332344 0.265796 0.127041
C20   C     C_R   0.296748 0.301928 0.100615 -0.312128
N1    N     N_R   0.716966 0.387080 0.216551 -0.243590
N2    N     N_R   0.707627 0.391778 0.256258 -0.268459
C21   C     C_R   0.748820 0.378805 0.408076 -0.102887
C22   C     C_R   0.724432 0.459704 0.383094 -0.146605
C23   C     C_R   0.738763 0.440230 0.342067 -0.152260
C24   C     C_R   0.779880 0.339117 0.324776 -0.097041
C25   C     C_R   0.813758 0.254709 0.349590 0.328956
C26   C     C_R   0.798826 0.274332 0.391837 -0.141923
N3    N     N_R   0.877691 0.254806 0.264303 -0.159830
N4    N     N_R   0.887208 0.250377 0.224619 -0.187992
C27   C     C_R   0.807494 0.317109 0.200224 0.633757
C28   C     C_R   0.787760 0.325837 0.280762 0.587320
C29   C     C_R   0.807278 0.399942 0.137654 -0.149027
C30   C     C_R   0.837167 0.387353 0.097417 -0.065665
C31   C     C_R   0.888803 0.202340 0.095750 -0.184472
C32   C     C_R   0.853067 0.216238 0.134701 0.352035
C33   C     C_R   0.820643 0.312356 0.156718 -0.127646
C34   C     C_R   0.891778 0.285649 0.078750 -0.149865
H1    H     H_    0.686413 0.539985 0.394590 0.204387
H2    H     H_    0.715239 0.505271 0.323477 0.201792
N5    N     N_R   0.361088 0.745000 0.220378 -0.190458
N6    N     N_R   0.362431 0.739339 0.260252 -0.253543
C35   C     C_R   0.364415 0.768603 0.411383 -0.202131
C36   C     C_R   0.270714 0.795844 0.386619 -0.149921
C37   C     C_R   0.268029 0.812142 0.345110 -0.179944
C38   C     C_R   0.354249 0.813440 0.330198 -0.164861
C39   C     C_R   0.436735 0.809685 0.357176 0.281453
C40   C     C_R   0.441622 0.788126 0.398002 0.268406
N7    N     N_R   0.353189 0.902932 0.271480 -0.172696
N8    N     N_R   0.351266 0.908818 0.231567 -0.245394
C41   C     C_R   0.355282 0.829939 0.205353 0.544155
C42   C     C_R   0.358321 0.818231 0.286408 0.653108
C43   C     C_R   0.263201 0.832704 0.137644 0.336036
C44   C     C_R   0.246480 0.852071 0.096071 -0.182858
C45   C     C_R   0.400517 0.877165 0.100625 -0.064737
C46   C     C_R   0.419691 0.853460 0.142094 -0.156805
C47   C     C_R   0.345480 0.840263 0.161136 -0.141195
C48   C     C_R   0.306277 0.889090 0.078993 -0.126824
N9    N     N_R   0.229335 0.387321 0.758727 -0.188603
N10   N     N_R   0.246188 0.397822 0.721261 -0.195948
C49   C     C_R   0.363242 0.364366 0.582050 -0.104469
C50   C     C_R   0.264136 0.435276 0.595047 -0.205298
C51   C     C_R   0.226504 0.418600 0.629170 0.368018
C52   C     C_R   0.291109 0.330061 0.651567 -0.124593
C53   C     C_R   0.390348 0.255990 0.637628 -0.114474
C54   C     C_R   0.423601 0.273348 0.602515 -0.176845
N11   N     N_R   0.252904 0.238395 0.699911 -0.222109
N12   N     N_R   0.236441 0.227700 0.737472 -0.218017
C55   C     C_R   0.225179 0.301679 0.767548 0.637388
C56   C     C_R   0.260176 0.322738 0.691420 0.637978
C57   C     C_R   0.142624 0.341138 0.834446 -0.079328
C58   C     C_R   0.153645 0.323338 0.875765 -0.209176
C59   C     C_R   0.332646 0.185731 0.869295 -0.187232
C60   C     C_R   0.322146 0.203294 0.827549 0.343480
C61   C     C_R   0.228096 0.281106 0.810227 -0.137134
C62   C     C_R   0.247329 0.247640 0.894013 -0.168594
H3    H     H_    0.215823 0.504560 0.578705 0.180225
H4    H     H_    0.500201 0.218074 0.592484 0.182691
H5    H     H_    0.087152 0.369210 0.893924 0.161174
H6    H     H_    0.049099 0.135444 0.870776 0.114572
C63   C     C_R   0.770860 0.372366 0.600373 -0.258400
C64   C     C_R   0.806702 0.435613 0.624851 -0.072401
C65   C     C_R   0.828165 0.422232 0.666543 -0.061228
C66   C     C_R   0.822637 0.342979 0.683622 -0.098423
C67   C     C_R   0.805537 0.268685 0.658957 0.400415
C68   C     C_R   0.780811 0.281985 0.616879 -0.164319
C69   C     C_R   0.962998 0.219577 0.818885 -0.050903
C70   C     C_R   0.981197 0.205023 0.860290 -0.202730
C71   C     C_R   0.833703 0.374715 0.875922 -0.127256
C72   C     C_R   0.810124 0.389218 0.833620 -0.072612
C73   C     C_R   0.876681 0.311970 0.805368 0.025493
C74   C     C_1   0.856076 0.326239 0.762574 0.182730
C75   C     C_1   0.840781 0.335139 0.726626 0.179964
C76   C     C_R   0.919562 0.281504 0.888755 -0.078767
H7    H     H_    0.850380 0.473272 0.685954 0.228805
H8    H     H_    0.447554 0.888088 0.898742 0.188746
H9    H     H_    0.534402 0.731095 0.612793 0.190539
C77   C     C_R   0.375894 0.757826 0.601829 -0.098830
C78   C     C_R   0.279134 0.798376 0.618678 -0.206386
C79   C     C_R   0.267311 0.833699 0.659704 -0.104466
C80   C     C_R   0.355489 0.825423 0.684614 -0.041957
C81   C     C_R   0.450651 0.793759 0.666966 0.366926
C82   C     C_R   0.459853 0.759917 0.625747 -0.210018
C83   C     C_R   0.415757 0.848032 0.836293 0.365132
C84   C     C_R   0.390585 0.881436 0.876864 -0.243288
C85   C     C_R   0.221451 0.891062 0.861677 -0.224599
C86   C     C_R   0.244690 0.856745 0.821256 0.333119
C87   C     C_R   0.339316 0.842168 0.807839 -0.165477
C88   C     C_1   0.349920 0.835950 0.764682 0.215754
C89   C     C_1   0.353509 0.832704 0.728362 0.188528
C90   C     C_R   0.291754 0.908380 0.889209 -0.170033
H10   H     H_    0.213179 0.799517 0.600102 0.158939
H11   H     H_    0.146271 0.907700 0.871219 0.206259
O14   O     O_R   0.170070 0.978950 0.027680 -0.537676
O15   O     O_R   0.001760 0.175230 0.026640 -0.561679
C91   C     C_R   0.960012 0.265211 0.044809 0.818600
O16   O     O_R   0.984760 0.333570 0.037150 -0.494379
O17   O     O_R   0.183410 0.309240 0.041890 -0.485226
C92   C     C_R   0.274445 0.261856 0.059492 0.837274
O18   O     O_R   0.340240 0.172500 0.045430 -0.565513
O19   O     O_R   0.309670 0.000990 0.032050 -0.529892
C93   C     C_R   0.261634 0.955882 0.043178 0.838734
O20   O     O_R   0.168330 0.982130 0.939200 -0.530362
O21   O     O_R   0.000140 0.178170 0.944610 -0.526761
C94   C     C_R   0.961779 0.268006 0.931098 0.734116
O22   O     O_R   0.983010 0.336750 0.948660 -0.545397
O23   O     O_R   0.181800 0.312190 0.959860 -0.509327
C95   C     C_R   0.249326 0.233327 0.938141 0.801508
O24   O     O_R   0.338500 0.175680 0.956950 -0.551942
O25   O     O_R   0.308050 0.003930 0.950020 -0.556054
C96   C     C_R   0.256701 0.963848 0.929037 0.818050
Cr4   Cr    Cr6+3 0.087320 0.083240 0.984860 0.993120
Cr5   Cr    Cr6+3 0.087720 0.316210 0.996740 1.074552
Cr6   Cr    Cr6+3 0.317350 0.090340 0.995890 0.978172
O26   O     O_3   0.164130 0.163270 0.992500 -0.378646
C97   C     C_2   0.491864 0.196609 0.098297 0.542212
H12   H     H_    0.485854 0.199900 0.065571 0.068010
O27   O     O_2   0.579441 0.157138 0.114947 -0.449123
C98   C     C_2   0.833106 0.185841 0.417928 0.538328
H13   H     H_    0.837682 0.113131 0.405026 0.134270
O28   O     O_2   0.859728 0.192023 0.453846 -0.522429
C99   C     C_2   0.810713 0.480726 0.075233 0.520489
H14   H     H_    0.811735 0.548405 0.091141 0.106100
O29   O     O_2   0.783788 0.484069 0.039021 -0.500584
N13   N     N_R   0.859922 0.150260 0.331838 0.103290
O30   O     O_R   0.809959 0.123716 0.302308 -0.313491
O31   O     O_R   0.952900 0.081955 0.344615 -0.343846
C100  C     C_2   0.764538 0.504255 0.159570 0.529961
H15   H     H_    0.706961 0.572419 0.144232 0.056831
O32   O     O_2   0.795920 0.515464 0.194371 -0.448067
C101  C     C_2   0.920473 0.100339 0.073419 0.583807
H16   H     H_    0.001666 0.048746 0.068012 0.031857
O33   O     O_2   0.855564 0.072321 0.062061 -0.464174
N14   N     N_R   0.853151 0.131284 0.152730 0.153432
O34   O     O_R   0.936891 0.041471 0.154027 -0.302588
O35   O     O_R   0.770844 0.144992 0.169574 -0.297224
C102  C     C_2   0.173169 0.816388 0.404660 0.562368
H17   H     H_    0.115214 0.800408 0.387289 0.069146
O36   O     O_2   0.154468 0.856237 0.439070 -0.484576
N15   N     N_R   0.524665 0.786320 0.425786 0.153447
O37   O     O_R   0.620919 0.736857 0.415669 -0.320955
O38   O     O_R   0.503389 0.838164 0.460856 -0.325870
C103  C     C_2   0.165634 0.833665 0.071388 0.553561
H18   H     H_    0.094715 0.848934 0.084692 0.121380
O39   O     O_2   0.179782 0.796751 0.036438 -0.479259
C104  C     C_2   0.495251 0.179481 0.189046 0.657026
H19   H     H_    0.520391 0.206087 0.217678 0.039639
O40   O     O_2   0.541453 0.087380 0.178260 -0.463410
C105  C     C_2   0.174334 0.829699 0.317645 0.589678
H20   H     H_    0.131861 0.788105 0.321036 0.033136
O41   O     O_2   0.142887 0.891817 0.291219 -0.425807
N16   N     N_R   0.516656 0.825908 0.342998 0.150450
O42   O     O_R   0.534364 0.900198 0.359795 -0.275673
O43   O     O_R   0.572553 0.766001 0.313581 -0.345583
N17   N     N_R   0.195454 0.806468 0.156236 0.118214
O44   O     O_R   0.192360 0.720795 0.144716 -0.307992
O45   O     O_R   0.139892 0.866078 0.185775 -0.270315
C106  C     C_2   0.478585 0.890904 0.080556 0.556448
H21   H     H_    0.514452 0.935357 0.096169 0.095704
O46   O     O_2   0.505630 0.849797 0.046870 -0.489598
C107  C     C_2   0.518517 0.837877 0.165618 0.459348
H22   H     H_    0.519821 0.856198 0.198104 0.126407
O47   O     O_2   0.601042 0.799869 0.149343 -0.490749
N18   N     N_R   0.123165 0.492688 0.640877 0.121474
O48   O     O_R   0.081822 0.589002 0.631709 -0.323381
O49   O     O_R   0.065601 0.462387 0.656701 -0.346824
C108  C     C_2   0.466080 0.162517 0.659444 0.571297
H23   H     H_    0.527815 0.098388 0.643051 0.086875
O50   O     O_2   0.464422 0.157154 0.695813 -0.435420
C109  C     C_2   0.467993 0.148092 0.307798 0.506617
H24   H     H_    0.544442 0.093851 0.320311 0.160048
O51   O     O_2   0.434953 0.121306 0.276003 -0.504069
C110  C     C_2   0.039522 0.421982 0.818264 0.465135
H25   H     H_    0.979907 0.471093 0.839125 0.091370
O52   O     O_2   0.018364 0.433692 0.781915 -0.491448
C111  C     C_2   0.433806 0.103857 0.886185 0.612875
H26   H     H_    0.436033 0.050389 0.906714 0.040260
O53   O     O_2   0.516290 0.095619 0.877312 -0.431536
N19   N     N_R   0.407825 0.141612 0.802393 0.160413
O54   O     O_R   0.455688 0.183812 0.787262 -0.278478
O55   O     O_R   0.437252 0.043470 0.794280 -0.297779
C112  C     C_2   0.039540 0.136643 0.791669 0.544121
H27   H     H_    0.108618 0.072747 0.804928 0.030402
O56   O     O_2   0.027802 0.137538 0.754684 -0.469009
N20   N     N_R   0.815808 0.178818 0.676549 0.154318
O57   O     O_R   0.758315 0.189334 0.705833 -0.316875
O58   O     O_R   0.887047 0.086561 0.664923 -0.310502
C113  C     C_2   0.766122 0.201398 0.590508 0.554481
H28   H     H_    0.793477 0.181732 0.560030 0.067501
O59   O     O_2   0.721910 0.157750 0.602164 -0.486210
C114  C     C_2   0.825794 0.513630 0.607584 0.596021
H29   H     H_    0.840104 0.506803 0.575686 0.046462
O60   O     O_2   0.828179 0.585223 0.628980 -0.434049
C115  C     C_2   0.714567 0.483055 0.819318 0.547640
H30   H     H_    0.645087 0.517074 0.836320 0.091220
O61   O     O_2   0.712705 0.524392 0.788951 -0.472023
C116  C     C_2   0.772037 0.455666 0.907296 0.432739
H31   H     H_    0.766119 0.432950 0.936628 0.088628
O62   O     O_2   0.731428 0.548051 0.901592 -0.485849
N21   N     N_R   0.510299 0.179169 0.392268 0.110003
O63   O     O_R   0.606235 0.154065 0.386466 -0.372040
O64   O     O_R   0.491556 0.132598 0.419009 -0.304009
N22   N     N_R   0.517870 0.821878 0.824533 0.179858
O65   O     O_R   0.575571 0.854682 0.847074 -0.290315
O66   O     O_R   0.558744 0.755516 0.794059 -0.288527
N23   N     N_R   0.539334 0.792245 0.690754 0.147582
O67   O     O_R   0.633591 0.725783 0.681105 -0.303956
O68   O     O_R   0.526497 0.864638 0.719143 -0.265618
N24   N     N_R   0.170207 0.840161 0.793946 0.147506
O69   O     O_R   0.071167 0.891813 0.800113 -0.313407
O70   O     O_R   0.201909 0.764368 0.766038 -0.329927
C117  C     C_2   0.162117 0.875700 0.675179 0.596979
H32   H     H_    0.102894 0.862192 0.657295 0.093527
O71   O     O_2   0.138792 0.928813 0.707017 -0.452004
C118  C     C_2   0.187586 0.517263 0.399720 0.442034
H33   H     H_    0.175416 0.499880 0.429097 0.080392
O72   O     O_2   0.135965 0.605815 0.389034 -0.545822
N25   N     N_R   0.139323 0.479161 0.185591 0.176789
O73   O     O_R   0.056771 0.471219 0.190657 -0.279002
O74   O     O_R   0.152853 0.552867 0.205684 -0.301529
N26   N     N_R   0.122472 0.458476 0.099788 0.154172
O75   O     O_R   0.030261 0.475106 0.107329 -0.337054
O76   O     O_R   0.131448 0.510004 0.072248 -0.315223
C119  C     C_2   0.155676 0.502996 0.310137 0.557534
H34   H     H_    0.131598 0.584778 0.316426 0.096192
O77   O     O_2   0.103897 0.477862 0.284804 -0.448719

loop_
_geom_bond_atom_site_label_1
_geom_bond_atom_site_label_2
_geom_bond_distance
_ccdc_geom_bond_type
C106  O46   1.221315 D    
C57   C58   1.398951 A    
C67   C68   1.412688 A    
C54   H4    1.084119 S    
C57   C61   1.411686 A    
C98   O28   1.221085 D    
C23   C24   1.392832 A    
C83   C84   1.406567 A    
C31   C101  1.479838 S    
N22   O65   1.301546 A    
Cr4   O26   1.971004 S    
N19   O54   1.300844 A    
C113  H28   1.085274 S    
O21   Cr4   1.916006 S    
C63   C64   1.424285 A    
C105  H20   1.083695 S    
C68   C113  1.487195 S    
C118  H33   1.085467 S    
C53   C108  1.487808 S    
O4    Cr2   1.917897 S    
C5    C49   1.477774 S    
C49   C50   1.400946 A    
N21   O63   1.301425 A    
C4    O9    1.270297 A    
C48   C93   1.504190 S    
O8    Cr1   1.913138 S    
C10   C11   1.410125 A    
C30   C34   1.422401 A    
C32   C33   1.404549 A    
N11   N12   1.331906 A    
O22   Cr5   2.030375 S    
Cr3   O13   1.970821 S    
C100  H15   1.084768 S    
N1    N2    1.328655 A    
O7    C6    1.275789 A    
C18   C19   1.202115 T    
C66   C75   1.428144 S    
N19   O55   1.300420 A    
O4    C2    1.281331 A    
C52   C53   1.423651 A    
C109  O51   1.221033 D    
C44   C103  1.485862 S    
C118  O72   1.219360 D    
C72   C73   1.422724 A    
C2    C7    1.501816 S    
C50   H3    1.083078 S    
C67   N20   1.437307 S    
O23   C95   1.309587 A    
C13   C17   1.411478 A    
C3    C21   1.472128 S    
C31   C32   1.402743 A    
C74   C75   1.197628 T    
C1    O3    1.271746 A    
N16   O43   1.301234 A    
N26   O75   1.300228 A    
C85   C90   1.402631 A    
C107  O47   1.220860 D    
C81   C82   1.401869 A    
C29   C100  1.488962 S    
C52   C56   1.471683 S    
C69   C70   1.388744 A    
C46   C107  1.496036 S    
O25   Cr6   1.916227 S    
C9    C119  1.488261 S    
C14   C97   1.498475 S    
N9    C55   1.355303 A    
C104  O40   1.221167 D    
C114  H29   1.084502 S    
C91   O16   1.279398 A    
C44   C48   1.420807 A    
N23   O68   1.301290 A    
C73   C74   1.434181 S    
C8    C9    1.418420 A    
C43   C47   1.409867 A    
C41   C47   1.473744 S    
C6    C63   1.496537 S    
C40   N15   1.438192 S    
C92   O18   1.273897 A    
C80   C89   1.444985 S    
C85   H11   1.082931 S    
N2    C28   1.358045 A    
C63   C68   1.428817 A    
O19   C93   1.277769 A    
C27   C33   1.464875 S    
C22   H1    1.081578 S    
N15   O38   1.301421 A    
C106  H21   1.085463 S    
C58   H5    1.083197 S    
C35   C36   1.421412 A    
C8    C118  1.489972 S    
H9    C82   1.083211 S    
N24   O69   1.301591 A    
C103  O39   1.221208 D    
C99   O29   1.221381 D    
C36   C102  1.490451 S    
C57   C110  1.488341 S    
C43   N17   1.437666 S    
C83   N22   1.441766 S    
C37   C38   1.414807 A    
O24   Cr6   2.035358 S    
N5    C41   1.356389 A    
C60   N19   1.435858 S    
N13   O31   1.301181 A    
C117  O71   1.220233 D    
C77   C78   1.400929 A    
C59   C111  1.485411 S    
C4    C77   1.478969 S    
C15   C20   1.418640 A    
C102  O36   1.221419 D    
C55   C61   1.469122 S    
C17   C18   1.442034 S    
C110  H25   1.085876 S    
O20   Cr4   2.030684 S    
O1    Cr1   2.030469 S    
C13   C104  1.487327 S    
O25   C96   1.277850 A    
O14   Cr4   2.033881 S    
N17   O44   1.301200 A    
C79   C117  1.485307 S    
C86   C87   1.411811 A    
Cr1   O13   1.971000 S    
O16   Cr5   2.030695 S    
O21   C94   1.272950 A    
C101  O33   1.220612 D    
C32   N14   1.441674 S    
C101  H16   1.082082 S    
C86   N24   1.440388 S    
C109  H24   1.083142 S    
O6    C3    1.276127 A    
C45   C106  1.485898 S    
C24   C28   1.460785 S    
C25   N13   1.436391 S    
C9    C10   1.411741 A    
N3    N4    1.328788 A    
O17   Cr5   1.915021 S    
N22   O66   1.300880 A    
C115  H30   1.084826 S    
C53   C54   1.400077 A    
C78   H10   1.084151 S    
C39   C40   1.408425 A    
C113  O59   1.221111 D    
N16   O42   1.301150 A    
N26   O76   1.301238 A    
C76   C94   1.465362 S    
N9    N10   1.329929 A    
N17   O45   1.301088 A    
C23   H2    1.084334 S    
C13   C14   1.421537 A    
O10   Cr2   1.918168 S    
N20   O57   1.301133 A    
C108  O50   1.219621 D    
N25   O74   1.300838 A    
C65   C66   1.389169 A    
O7    Cr1   2.031146 S    
C7    C8    1.422884 A    
N7    C42   1.355874 A    
C65   H7    1.085028 S    
C38   C39   1.408093 A    
C37   C105  1.491559 S    
O12   C6    1.280365 A    
C35   C40   1.417556 A    
O1    C3    1.268598 A    
O15   Cr4   1.914252 S    
C15   N26   1.435659 S    
C58   C62   1.407987 A    
C7    C12   1.421892 A    
N12   C55   1.357978 A    
C59   C62   1.424255 A    
C115  O61   1.220825 D    
C104  H19   1.085425 S    
C116  O62   1.220908 D    
C21   C26   1.420752 A    
C12   N21   1.434809 S    
O20   C96   1.265908 A    
C119  O77   1.220941 D    
N15   O37   1.301006 A    
C114  O60   1.221383 D    
C97   O27   1.219836 D    
C39   N16   1.436268 S    
N24   O70   1.301425 A    
C25   C26   1.418250 A    
C99   H14   1.084527 S    
C29   C30   1.413747 A    
C112  H27   1.084790 S    
O19   Cr6   1.919076 S    
N1    C27   1.353876 A    
C24   C25   1.414178 A    
C60   C61   1.410342 A    
O15   C91   1.274215 A    
O14   C93   1.277649 A    
C20   C92   1.495902 S    
N10   C56   1.356623 A    
C21   C22   1.402000 A    
C117  H32   1.085733 S    
C81   N23   1.439590 S    
C64   C114  1.486451 S    
C116  H31   1.085485 S    
N3    C28   1.354023 A    
N6    C42   1.356578 A    
C30   C99   1.489622 S    
H6    C70   1.085670 S    
N4    C27   1.357423 A    
C22   C23   1.377102 A    
C51   N18   1.441638 S    
O9    Cr2   2.032949 S    
N23   O67   1.301440 A    
O2    Cr1   1.915870 S    
C50   C51   1.401769 A    
C26   C98   1.486752 S    
C71   C116  1.490419 S    
C15   C16   1.402966 A    
C77   C82   1.403782 A    
Cr2   O13   1.964171 S    
C46   C47   1.412949 A    
O6    Cr3   1.915011 S    
C45   C48   1.427317 A    
O18   Cr6   2.033763 S    
O8    C4    1.271626 A    
O11   Cr3   2.031820 S    
C84   C90   1.400858 A    
C2    O5    1.272378 A    
C38   C42   1.469151 S    
C103  H18   1.085154 S    
C34   C91   1.494851 S    
C71   C72   1.420892 A    
O17   C92   1.276779 A    
C71   C76   1.411119 A    
C14   C20   1.421698 A    
C112  O56   1.220094 D    
C95   O24   1.298256 A    
C11   C109  1.495112 S    
C16   C17   1.401583 A    
C31   C34   1.423885 A    
N25   O73   1.300786 A    
Cr5   O26   1.970676 S    
O2    C1    1.279213 A    
C59   C60   1.412680 A    
H8    C84   1.081435 S    
N20   O58   1.301151 A    
N13   O30   1.301172 A    
C94   O22   1.267096 A    
C119  H34   1.083006 S    
C70   C76   1.397447 A    
N5    N6    1.330215 A    
C88   C89   1.205366 T    
N14   O35   1.301401 A    
C49   C54   1.399371 A    
N18   O48   1.301581 A    
C29   C33   1.415180 A    
O5    Cr3   2.032637 S    
C100  O32   1.220918 D    
C66   C67   1.401871 A    
C110  O52   1.220526 D    
N21   O64   1.300952 A    
C79   C80   1.418316 A    
N8    C41   1.357908 A    
C107  H22   1.082818 S    
N7    N8    1.331006 A    
C43   C44   1.408035 A    
C62   C95   1.494410 S    
O12   Cr3   1.914430 S    
C105  O41   1.221179 D    
C83   C87   1.416497 A    
C111  O53   1.221087 D    
C69   C112  1.492545 S    
C102  H17   1.082092 S    
C51   C52   1.417713 A    
O3    Cr2   2.035488 S    
C72   C115  1.491760 S    
C10   C19   1.443984 S    
O23   Cr5   1.914399 S    
N11   C56   1.357433 A    
C45   C46   1.418816 A    
C111  H26   1.080194 S    
N18   O49   1.301503 A    
C64   C65   1.397061 A    
N14   O34   1.301148 A    
C16   N25   1.433842 S    
C98   H13   1.084751 S    
O10   C5    1.273239 A    
C36   C37   1.414143 A    
C69   C73   1.414045 A    
C97   H12   1.083044 S    
C108  H23   1.085879 S    
C78   C79   1.401829 A    
C85   C86   1.398445 A    
C80   C81   1.412532 A    
C87   C88   1.443720 S    
C5    O11   1.269674 A    
C90   C96   1.479206 S    
Cr6   O26   1.964053 S    
C11   C12   1.408407 A    
C1    C35   1.497385 S    
