data_mof_unit_56339.cif
_audit_creation_date              2012-12-10T17:28:36-0500
_audit_creation_method            fapswitch 2.2
_symmetry_space_group_name_H-M    P1
_symmetry_Int_Tables_number       1
_space_group_crystal_system       triclinic
_cell_length_a                    10.646799
_cell_length_b                    12.085202
_cell_length_c                    12.859624
_cell_angle_alpha                 93.859013
_cell_angle_beta                  91.415657
_cell_angle_gamma                 87.110016
_cell_volume                      1648.40297433

loop_
_atom_site_label
_atom_site_type_symbol
_atom_type_description
_atom_site_fract_x
_atom_site_fract_y
_atom_site_fract_z
_atom_type_partial_charge
C1    C     C_R   0.496622 0.521941 0.700314 0.850830
C2    C     C_R   0.460506 0.555344 0.132480 -0.287074
C3    C     C_R   0.508923 0.446661 0.974005 0.183175
C4    C     C_R   0.465544 0.547592 0.025597 0.186837
C5    C     C_R   0.389725 0.948021 0.391790 -0.110326
C6    C     C_R   0.643638 0.047942 0.574283 -0.115831
C7    C     C_R   0.399778 0.833552 0.405861 -0.093765
C8    C     C_R   0.623531 0.163468 0.571412 -0.107853
C9    C     C_R   0.552096 0.861039 0.541848 0.345133
C10   C     C_R   0.441728 0.140244 0.462896 0.326689
C11   C     C_R   0.554098 0.976392 0.524979 -0.048464
C12   C     C_R   0.499950 0.477674 0.299775 0.850557
C13   C     C_R   0.461019 0.022206 0.458399 -0.057274
C14   C     C_R   0.738924 0.500777 0.500562 0.869087
C15   C     C_R   0.261124 0.499195 0.498999 0.872381
C16   C     C_R   0.879074 0.445658 0.683056 -0.177658
C17   C     C_R   0.121159 0.558549 0.317915 -0.239855
C18   C     C_R   0.948993 0.417317 0.771868 0.279160
C19   C     C_R   0.051594 0.589983 0.229897 0.296017
C20   C     C_R   0.079752 0.420059 0.771437 -0.212132
C21   C     C_R   0.920620 0.588732 0.230730 -0.135123
C22   C     C_R   0.139832 0.446931 0.682339 -0.198740
C23   C     C_R   0.497455 0.463612 0.188250 -0.058742
C24   C     C_R   0.860458 0.557719 0.318393 -0.201715
C25   C     C_R   0.070283 0.471651 0.590540 0.069494
C26   C     C_R   0.929879 0.529912 0.409371 0.080512
C27   C     C_R   0.939232 0.472444 0.591226 0.020560
C28   C     C_R   0.060907 0.529029 0.408738 0.042956
C29   C     C_R   0.128688 0.498482 0.498949 -0.160803
C30   C     C_R   0.871421 0.501776 0.500597 -0.154426
C31   C     C_2   0.316145 0.983170 0.299233 0.937532
C32   C     C_2   0.766268 0.005986 0.617385 0.952271
C33   C     C_3   0.831584 0.280852 0.850486 -0.719749
C34   C     C_R   0.487588 0.533566 0.811806 -0.049792
C35   C     C_3   0.095843 0.564779 0.045027 -0.800736
C36   C     C_3   0.217932 0.184672 0.471005 -0.716510
C37   C     C_3   0.562156 0.855180 0.729009 -0.779930
C38   C     C_R   0.429175 0.639507 0.969659 -0.222234
C39   C     C_R   0.540676 0.353376 0.029572 -0.219718
C40   C     C_R   0.438501 0.631778 0.862269 -0.211894
C41   C     C_R   0.534826 0.361810 0.137166 -0.183081
C42   C     C_R   0.521022 0.440908 0.867655 -0.260524
H1    H     H_    0.864478 0.613425 0.164087 0.153360
H2    H     H_    0.404867 0.701039 0.818975 0.165927
H3    H     H_    0.392778 0.716358 0.008685 0.155740
H4    H     H_    0.571235 0.274942 0.990149 0.146861
H5    H     H_    0.691088 0.218786 0.607560 0.168568
H6    H     H_    0.347419 0.776211 0.355351 0.163989
H7    H     H_    0.307352 0.074187 0.173096 0.342510
H8    H     H_    0.913482 0.894449 0.603413 0.347223
H9    H     H_    0.940671 0.396239 0.929901 0.221440
H10   H     H_    0.783625 0.265323 0.923315 0.230477
H11   H     H_    0.905768 0.214042 0.835507 0.274573
H12   H     H_    0.135504 0.400305 0.839929 0.144276
H13   H     H_    0.761125 0.278637 0.785482 0.243291
H14   H     H_    0.205664 0.647807 0.157727 0.224783
H15   H     H_    0.148969 0.601167 0.983506 0.252916
H16   H     H_    0.995072 0.567421 0.020884 0.243901
H17   H     H_    0.131127 0.477351 0.051704 0.234743
H18   H     H_    0.345046 0.259956 0.378022 0.279403
H19   H     H_    0.227509 0.228047 0.549512 0.251829
H20   H     H_    0.194668 0.097440 0.480445 0.240987
H21   H     H_    0.139158 0.225616 0.427506 0.242796
H22   H     H_    0.647236 0.737794 0.623561 0.286584
H23   H     H_    0.777713 0.447357 0.687592 0.142602
H24   H     H_    0.609820 0.809502 0.792165 0.248599
H25   H     H_    0.460283 0.839653 0.726569 0.234110
H26   H     H_    0.573076 0.945225 0.747299 0.245772
H27   H     H_    0.222502 0.557764 0.314005 0.133265
H28   H     H_    0.241157 0.448333 0.686791 0.159150
H29   H     H_    0.759057 0.556983 0.313913 0.161839
H30   H     H_    0.430000 0.633782 0.172166 0.154116
H31   H     H_    0.556123 0.363668 0.828554 0.163795
H32   H     H_    0.562426 0.290155 0.180218 0.184944
N1    N     N_R   0.523130 0.207800 0.519340 -0.134406
N2    N     N_R   0.476870 0.792200 0.480660 -0.138942
N3    N     N_2   0.887295 0.387708 0.862121 -0.329126
N4    N     N_2   0.113494 0.628383 0.143165 -0.287252
N5    N     N_2   0.333130 0.188024 0.413860 -0.290156
N6    N     N_2   0.617697 0.819749 0.629898 -0.284035
O1    O     O_R   0.506170 0.421700 0.658830 -0.632082
O2    O     O_R   0.365710 0.057486 0.234150 -0.802986
O3    O     O_2   0.813196 0.053610 0.694609 -0.665543
O4    O     O_R   0.830636 0.914572 0.567152 -0.778597
O5    O     O_R   0.493830 0.578300 0.341170 -0.633092
O6    O     O_R   0.491330 0.609310 0.646410 -0.629174
O7    O     O_R   0.508670 0.390690 0.353590 -0.631421
O8    O     O_R   0.690650 0.406190 0.506220 -0.618652
O9    O     O_R   0.309350 0.593810 0.493780 -0.609069
O10   O     O_R   0.675800 0.593810 0.493800 -0.627261
O11   O     O_R   0.324200 0.406190 0.506200 -0.635611
O12   O     O_2   0.214623 0.943506 0.277349 -0.628832
Zn1   Zn    Zn3+2 0.509910 0.374730 0.508290 0.931277
Zn2   Zn    Zn3+2 0.490090 0.625270 0.491710 0.941347

loop_
_geom_bond_atom_site_label_1
_geom_bond_atom_site_label_2
_ccdc_geom_bond_type
C33   H13   S    
C6    C32   S    
C3    C42   A    
C17   H27   S    
C34   C42   A    
H8    O4    S    
C39   C41   A    
C33   H10   S    
C12   C23   S    
C31   O2    S    
C12   O5    A    
C35   H16   S    
C34   C40   A    
C28   C29   A    
C19   C21   A    
C24   C26   A    
C36   H20   S    
O11   Zn1   S    
C1    O1    A    
C37   H26   S    
O7    Zn1   S    
H14   N4    S    
C35   H17   S    
C10   N1    A    
O9    Zn2   S    
C14   O10   A    
C38   H3    S    
O6    Zn2   S    
N2    Zn2   S    
C41   H32   S    
C21   H1    S    
C22   C25   A    
C15   C29   S    
C9    N2    A    
C36   H21   S    
C5    C13   A    
C16   C27   A    
C3    C39   A    
C27   C30   A    
C25   C29   A    
H22   N6    S    
C14   C30   S    
C2    H30   S    
C1    C34   S    
O10   Zn2   S    
C33   H11   S    
C32   O4    S    
C37   N6    S    
C20   H12   S    
C6    C11   A    
C5    C7    A    
C6    C8    A    
C36   N5    S    
C8    N1    A    
C9    N6    S    
H7    O2    S    
C19   N4    S    
C2    C4    A    
H9    N3    S    
C15   O9    A    
O1    Zn1   S    
O5    Zn2   S    
C37   H24   S    
C9    C11   A    
C39   H4    S    
C20   C22   A    
C26   C30   A    
C36   H19   S    
N1    Zn1   S    
C1    O6    A    
C32   O3    D    
O8    Zn1   S    
C42   H31   S    
C12   O7    A    
C17   C28   A    
C4    C38   A    
C10   C13   A    
C10   N5    S    
C7    N2    A    
C25   C27   A    
C35   N4    S    
C26   C28   A    
C23   C41   A    
C35   H15   S    
C7    H6    S    
C8    H5    S    
C14   O8    A    
C38   C40   A    
C11   C13   A    
C33   N3    S    
C18   N3    S    
C37   H25   S    
C17   C19   A    
C18   C20   A    
C15   O11   A    
C40   H2    S    
C24   H29   S    
C16   C18   A    
C31   O12   D    
C21   C24   A    
C2    C23   A    
C16   H23   S    
C22   H28   S    
C3    C4    A    
H18   N5    S    
C5    C31   S    
