data_mof_unit_37502.cif
_audit_creation_date              2012-12-10T19:13:01-0500
_audit_creation_method            fapswitch 2.2
_symmetry_space_group_name_H-M    P1
_symmetry_Int_Tables_number       1
_space_group_crystal_system       triclinic
_cell_length_a                    8.787902
_cell_length_b                    15.996384
_cell_length_c                    14.779254
_cell_angle_alpha                 90.482308
_cell_angle_beta                  97.765042
_cell_angle_gamma                 89.786663
_cell_volume                      2058.45805544

loop_
_atom_site_label
_atom_site_type_symbol
_atom_type_description
_atom_site_fract_x
_atom_site_fract_y
_atom_site_fract_z
_atom_type_partial_charge
C1    C     C_R   0.500142 0.340944 0.499686 0.796423
C2    C     C_R   0.499858 0.659055 0.500313 0.796395
C3    C     C_R   0.499572 0.499946 0.902806 -0.155705
C4    C     C_R   0.500429 0.500058 0.097194 -0.155714
C5    C     C_R   0.508882 0.424090 0.952052 0.166732
C6    C     C_R   0.491117 0.575915 0.047949 0.166713
C7    C     C_1   0.499708 0.499964 0.802533 0.143233
C8    C     C_1   0.500292 0.500039 0.197467 0.143198
C9    C     C_R   0.203822 0.501477 0.477196 0.797833
C10   C     C_R   0.796178 0.498520 0.522805 0.797774
C11   C     C_2   0.039498 0.509641 0.465240 0.135899
C12   C     C_2   0.960504 0.490358 0.534762 0.135895
C13   C     C_R   0.510186 0.956708 0.583188 0.331806
C14   C     C_R   0.490156 0.043290 0.416787 0.331700
C15   C     C_R   0.502297 0.912590 0.499903 -0.227466
C16   C     C_R   0.497985 0.087406 0.500071 -0.227522
C17   C     C_R   0.492834 0.955603 0.416513 0.318360
C18   C     C_R   0.507446 0.044393 0.583458 0.318271
C19   C     C_1   0.501141 0.822959 0.500489 0.085423
C20   C     C_1   0.499014 0.177039 0.499499 0.085101
C21   C     C_1   0.499748 0.251999 0.499164 -0.194308
C22   C     C_1   0.500320 0.748000 0.500836 -0.194748
C23   C     C_R   0.490564 0.575836 0.951960 0.169263
C24   C     C_R   0.509427 0.424168 0.048040 0.169295
Cu1   Cu    Cu3+1 0.500040 0.500000 0.589220 0.983689
Cu2   Cu    Cu3+1 0.499960 0.500000 0.410780 0.983772
N1    N     N_1   0.500050 0.499980 0.276720 -0.149729
N2    N     N_1   0.499950 0.500020 0.723280 -0.149735
O1    O     O_R   0.500070 0.380310 0.575330 -0.582952
O2    O     O_R   0.499930 0.619690 0.424670 -0.582943
O3    O     O_R   0.500000 0.380310 0.424640 -0.572432
O4    O     O_R   0.500000 0.619690 0.575360 -0.572647
O5    O     O_R   0.274870 0.500000 0.557960 -0.541109
O6    O     O_R   0.725130 0.500000 0.442040 -0.541114
O7    O     O_R   0.274790 0.500000 0.407270 -0.562894
O8    O     O_R   0.725210 0.500000 0.592730 -0.562898
O9    O     O_3   0.966505 0.535587 0.380898 -0.559730
C25   C     C_3   0.976775 0.623548 0.376435 0.095990
H1    H     H_    0.096654 0.642675 0.370432 0.145633
H2    H     H_    0.939107 0.654478 0.437671 0.109081
C26   C     C_3   0.872272 0.654139 0.292738 -0.759453
H3    H     H_    0.751155 0.637959 0.298434 0.252899
H4    H     H_    0.881837 0.723066 0.287583 0.184404
H5    H     H_    0.905728 0.624683 0.229997 0.251086
O10   O     O_3   0.033501 0.464413 0.619104 -0.559725
C27   C     C_3   0.023173 0.376456 0.623588 0.095932
H6    H     H_    0.060725 0.345502 0.562332 0.109035
H7    H     H_    0.903301 0.357361 0.629655 0.145692
C28   C     C_3   0.127758 0.345855 0.707248 -0.759385
H8    H     H_    0.094433 0.375340 0.770008 0.251067
H9    H     H_    0.118128 0.276934 0.712427 0.184438
H10   H     H_    0.248870 0.361991 0.701484 0.252946
O11   O     O_3   0.526192 0.086805 0.666328 -0.530548
C29   C     C_3   0.383470 0.119918 0.683978 0.072533
H11   H     H_    0.285156 0.077344 0.661353 0.105572
H12   H     H_    0.361074 0.180887 0.649277 0.153352
C30   C     C_3   0.389639 0.134929 0.786168 -0.748765
H13   H     H_    0.483514 0.179312 0.810413 0.260643
H14   H     H_    0.278962 0.161735 0.801173 0.196021
H15   H     H_    0.410771 0.075037 0.823292 0.253116
O12   O     O_3   0.473945 0.913205 0.333629 -0.530499
C31   C     C_3   0.616482 0.879813 0.316008 0.072473
H16   H     H_    0.638043 0.818603 0.350308 0.153593
H17   H     H_    0.715199 0.921989 0.339084 0.105539
C32   C     C_3   0.610666 0.865333 0.213753 -0.748795
H18   H     H_    0.590317 0.925466 0.177014 0.253084
H19   H     H_    0.721188 0.838315 0.198764 0.196031
H20   H     H_    0.516427 0.821314 0.189054 0.260769
O13   O     O_3   0.532480 0.914242 0.665155 -0.527463
C33   C     C_3   0.388674 0.889792 0.688852 0.091462
H21   H     H_    0.307746 0.866927 0.629138 0.120377
H22   H     H_    0.334664 0.943079 0.721165 0.153032
C34   C     C_3   0.413197 0.819225 0.757567 -0.754174
H23   H     H_    0.490537 0.840038 0.819279 0.263176
H24   H     H_    0.301317 0.800358 0.778018 0.201455
H25   H     H_    0.465344 0.764436 0.726617 0.249649
O14   O     O_3   0.467878 0.085747 0.334815 -0.527337
C35   C     C_3   0.611720 0.110167 0.311163 0.091051
H26   H     H_    0.666697 0.056601 0.279923 0.152388
H27   H     H_    0.691816 0.133992 0.370748 0.120941
C36   C     C_3   0.587047 0.179770 0.241284 -0.752871
H28   H     H_    0.533817 0.234787 0.271141 0.249376
H29   H     H_    0.699000 0.198688 0.220974 0.201351
H30   H     H_    0.510586 0.157956 0.179664 0.262957
N3    N     N_3   0.482162 0.654466 0.094439 -0.550791
H31   H     H_    0.579590 0.660500 0.143100 0.213338
H32   H     H_    0.385426 0.653762 0.128563 0.220833
N4    N     N_3   0.517829 0.345539 0.905562 -0.550794
H33   H     H_    0.420402 0.339511 0.856900 0.213305
H34   H     H_    0.614568 0.346240 0.871439 0.220797
N5    N     N_3   0.480312 0.654270 0.905295 -0.548168
H35   H     H_    0.576719 0.660325 0.871456 0.221837
H36   H     H_    0.382565 0.653179 0.856373 0.221892
N6    N     N_3   0.519642 0.345731 0.094700 -0.548030
H37   H     H_    0.423223 0.339687 0.128530 0.221739
H38   H     H_    0.617384 0.346805 0.143627 0.221784

loop_
_geom_bond_atom_site_label_1
_geom_bond_atom_site_label_2
_ccdc_geom_bond_type
C1    C21   S    
C34   H24   S    
C26   H3    S    
C3    C23   A    
C4    C8    S    
C28   H8    S    
C36   H28   S    
O14   C35   S    
Cu1   N2    S    
C15   C19   S    
C27   C28   S    
Cu2   N1    S    
O9    C25   S    
C6    N3    S    
C13   C18   A    
C3    C7    S    
N3    H31   S    
C25   H1    S    
C4    C24   A    
C35   H27   S    
C30   H14   S    
C1    O3    A    
C2    O4    A    
C34   H23   S    
C14   O14   S    
C11   O9    S    
C31   H17   S    
C18   O11   S    
C17   O12   S    
C27   H6    S    
C5    N4    S    
Cu2   O6    S    
C28   H9    S    
C2    C22   S    
C33   H21   S    
O12   C31   S    
C32   H20   S    
Cu1   O4    S    
Cu2   O3    S    
C9    O5    A    
C26   H4    S    
C14   C17   A    
O13   C33   S    
C36   H29   S    
C27   H7    S    
N3    H32   S    
Cu1   O1    S    
C29   H12   S    
C19   C22   T    
C25   C26   S    
C4    C6    A    
N5    H35   S    
C35   H26   S    
C30   H15   S    
C32   H19   S    
Cu1   Cu2   S    
O11   C29   S    
C7    N2    T    
C31   H16   S    
C24   N6    S    
N5    H36   S    
C16   C20   S    
C28   H10   S    
C33   C34   S    
C1    O1    A    
C10   O6    A    
N4    H33   S    
N6    H38   S    
C9    C11   S    
C10   C12   S    
N4    H34   S    
Cu2   O2    S    
C13   C15   A    
C34   H25   S    
C14   C16   A    
C36   H30   S    
C15   C17   A    
C29   H11   S    
C31   C32   S    
C12   O10   S    
C3    C5    A    
C33   H22   S    
C11   C12   D    
C2    O2    A    
C25   H2    S    
C35   C36   S    
C30   H13   S    
C5    C24   A    
C13   O13   S    
C6    C23   A    
C26   H5    S    
C23   N5    S    
N6    H37   S    
Cu1   O8    S    
O10   C27   S    
Cu2   O7    S    
C20   C21   T    
C16   C18   A    
C32   H18   S    
C9    O7    A    
C8    N1    T    
C10   O8    A    
Cu1   O5    S    
C29   C30   S    
