data_mof_unit_54810.cif
_audit_creation_date              2012-12-10T18:42:38-0500
_audit_creation_method            fapswitch 2.2
_symmetry_space_group_name_H-M    P1
_symmetry_Int_Tables_number       1
_space_group_crystal_system       triclinic
_cell_length_a                    10.806434
_cell_length_b                    15.126376
_cell_length_c                    13.859302
_cell_angle_alpha                 89.804756
_cell_angle_beta                  89.904945
_cell_angle_gamma                 90.132639
_cell_volume                      2265.44940096

loop_
_atom_site_label
_atom_site_type_symbol
_atom_type_description
_atom_site_fract_x
_atom_site_fract_y
_atom_site_fract_z
_atom_type_partial_charge
C1    C     C_R   0.497778 0.330358 0.500207 0.761837
C2    C     C_R   0.505041 0.670179 0.499652 0.765811
C3    C     C_R   0.871624 0.496258 0.500081 -0.084249
C4    C     C_R   0.128341 0.504829 0.500103 -0.086408
C5    C     C_R   0.938243 0.454168 0.574681 0.003684
C6    C     C_R   0.061685 0.547357 0.425677 0.007694
C7    C     C_R   0.400192 0.094486 0.542802 -0.123597
C8    C     C_R   0.551777 0.907825 0.420379 -0.142078
C9    C     C_R   0.396223 0.187056 0.543706 -0.014441
C10   C     C_R   0.559695 0.815529 0.419489 -0.028052
C11   C     C_R   0.494889 0.234514 0.500888 -0.108552
C12   C     C_R   0.511014 0.767108 0.498912 -0.127633
C13   C     C_R   0.594398 0.190027 0.458959 -0.190434
C14   C     C_R   0.463402 0.812425 0.578913 -0.186365
C15   C     C_R   0.598493 0.098476 0.460557 -0.152923
C16   C     C_R   0.461111 0.904107 0.580231 -0.156457
C17   C     C_R   0.501019 0.049853 0.501651 0.057147
C18   C     C_R   0.503995 0.952536 0.500629 0.063699
C19   C     C_R   0.609410 0.527751 0.108263 -0.061748
C20   C     C_R   0.481164 0.418629 0.892362 -0.077965
C21   C     C_R   0.602527 0.529219 0.210330 0.095357
C22   C     C_R   0.477841 0.422925 0.790263 0.097917
C23   C     C_R   0.262253 0.502395 0.499984 0.787161
C24   C     C_R   0.737740 0.497926 0.500026 0.790510
C25   C     C_R   0.399614 0.471275 0.208150 0.089610
C26   C     C_R   0.522828 0.575559 0.791877 0.067772
C27   C     C_R   0.399674 0.471574 0.106747 -0.296782
C28   C     C_R   0.523081 0.575595 0.893289 -0.289805
C29   C     C_R   0.505194 0.498699 0.054724 0.007662
C30   C     C_R   0.503561 0.496947 0.945609 0.010267
C31   C     C_R   0.258086 0.721512 0.300398 -0.096429
C32   C     C_R   0.746531 0.277303 0.699131 -0.096221
C33   C     C_R   0.199151 0.672586 0.372951 -0.102785
C34   C     C_R   0.806724 0.326071 0.627094 -0.092568
C35   C     C_R   0.122246 0.600863 0.348936 0.102912
C36   C     C_R   0.877333 0.400883 0.651258 0.125794
C37   C     C_R   0.102951 0.580367 0.251277 -0.133063
C38   C     C_R   0.888245 0.425453 0.748530 -0.123210
C39   C     C_R   0.162014 0.629541 0.178972 -0.108882
C40   C     C_R   0.827735 0.376566 0.820373 -0.137755
C41   C     C_R   0.239991 0.699759 0.203525 -0.097744
C42   C     C_R   0.757030 0.302547 0.795685 -0.104357
C43   C     C_R   0.933423 0.541587 0.426179 -0.231459
C44   C     C_R   0.066404 0.459863 0.574271 -0.226448
Cu1   Cu    Cu3+1 0.500000 0.499990 0.596430 0.945410
Cu2   Cu    Cu3+1 0.500000 0.500010 0.403570 0.944688
H1    H     H_    0.286137 0.737445 0.147482 0.144752
H2    H     H_    0.710235 0.264841 0.851362 0.154488
H3    H     H_    0.678659 0.065846 0.430308 0.140442
H4    H     H_    0.426162 0.937052 0.643901 0.143705
H5    H     H_    0.680902 0.552621 0.251271 0.156268
H6    H     H_    0.459290 0.363376 0.750172 0.170102
H7    H     H_    0.318387 0.447952 0.246095 0.135167
H8    H     H_    0.541072 0.636846 0.754294 0.134392
H9    H     H_    0.317623 0.449692 0.068845 0.150090
H10   H     H_    0.539661 0.637084 0.930995 0.157483
H11   H     H_    0.317890 0.776236 0.319285 0.147217
H12   H     H_    0.691478 0.220114 0.680063 0.147160
H13   H     H_    0.214047 0.690137 0.447752 0.107223
H14   H     H_    0.797875 0.306046 0.552515 0.099144
H15   H     H_    0.043798 0.525530 0.231274 0.150232
H16   H     H_    0.942055 0.483048 0.768443 0.129181
H17   H     H_    0.147951 0.612828 0.103907 0.148416
H18   H     H_    0.835366 0.396179 0.895164 0.128732
H19   H     H_    0.881268 0.575456 0.370416 0.158040
H20   H     H_    0.118264 0.426199 0.630331 0.162595
H21   H     H_    0.323466 0.057003 0.572469 0.170360
H22   H     H_    0.585044 0.945165 0.358720 0.171252
H23   H     H_    0.670353 0.226456 0.426512 0.138930
H24   H     H_    0.426688 0.776832 0.640642 0.153921
N1    N     N_R   0.500000 0.500020 0.258690 -0.193670
N2    N     N_R   0.500000 0.499980 0.741310 -0.190049
O1    O     O_R   0.500010 0.371450 0.581430 -0.602975
O2    O     O_R   0.499990 0.628550 0.418570 -0.588951
O3    O     O_R   0.500010 0.371460 0.418560 -0.566349
O4    O     O_R   0.499990 0.628540 0.581440 -0.588191
O5    O     O_R   0.319640 0.500000 0.581430 -0.583801
O6    O     O_R   0.680360 0.500000 0.418570 -0.606851
O7    O     O_R   0.319640 0.500010 0.418560 -0.581633
O8    O     O_R   0.680360 0.499990 0.581440 -0.563029
C45   C     C_2   0.727144 0.552937 0.059836 0.313857
H25   H     H_    0.739748 0.542465 0.983132 0.088972
O9    O     O_2   0.812700 0.585038 0.105434 -0.558706
C46   C     C_2   0.466266 0.331683 0.941200 0.297804
H26   H     H_    0.483901 0.324678 0.017792 0.102449
O10   O     O_2   0.435220 0.266083 0.896077 -0.538594
C47   C     C_2   0.287365 0.232851 0.586098 0.365003
H27   H     H_    0.278260 0.304037 0.580901 0.061526
O11   O     O_2   0.205668 0.191396 0.627268 -0.532217
C48   C     C_2   0.625432 0.772630 0.337833 0.371208
H28   H     H_    0.668601 0.708531 0.346794 0.084730
O12   O     O_2   0.634621 0.809542 0.259629 -0.536347

loop_
_geom_bond_atom_site_label_1
_geom_bond_atom_site_label_2
_ccdc_geom_bond_type
C47   H27   S    
C27   C29   A    
C26   N2    A    
C44   H20   S    
C1    C11   S    
C32   H12   S    
C2    C12   S    
C45   H25   S    
C28   H10   S    
C39   C41   A    
C20   C30   A    
Cu1   Cu2   S    
C3    C43   A    
C21   N1    A    
Cu1   O4    S    
Cu1   O1    S    
C35   C37   A    
C16   H4    S    
Cu2   O7    S    
C27   H9    S    
C5    C36   S    
C6    C35   S    
C7    C9    A    
C24   O8    A    
C7    C17   A    
C31   C33   A    
C25   N1    A    
C2    O2    A    
C40   C42   A    
C33   H13   S    
C25   H7    S    
Cu1   N2    S    
C34   H14   S    
C14   H24   S    
C3    C24   S    
C26   H8    S    
C22   N2    A    
Cu2   O3    S    
C45   O9    D    
C1    O3    A    
C46   H26   S    
C4    C6    A    
Cu2   O6    S    
C4    C23   S    
C4    C44   A    
C20   C46   S    
C8    C18   A    
C32   C34   A    
C29   C30   S    
C48   O12   D    
C43   H19   S    
C17   C18   S    
C41   H1    S    
C42   H2    S    
C23   O5    A    
C9    C11   A    
Cu2   O2    S    
Cu2   N1    S    
C10   C12   A    
C24   O6    A    
C5    C44   A    
C20   C22   A    
C8    H22   S    
C6    C43   A    
C13   C15   A    
C14   C16   A    
C19   C29   A    
C21   H5    S    
C2    O4    A    
C22   H6    S    
C15   C17   A    
C31   C41   A    
C19   C21   A    
C8    C10   A    
C12   C14   A    
C3    C5    A    
C37   H15   S    
C25   C27   A    
C39   H17   S    
C26   C28   A    
C40   H18   S    
C1    O1    A    
C31   H11   S    
C28   C30   A    
C37   C39   A    
C9    C47   S    
C38   C40   A    
C11   C13   A    
C48   H28   S    
C13   H23   S    
C36   C38   A    
C33   C35   A    
Cu1   O8    S    
C34   C36   A    
C15   H3    S    
C7    H21   S    
C10   C48   S    
C16   C18   A    
C47   O11   D    
C32   C42   A    
C46   O10   D    
Cu1   O5    S    
C23   O7    A    
C19   C45   S    
C38   H16   S    
