data_mof_unit_10881.cif
_audit_creation_date              2012-12-11T14:08:19-0500
_audit_creation_method            fapswitch 2.2
_symmetry_space_group_name_H-M    P1
_symmetry_Int_Tables_number       1
_space_group_crystal_system       triclinic
_cell_length_a                    10.969323
_cell_length_b                    10.889026
_cell_length_c                    18.778361
_cell_angle_alpha                 90.298534
_cell_angle_beta                  89.601649
_cell_angle_gamma                 60.100465
_cell_volume                      1944.30187811

loop_
_atom_site_label
_atom_site_type_symbol
_atom_type_description
_atom_site_fract_x
_atom_site_fract_y
_atom_site_fract_z
_atom_type_partial_charge
C1    C     C_R   0.291313 0.622001 0.615128 0.555897
C2    C     C_2   0.778851 0.158389 0.704946 -0.155437
C3    C     C_2   0.243767 0.636285 0.688841 -0.131257
C4    C     C_R   0.653506 0.623153 0.601348 0.548862
C5    C     C_2   0.207736 0.657050 0.843220 -0.109453
C6    C     C_2   0.246778 0.535248 0.806919 -0.036721
C7    C     C_2   0.293407 0.522948 0.731610 -0.165170
C8    C     C_2   0.601528 0.600667 0.313618 -0.119435
C9    C     C_2   0.654845 0.677941 0.168562 0.002245
C10   C     C_2   0.692562 0.546581 0.192476 -0.138239
C11   C     C_2   0.697854 0.510438 0.267919 -0.160411
C12   C     C_3   0.683190 0.545772 0.800034 -0.123008
C13   C     C_2   0.642416 0.180811 0.321713 -0.100213
C14   C     C_2   0.636423 0.191897 0.167326 -0.104607
C15   C     C_2   0.533716 0.194213 0.206421 -0.172832
C16   C     C_R   0.627553 0.227939 0.601669 0.543402
C17   C     C_2   0.529191 0.209724 0.282331 -0.169972
C18   C     C_2   0.308214 0.601041 0.319621 -0.128033
C19   C     C_2   0.155944 0.660557 0.181758 0.009168
C20   C     C_2   0.242956 0.706392 0.204199 -0.133868
C21   C     C_2   0.270077 0.713009 0.278780 -0.172347
C22   C     C_R   0.705586 0.098481 0.896433 0.542623
C23   C     C_3   0.702816 0.675954 0.811619 0.071306
C24   C     C_R   0.727936 0.690725 0.886982 0.550682
C25   C     C_R   0.122710 0.703786 0.908679 0.538539
C26   C     C_R   0.672758 0.113455 0.101644 0.550123
C27   C     C_R   0.694807 0.690052 0.096329 0.556994
C28   C     C_R   0.302629 0.613847 0.395805 0.568049
C29   C     C_R   0.093292 0.708434 0.113066 0.565290
C30   C     C_R   0.611562 0.582064 0.389599 0.557759
C31   C     C_R   0.616092 0.230301 0.394437 0.542723
C32   C     C_3   0.574275 0.814047 0.782591 -0.226293
C33   C     C_3   0.552587 0.796520 0.703324 -0.243478
C34   C     C_3   0.669952 0.649649 0.676429 0.044012
C35   C     C_3   0.834620 0.652569 0.768316 -0.239949
C36   C     C_3   0.955333 0.027028 0.801111 -0.353710
C37   C     C_3   0.248977 0.408647 0.840597 -0.364553
C38   C     C_3   0.612988 0.806941 0.216148 -0.380658
C39   C     C_3   0.095941 0.589324 0.228671 -0.379152
C40   C     C_3   0.564901 0.549483 0.846108 -0.415413
C41   C     C_3   0.814561 0.638260 0.688430 -0.248238
C42   C     C_3   0.659764 0.533650 0.720222 -0.197928
C43   C     C_2   0.674093 0.156617 0.669691 -0.132394
C44   C     C_2   0.694114 0.160175 0.825907 -0.105496
C45   C     C_2   0.804536 0.119345 0.780295 -0.047085
Cr1   Cr    Cr6+3 0.393010 0.398050 0.501480 1.016409
Cr2   Cr    Cr6+3 0.398820 0.707980 0.501630 1.009345
Cr3   Cr    Cr6+3 0.708140 0.393940 0.496850 1.007671
Cr4   Cr    Cr6+3 0.937950 0.938450 0.008940 1.006203
Cr5   Cr    Cr6+3 0.626180 0.937030 0.994750 1.003099
Cr6   Cr    Cr6+3 0.937790 0.625760 0.001410 1.001953
H1    H     H_    0.593308 0.904903 0.788853 0.134566
H2    H     H_    0.456778 0.170317 0.183871 0.155708
H3    H     H_    0.709495 0.221850 0.189072 0.097073
H4    H     H_    0.746754 0.140768 0.298913 0.099924
H5    H     H_    0.273469 0.765311 0.168710 0.137812
H6    H     H_    0.554452 0.882246 0.672139 0.121354
H7    H     H_    0.853914 0.742675 0.777267 0.119003
H8    H     H_    0.821074 0.722925 0.658612 0.128319
H9    H     H_    0.782043 0.448522 0.815448 0.145064
H10   H     H_    0.556152 0.541085 0.710876 0.117197
H11   H     H_    0.901150 0.534494 0.668535 0.145002
H12   H     H_    0.741493 0.427137 0.701456 0.129350
H13   H     H_    0.028161 0.009923 0.755889 0.103370
H14   H     H_    0.982770 0.076461 0.845384 0.160674
H15   H     H_    0.970455 0.922398 0.816089 0.156236
H16   H     H_    0.587880 0.225802 0.806416 0.083070
H17   H     H_    0.299967 0.314661 0.804615 0.110879
H18   H     H_    0.309723 0.381409 0.890753 0.145008
H19   H     H_    0.140694 0.430351 0.851816 0.156709
H20   H     H_    0.476482 0.842331 0.813107 0.122870
H21   H     H_    0.783359 0.409511 0.285754 0.146108
H22   H     H_    0.498177 0.863175 0.227277 0.115080
H23   H     H_    0.930020 0.554906 0.786004 0.131784
H24   H     H_    0.674492 0.777870 0.266010 0.145107
H25   H     H_    0.636208 0.884493 0.190226 0.157574
H26   H     H_    0.510121 0.693960 0.294663 0.116006
H27   H     H_    0.425859 0.246613 0.305988 0.156727
H28   H     H_    0.447230 0.806531 0.696576 0.137311
H29   H     H_    0.250088 0.814194 0.300434 0.152940
H30   H     H_    0.004128 0.589714 0.203863 0.155632
H31   H     H_    0.175973 0.476788 0.237216 0.118490
H32   H     H_    0.056959 0.646563 0.280261 0.152229
H33   H     H_    0.338343 0.498530 0.296447 0.111978
H34   H     H_    0.848429 0.187884 0.678141 0.147454
H35   H     H_    0.551839 0.457382 0.833196 0.137155
H36   H     H_    0.590141 0.544309 0.903542 0.145219
H37   H     H_    0.464071 0.647053 0.836514 0.138589
H38   H     H_    0.610223 0.118400 0.695241 0.097151
H39   H     H_    0.365086 0.418214 0.709919 0.139884
H40   H     H_    0.227123 0.736630 0.819696 0.078286
H41   H     H_    0.168992 0.741873 0.708173 0.105038
H42   H     H_    0.737936 0.457433 0.155349 0.127398
O1    O     O_R   0.507110 0.256280 0.580300 -0.522713
O2    O     O_R   0.837080 0.593860 0.915300 -0.536974
O3    O     O_R   0.064770 0.636080 0.932550 -0.500238
O4    O     O_R   0.280830 0.527190 0.577940 -0.476433
O5    O     O_R   0.068250 0.829200 0.092940 -0.519474
O6    O     O_R   0.799650 0.057040 0.080330 -0.498055
O7    O     O_R   0.586130 0.079760 0.077080 -0.521279
O8    O     O_R   0.627700 0.809630 0.066580 -0.497195
O9    O     O_R   0.816140 0.597180 0.075920 -0.520606
O10   O     O_R   0.045360 0.639170 0.081440 -0.502292
O11   O     O_3   0.833980 0.833750 0.001700 -0.246927
O12   O     O_R   0.524640 0.695370 0.425100 -0.513298
O13   O     O_R   0.261360 0.738990 0.584270 -0.509336
O14   O     O_R   0.532590 0.694780 0.574370 -0.514461
O15   O     O_R   0.744470 0.503750 0.577000 -0.521285
O16   O     O_R   0.698520 0.277230 0.571620 -0.497698
O17   O     O_R   0.498530 0.256920 0.419280 -0.523668
O18   O     O_R   0.272880 0.527780 0.428680 -0.488795
O19   O     O_R   0.252780 0.739630 0.423250 -0.506356
O20   O     O_R   0.735890 0.504390 0.415980 -0.493998
O21   O     O_R   0.690560 0.277820 0.422350 -0.516342
O22   O     O_3   0.499990 0.499990 0.499980 -0.320513
O23   O     O_R   0.089190 0.825870 0.932320 -0.533421
O24   O     O_R   0.819070 0.053960 0.931440 -0.499122
O25   O     O_R   0.607070 0.076440 0.916460 -0.528764
O26   O     O_R   0.647110 0.806550 0.917690 -0.510090

loop_
_geom_bond_atom_site_label_1
_geom_bond_atom_site_label_2
_ccdc_geom_bond_type
C22   O24   A    
C35   H23   S    
Cr5   O11   S    
C37   H18   S    
C18   C21   D    
C19   C20   D    
C34   C42   S    
C20   H5    S    
Cr4   O11   S    
C38   H25   S    
C28   O19   A    
Cr6   O9    S    
Cr2   O22   S    
C4    O15   A    
C12   C23   S    
C43   H38   S    
Cr1   O22   S    
C35   H7    S    
C15   H2    S    
C40   H36   S    
C3    C7    D    
C5    C6    D    
C36   H15   S    
Cr6   O10   S    
Cr2   O19   S    
C37   H17   S    
C29   O10   A    
C2    H34   S    
C15   C17   S    
C40   H35   S    
C32   H1    S    
C12   C42   S    
Cr4   O5    S    
Cr4   O24   S    
Cr2   O12   S    
Cr1   O1    S    
C18   H33   S    
C23   C24   S    
C9    C10   D    
C31   O21   A    
Cr6   O3    S    
Cr3   O16   S    
C2    C45   S    
Cr5   O25   S    
Cr1   O18   S    
C34   C41   S    
C41   H11   S    
C16   O16   A    
C32   H20   S    
C38   H24   S    
C28   O18   A    
C4    O14   A    
C4    C34   S    
Cr5   O26   S    
C18   C28   S    
C39   H30   S    
C24   O2    A    
C1    O4    A    
C36   H14   S    
C33   H28   S    
C10   H42   S    
Cr6   O11   S    
C7    H39   S    
C27   O8    A    
C3    H41   S    
C1    C3    S    
C12   C40   S    
Cr4   O6    S    
C42   H10   S    
C2    C43   D    
Cr2   O13   S    
C33   C34   S    
C6    C37   S    
C36   C45   S    
C14   C26   S    
C16   C43   S    
C41   H8    S    
C5    H40   S    
C19   C39   S    
Cr5   O8    S    
Cr3   O22   S    
C5    C25   S    
C29   O5    A    
C14   H3    S    
Cr1   O4    S    
Cr2   O14   S    
Cr1   O17   S    
C30   O12   A    
C8    H26   S    
C25   O23   A    
C19   C29   S    
C44   C45   D    
C9    C27   S    
Cr3   O21   S    
C22   O25   A    
C24   O26   A    
C22   C44   S    
C11   H21   S    
Cr5   O7    S    
C13   C31   S    
C17   H27   S    
C39   H31   S    
C6    C7    S    
C33   H6    S    
C1    O13   A    
C27   O9    A    
C16   O1    A    
C13   C17   D    
C8    C30   S    
C23   C32   S    
C40   H37   S    
C39   H32   S    
C36   H13   S    
C32   C33   S    
Cr3   O15   S    
C8    C11   D    
C21   H29   S    
C9    C38   S    
C31   O17   A    
C35   C41   S    
C23   C35   S    
C10   C11   S    
C12   H9    S    
Cr4   O23   S    
C20   C21   S    
C25   O3    A    
Cr6   O2    S    
C26   O6    A    
C14   C15   D    
C44   H16   S    
C37   H19   S    
C42   H12   S    
C30   O20   A    
C26   O7    A    
Cr3   O20   S    
C13   H4    S    
C38   H22   S    
