data_mof_unit_58752.cif
_audit_creation_date              2013-03-05T15:40:11-0500
_audit_creation_method            fapswitch 2.2
_symmetry_space_group_name_H-M    P1
_symmetry_Int_Tables_number       1
_space_group_crystal_system       triclinic
_cell_length_a                    7.53321
_cell_length_b                    8.6683
_cell_length_c                    12.970798
_cell_angle_alpha                 87.522966
_cell_angle_beta                  77.296964
_cell_angle_gamma                 102.258292
_cell_volume                      803.825204113

loop_
_atom_site_label
_atom_site_type_symbol
_atom_site_description
_atom_site_fract_x
_atom_site_fract_y
_atom_site_fract_z
_atom_type_partial_charge
O1    O     O_R   0.621060 0.286250 0.492350 -0.553481
O2    O     O_R   0.378940 0.713750 0.507650 -0.558947
O3    O     O_R   0.306310 0.256580 0.512240 -0.540766
O4    O     O_R   0.693690 0.743420 0.487760 -0.544074
C1    C     C_R   0.453176 0.199991 0.505769 0.860161
C2    C     C_R   0.546817 0.799996 0.493960 0.855190
O5    O     O_R   0.631800 0.512400 0.642670 -0.553060
O6    O     O_R   0.368200 0.487600 0.357330 -0.549741
O7    O     O_R   0.317060 0.482730 0.662570 -0.617047
O8    O     O_R   0.682940 0.517270 0.337430 -0.618448
C3    C     C_R   0.462390 0.491583 0.702226 0.775953
C4    C     C_R   0.538607 0.515305 0.297876 0.778097
Cu1   Cu    Cu3+1 0.686350 0.517570 0.488220 1.079607
Cu2   Cu    Cu3+1 0.313650 0.482430 0.511780 1.079633
N1    N     N_2   0.033570 0.455950 0.529530 0.020748
N2    N     N_2   0.966430 0.544050 0.470470 0.024084
C5    C     C_R   0.565089 0.533805 0.182045 -0.062224
C6    C     C_R   0.436571 0.484178 0.818040 -0.081638
C7    C     C_R   0.257157 0.414603 0.000091 -0.224665
C8    C     C_R   0.744508 0.608868 0.000022 -0.227768
C9    C     C_R   0.262723 0.414335 0.891103 0.061199
C10   C     C_R   0.736313 0.611303 0.109032 0.062650
C11   C     C_R   0.594800 0.548407 0.855748 -0.259811
C12   C     C_R   0.408014 0.469934 0.143568 -0.245839
C13   C     C_R   0.585988 0.544578 0.963635 0.130430
C14   C     C_R   0.416667 0.476952 0.035766 0.120182
H1    H     H_    0.276894 0.412032 0.197949 0.175487
H2    H     H_    0.726633 0.602561 0.800743 0.172679
H3    H     H_    0.129515 0.365735 0.059196 0.132705
H4    H     H_    0.875027 0.658808 0.942838 0.140944
C15   C     C_2   0.427949 0.032071 0.517331 -0.299768
C16   C     C_2   0.571795 0.967840 0.482003 -0.296004
H5    H     H_    0.291745 0.961335 0.558262 0.211424
H6    H     H_    0.707668 0.038468 0.440701 0.212646
C17   C     C_3   0.912570 0.698253 0.140041 -0.360582
C18   C     C_3   0.973175 0.872950 0.094689 -0.408806
C19   C     C_3   0.144071 0.959738 0.131262 -0.769341
H7    H     H_    0.109324 0.963512 0.218763 0.290565
H8    H     H_    0.261314 0.899510 0.108247 0.267442
H9    H     H_    0.190034 0.083330 0.093428 0.224864
H10   H     H_    0.009653 0.882335 0.006603 0.223201
H11   H     H_    0.856192 0.932376 0.121619 0.226316
H12   H     H_    0.897060 0.700290 0.226001 0.260915
H13   H     H_    0.026896 0.637246 0.110167 0.206170
C20   C     C_3   0.087606 0.337787 0.853854 -0.325460
C21   C     C_3   0.922489 0.243061 0.941611 -0.435340
C22   C     C_3   0.760574 0.156694 0.897864 -0.732784
H14   H     H_    0.695553 0.243481 0.863442 0.286135
H15   H     H_    0.809243 0.079244 0.836876 0.272285
H16   H     H_    0.652501 0.081409 0.963434 0.223277
H17   H     H_    0.971318 0.153430 0.984572 0.224660
H18   H     H_    0.868461 0.323686 0.998546 0.230958
H19   H     H_    0.038489 0.432131 0.814953 0.227277
H20   H     H_    0.126635 0.254384 0.794722 0.218788
N3    N     N_R   0.920063 0.307716 0.566755 0.254992
O9    O     O_R   0.950829 0.185660 0.517027 -0.349281
O10   O     O_R   0.819248 0.284419 0.663418 -0.406575
N4    N     N_R   0.083438 0.688692 0.427015 0.248307
O11   O     O_R   0.057896 0.816021 0.471643 -0.353231
O12   O     O_R   0.174787 0.703489 0.328348 -0.405287

loop_
_geom_bond_atom_site_label_1
_geom_bond_atom_site_label_2
_geom_bond_distance
_ccdc_geom_bond_type
C4    C5    1.468511 S    
C2    C16   1.423957 S    
O7    Cu2   1.961783 S    
C15   H5    1.084320 S    
C3    C6    1.468475 S    
C19   H7    1.110816 S    
C17   H13   1.111707 S    
C21   H18   1.110260 S    
C19   H9    1.109398 S    
C6    C9    1.430966 A    
C17   H12   1.096549 S    
C18   H11   1.112163 S    
C5    C10   1.432394 A    
Cu2   N1    2.033107 S    
C12   H1    1.085158 S    
O6    C4    1.310725 A    
N3    O9    1.298663 A    
C11   C13   1.384908 A    
N4    O11   1.298744 A    
C20   H19   1.111409 S    
C19   H8    1.111335 S    
N1    N3    1.383320 S    
N2    N4    1.384838 S    
Cu1   Cu2   2.705624 S    
O5    C3    1.309420 A    
C10   C17   1.526095 S    
O7    C3    1.297871 A    
C18   H10   1.109929 S    
O2    C2    1.295409 A    
O3    Cu2   1.946459 S    
O8    C4    1.297666 A    
O1    C1    1.295854 A    
N1    N2    1.307557 D    
C22   H15   1.110764 S    
C18   C19   1.528577 S    
C7    C9    1.405156 A    
C8    C10   1.402939 A    
C20   H20   1.111936 S    
C22   H16   1.110827 S    
C9    C20   1.533073 S    
N3    O10   1.297610 A    
O2    Cu2   1.955953 S    
O6    Cu2   1.951053 S    
C5    C12   1.400426 A    
O1    Cu1   1.955953 S    
C8    C13   1.395478 A    
N4    O12   1.299566 A    
C6    C11   1.402898 A    
C7    H3    1.080054 S    
C22   H14   1.108530 S    
C20   C21   1.542698 S    
O5    Cu1   1.951054 S    
O4    C2    1.290677 A    
Cu1   N2    2.033106 S    
O4    Cu1   1.946458 S    
C7    C14   1.393017 A    
C21   C22   1.524330 S    
C8    H4    1.084001 S    
C1    C15   1.424242 S    
C13   C14   1.398638 A    
C11   H2    1.084966 S    
C21   H17   1.106145 S    
C15   C16   1.324415 D    
C17   C18   1.535890 S    
C12   C14   1.383474 A    
O3    C1    1.290311 A    
O8    Cu1   1.961781 S    
C16   H6    1.083458 S    
