data_mof_unit_53717.cif
_audit_creation_date              2012-12-11T17:04:52-0500
_audit_creation_method            fapswitch 2.2
_symmetry_space_group_name_H-M    P1
_symmetry_Int_Tables_number       1
_space_group_crystal_system       triclinic
_cell_length_a                    17.41587
_cell_length_b                    24.300123
_cell_length_c                    14.937191
_cell_angle_alpha                 90.000055
_cell_angle_beta                  125.289064
_cell_angle_gamma                 90.000395
_cell_volume                      5159.9398811

loop_
_atom_site_label
_atom_site_type_symbol
_atom_type_description
_atom_site_fract_x
_atom_site_fract_y
_atom_site_fract_z
_atom_type_partial_charge
C1    C     C_R   0.813367 0.629843 0.907894 -0.139051
C2    C     C_R   0.034204 0.500898 0.707370 0.073098
C3    C     C_R   0.770765 0.045254 0.276173 -0.152665
C4    C     C_R   0.852149 0.348775 0.910516 -0.128997
C5    C     C_R   0.149233 0.349144 0.089540 -0.125395
C6    C     C_R   0.350767 0.849144 0.910457 -0.125393
C7    C     C_R   0.647851 0.848776 0.089484 -0.128926
C8    C     C_R   0.903451 0.628344 0.091417 -0.128834
C9    C     C_R   0.094681 0.633947 0.912108 -0.128130
C10   C     C_R   0.405309 0.133940 0.087888 -0.128133
C11   C     C_R   0.596559 0.128333 0.908584 -0.128822
C12   C     C_R   0.815983 0.644208 0.999116 0.071395
C13   C     C_R   0.465801 0.000899 0.292633 0.073092
C14   C     C_R   0.184362 0.645487 0.004446 0.073006
C15   C     C_R   0.315628 0.145476 0.995545 0.072999
C16   C     C_R   0.684040 0.144180 0.000885 0.071387
C17   C     C_R   0.432173 0.001400 0.631609 0.081137
C18   C     C_R   0.675386 0.498460 0.693507 0.040648
C19   C     C_R   0.307359 0.500066 0.357205 0.041732
C20   C     C_R   0.192734 0.000068 0.642696 0.041659
C21   C     C_R   0.824595 0.998455 0.306779 0.040678
C22   C     C_3   0.515371 0.445831 0.562725 -0.169299
C23   C     C_3   0.475895 0.470210 0.448765 -0.143727
C24   C     C_3   0.024174 0.970580 0.551707 -0.143390
C25   C     C_R   0.189302 0.626999 0.094653 -0.146139
C26   C     C_3   0.984467 0.945813 0.437987 -0.169322
C27   C     C_3   0.438478 0.475459 0.566167 -0.151601
C28   C     C_3   0.538150 0.521491 0.499892 -0.150195
C29   C     C_3   0.962067 0.021880 0.500117 -0.150518
C30   C     C_3   0.061351 0.975076 0.434030 -0.151819
C31   C     C_3   0.400948 0.499825 0.453716 0.187482
C32   C     C_3   0.576593 0.497276 0.612678 0.187700
C33   C     C_3   0.923393 0.997277 0.387566 0.187726
C34   C     C_3   0.099121 0.999832 0.546250 0.187480
C35   C     C_3   0.462380 0.551203 0.504184 -0.170277
C36   C     C_R   0.310691 0.126988 0.905342 -0.146175
C37   C     C_3   0.502344 0.526917 0.618743 -0.148384
C38   C     C_3   0.997635 0.026553 0.380988 -0.148078
C39   C     C_3   0.037841 0.051229 0.495320 -0.170355
C40   C     C_R   0.892496 0.233534 0.103405 0.160862
C41   C     C_R   0.111056 0.236480 0.893311 0.159332
C42   C     C_R   0.388994 0.736448 0.106663 0.159344
C43   C     C_R   0.607497 0.733535 0.896591 0.160854
C44   C     C_R   0.864361 0.258848 0.004755 0.031734
C45   C     C_R   0.137138 0.259911 0.992830 0.032949
C46   C     C_R   0.362871 0.759902 0.007145 0.032922
C47   C     C_R   0.686661 0.129811 0.092108 -0.139086
C48   C     C_R   0.635629 0.758848 0.995242 0.031730
C49   C     C_R   0.801796 0.229986 0.906542 -0.203647
C50   C     C_R   0.196869 0.229635 0.089766 -0.205334
C51   C     C_R   0.303097 0.729645 0.910192 -0.205334
C52   C     C_R   0.698202 0.729990 0.093458 -0.203638
C53   C     C_R   0.945789 0.348888 0.093049 -0.145104
C54   C     C_R   0.054529 0.349073 0.906933 -0.159011
C55   C     C_R   0.445474 0.849070 0.093062 -0.159034
C56   C     C_R   0.554204 0.848886 0.906951 -0.145123
C57   C     C_R   0.251370 0.685834 0.910626 -0.200643
C58   C     C_R   0.883779 0.317016 0.002595 0.076952
C59   C     C_R   0.750601 0.686276 0.093838 -0.200928
C60   C     C_R   0.749414 0.186261 0.906163 -0.200943
C61   C     C_R   0.248588 0.185820 0.089332 -0.200661
C62   C     C_R   0.260090 0.672954 0.007898 0.036500
C63   C     C_R   0.740051 0.671824 0.996103 0.034109
C64   C     C_R   0.759970 0.171802 0.003897 0.034086
C65   C     C_R   0.239902 0.172953 0.992076 0.036514
C66   C     C_R   0.338013 0.693324 0.107015 0.162496
C67   C     C_R   0.659667 0.690811 0.896932 0.161898
C68   C     C_R   0.840344 0.190799 0.103065 0.161937
C69   C     C_R   0.117554 0.317616 0.997042 0.078909
C70   C     C_R   0.162027 0.193353 0.892959 0.162465
C71   C     C_3   0.346858 0.714615 0.206715 -0.524262
C72   C     C_3   0.644607 0.710536 0.792722 -0.528904
C73   C     C_3   0.855392 0.210520 0.207269 -0.528912
C74   C     C_3   0.153278 0.214672 0.793338 -0.524266
C75   C     C_3   0.912820 0.256859 0.207804 -0.520599
C76   C     C_3   0.097552 0.261921 0.793678 -0.521755
C77   C     C_3   0.402594 0.761859 0.206376 -0.521712
C78   C     C_3   0.587159 0.756863 0.792183 -0.520558
C79   C     C_R   0.094305 0.552467 0.615794 0.165574
C80   C     C_R   0.382450 0.817612 0.002951 0.078935
C81   C     C_R   0.106539 0.552669 0.532624 0.162952
C82   C     C_R   0.393480 0.052671 0.467390 0.162963
C83   C     C_R   0.405714 0.052468 0.384221 0.165557
C84   C     C_R   0.081923 0.502625 0.653258 0.034880
C85   C     C_R   0.104797 0.503001 0.484046 0.027923
C86   C     C_R   0.395209 0.003003 0.515956 0.027977
C87   C     C_R   0.418084 0.002627 0.346747 0.034886
C88   C     C_R   0.108323 0.453755 0.627232 -0.199078
C89   C     C_R   0.119858 0.453932 0.542116 -0.210140
C90   C     C_R   0.380139 0.953935 0.457881 -0.210104
C91   C     C_R   0.616214 0.817016 0.997404 0.076949
C92   C     C_R   0.391675 0.953759 0.372765 -0.199097
C93   C     C_3   0.050430 0.604455 0.483894 -0.524524
C94   C     C_3   0.036502 0.604035 0.574161 -0.530759
C95   C     C_3   0.463534 0.104030 0.425865 -0.530773
C96   C     C_3   0.449606 0.104449 0.516133 -0.524562
C97   C     C_R   0.052718 0.546646 0.304627 -0.160601
C98   C     C_R   0.005259 0.546387 0.736014 -0.142521
C99   C     C_R   0.494746 0.046387 0.263989 -0.142513
C100  C     C_R   0.447283 0.046646 0.695373 -0.160595
C101  C     C_R   0.731729 0.453020 0.734535 -0.130980
C102  C     C_R   0.067829 0.501400 0.368391 0.081146
C103  C     C_R   0.258947 0.454216 0.298455 -0.147649
C104  C     C_R   0.241095 0.954219 0.701493 -0.147692
C105  C     C_R   0.768261 0.953016 0.265658 -0.130989
C106  C     C_R   0.049744 0.455225 0.304812 -0.121229
C107  C     C_R   0.010650 0.454524 0.741218 -0.129862
C108  C     C_R   0.489351 0.954524 0.258783 -0.129846
C109  C     C_R   0.450257 0.955224 0.695188 -0.121218
C110  C     C_R   0.729216 0.545253 0.723971 -0.152633
C111  C     C_R   0.258599 0.546241 0.301144 -0.144299
C112  C     C_R   0.241460 0.046241 0.698800 -0.144201
H1    H     H_    0.758617 0.637724 0.824256 0.103188
H2    H     H_    0.517072 0.549918 0.691343 0.114677
H3    H     H_    0.982864 0.049258 0.308087 0.114723
H4    H     H_    0.061011 0.094505 0.519839 0.103819
H5    H     H_    0.783684 0.245070 0.828492 0.123990
H6    H     H_    0.213203 0.243620 0.167707 0.123311
H7    H     H_    0.286733 0.743642 0.832244 0.123308
H8    H     H_    0.716309 0.745071 0.171508 0.123983
H9    H     H_    0.197297 0.667190 0.833242 0.123547
H10   H     H_    0.806498 0.669176 0.171964 0.126245
H11   H     H_    0.693522 0.169158 0.828039 0.126250
H12   H     H_    0.248282 0.628770 0.179203 0.108562
H13   H     H_    0.302631 0.167159 0.166710 0.123565
H14   H     H_    0.389771 0.687028 0.278757 0.187999
H15   H     H_    0.602057 0.681217 0.723682 0.189627
H16   H     H_    0.897954 0.181205 0.276311 0.189660
H17   H     H_    0.110381 0.187112 0.721252 0.188031
H18   H     H_    0.278682 0.728041 0.190109 0.200250
H19   H     H_    0.709805 0.725957 0.803958 0.199919
H20   H     H_    0.790187 0.225925 0.196030 0.199927
H21   H     H_    0.221490 0.228083 0.810033 0.200280
H22   H     H_    0.988638 0.254062 0.276569 0.187378
H23   H     H_    0.251709 0.128753 0.820790 0.108588
H24   H     H_    0.022674 0.261524 0.721764 0.188409
H25   H     H_    0.477494 0.761433 0.278249 0.188407
H26   H     H_    0.511340 0.754054 0.723418 0.187377
H27   H     H_    0.879602 0.297621 0.197548 0.204261
H28   H     H_    0.134223 0.302059 0.810358 0.200207
H29   H     H_    0.365961 0.802006 0.189787 0.200173
H30   H     H_    0.620361 0.797632 0.802431 0.204250
H31   H     H_    0.108483 0.414605 0.661766 0.126951
H32   H     H_    0.127295 0.414832 0.513313 0.125025
H33   H     H_    0.372694 0.914837 0.486678 0.125012
H34   H     H_    0.741443 0.137659 0.175749 0.103233
H35   H     H_    0.391508 0.914610 0.338226 0.126948
H36   H     H_    0.982975 0.598647 0.401933 0.199590
H37   H     H_    0.071651 0.639130 0.631908 0.185832
H38   H     H_    0.428396 0.139128 0.368127 0.185838
H39   H     H_    0.517058 0.098633 0.598090 0.199600
H40   H     H_    0.094277 0.639513 0.490050 0.188361
H41   H     H_    0.961388 0.597452 0.541532 0.199124
H42   H     H_    0.538643 0.097439 0.458489 0.199138
H43   H     H_    0.405775 0.139511 0.509989 0.188366
H44   H     H_    0.076389 0.588203 0.332568 0.102436
H45   H     H_    0.539112 0.402734 0.588499 0.107306
H46   H     H_    0.005174 0.588246 0.715220 0.099296
H47   H     H_    0.494834 0.088246 0.284786 0.099295
H48   H     H_    0.423614 0.088203 0.667433 0.102431
H49   H     H_    0.711816 0.410145 0.718506 0.092333
H50   H     H_    0.275033 0.411645 0.323952 0.093671
H51   H     H_    0.225004 0.911647 0.676008 0.093705
H52   H     H_    0.788158 0.910139 0.281704 0.092283
H53   H     H_    0.066403 0.413001 0.332270 0.082602
H54   H     H_    0.021411 0.411854 0.731160 0.093190
H55   H     H_    0.478589 0.911853 0.268841 0.093185
H56   H     H_    0.462632 0.447143 0.376883 0.115385
H57   H     H_    0.433599 0.913000 0.667728 0.082597
H58   H     H_    0.704989 0.585801 0.689448 0.091690
H59   H     H_    0.272975 0.588179 0.330733 0.084817
H60   H     H_    0.227091 0.088183 0.669242 0.084783
H61   H     H_    0.794961 0.085810 0.310663 0.091648
H62   H     H_    0.813745 0.334670 0.826643 0.081647
H63   H     H_    0.189316 0.335223 0.173676 0.082035
H64   H     H_    0.310686 0.835225 0.826319 0.082036
H65   H     H_    0.686261 0.834673 0.173359 0.081636
H66   H     H_    0.394069 0.457031 0.589536 0.113970
H67   H     H_    0.037477 0.947810 0.623889 0.115454
H68   H     H_    0.581363 0.540046 0.474899 0.112874
H69   H     H_    0.919015 0.040748 0.525042 0.112821
H70   H     H_    0.105599 0.956336 0.410726 0.113921
H71   H     H_    0.995781 0.334878 0.176093 0.098254
H72   H     H_    0.004484 0.334706 0.824129 0.101092
H73   H     H_    0.495526 0.834702 0.175864 0.101099
H74   H     H_    0.504206 0.834876 0.823909 0.098259
H75   H     H_    0.930075 0.633299 0.176576 0.092968
H76   H     H_    0.064665 0.649565 0.830967 0.085129
H77   H     H_    0.435318 0.149560 0.169027 0.085137
H78   H     H_    0.960585 0.902692 0.412756 0.107261
H79   H     H_    0.569933 0.133292 0.823425 0.092967
H80   H     H_    0.439386 0.594462 0.479144 0.103796
N1    N     N_R   0.892620 0.603790 0.941770 -0.040980
N2    N     N_R   0.973690 0.529110 0.793240 -0.040383
N3    N     N_R   0.526310 0.029110 0.206760 -0.040375
N4    N     N_R   0.473690 0.029110 0.793240 -0.037822
N5    N     N_R   0.818570 0.472310 0.793020 -0.038865
N6    N     N_R   0.181430 0.472310 0.206980 -0.035105
N7    N     N_R   0.318570 0.972310 0.793020 -0.035111
N8    N     N_R   0.681430 0.972310 0.206980 -0.038847
N9    N     N_R   0.026930 0.472300 0.207330 -0.038552
N10   N     N_R   0.973070 0.472300 0.792670 -0.040975
N11   N     N_R   0.526930 0.972300 0.207330 -0.040969
N12   N     N_R   0.107380 0.603790 0.058230 -0.041253
N13   N     N_R   0.473070 0.972300 0.792670 -0.038546
N14   N     N_R   0.817960 0.529130 0.792460 -0.036558
N15   N     N_R   0.182040 0.529130 0.207540 -0.035078
N16   N     N_R   0.317960 0.029130 0.792460 -0.035094
N17   N     N_R   0.682040 0.029130 0.207540 -0.036544
N18   N     N_R   0.894850 0.397640 0.943830 -0.038104
N19   N     N_R   0.105150 0.397640 0.056170 -0.038288
N20   N     N_R   0.394850 0.897640 0.943830 -0.038294
N21   N     N_R   0.605150 0.897640 0.056170 -0.038114
N22   N     N_R   0.950040 0.603780 0.055950 -0.041651
N23   N     N_R   0.392620 0.103790 0.941770 -0.041255
N24   N     N_R   0.049960 0.603780 0.944050 -0.040117
N25   N     N_R   0.450040 0.103780 0.055950 -0.040117
N26   N     N_R   0.549960 0.103780 0.944050 -0.041653
N27   N     N_R   0.607380 0.103790 0.058230 -0.040988
N28   N     N_R   0.952270 0.397640 0.058010 -0.038476
N29   N     N_R   0.047730 0.397640 0.941990 -0.037529
N30   N     N_R   0.452270 0.897640 0.058010 -0.037534
N31   N     N_R   0.547730 0.897640 0.941990 -0.038481
N32   N     N_R   0.026310 0.529110 0.206760 -0.037826
Ni1   Ni    Ni4+2 0.934160 0.565860 0.869070 0.211265
Ni2   Ni    Ni4+2 0.065840 0.565860 0.130930 0.207604
Ni3   Ni    Ni4+2 0.434160 0.065860 0.869070 0.207587
Ni4   Ni    Ni4+2 0.565840 0.065860 0.130930 0.211267
Ni5   Ni    Ni4+2 0.067260 0.435560 0.132230 0.204135
Ni6   Ni    Ni4+2 0.932740 0.435560 0.867770 0.206977
Ni7   Ni    Ni4+2 0.567260 0.935560 0.132230 0.206977
Ni8   Ni    Ni4+2 0.432740 0.935560 0.867770 0.204121

loop_
_geom_bond_atom_site_label_1
_geom_bond_atom_site_label_2
_ccdc_geom_bond_type
C44   C49   A    
C3    N17   A    
C83   C87   A    
C35   H80   S    
C38   H3    S    
C99   H47   S    
C5    H63   S    
C15   C36   A    
C2    C84   S    
C95   C96   S    
C27   H66   S    
C9    C14   A    
C25   N12   A    
C19   C31   S    
C104  H51   S    
C76   H24   S    
N6    Ni5   S    
C4    N18   A    
C57   C62   A    
N20   N30   A    
N5    Ni6   S    
C94   H37   S    
C98   N2    A    
C93   C94   S    
C49   C60   A    
C29   H69   S    
N3    Ni4   S    
C33   C38   S    
C64   C68   A    
N2    Ni1   S    
C35   C37   S    
C24   C26   S    
C108  N11   A    
C8    N22   A    
C10   C15   A    
C53   H71   S    
C36   N23   A    
C38   C39   S    
N20   Ni8   S    
C101  N5    A    
C96   H43   S    
N3    N11   A    
C52   H8    S    
C65   C70   A    
C15   C65   S    
C74   H21   S    
C99   N3    A    
C2    C107  A    
N18   N28   A    
C7    H65   S    
C93   H36   S    
C67   C72   S    
C42   C46   A    
C97   H44   S    
N4    N13   A    
C24   C29   S    
C5    C69   A    
N15   Ni2   S    
C20   C112  A    
C19   C103  A    
C3    H61   S    
C105  N8    A    
C49   H5    S    
C98   H46   S    
C29   C33   S    
C44   C58   S    
C56   C91   A    
C48   C91   S    
N29   Ni6   S    
C70   C74   S    
C51   H7    S    
C71   H14   S    
C51   C57   A    
N8    Ni7   S    
N27   Ni4   S    
C43   C48   A    
C88   H31   S    
N23   Ni3   S    
C97   C102  A    
N21   Ni7   S    
C81   C85   A    
N10   Ni6   S    
C20   C34   S    
C9    H76   S    
C53   N28   A    
N9    Ni5   S    
N4    Ni3   S    
C83   C95   S    
C8    H75   S    
C4    H62   S    
C87   C92   A    
C92   H35   S    
C30   H70   S    
C29   C39   S    
N5    N14   A    
C112  H60   S    
C1    C12   A    
C1    H1    S    
C24   H67   S    
C13   C108  A    
C78   H26   S    
C16   C47   A    
C25   H12   S    
C22   H45   S    
C109  H57   S    
C100  N4    A    
C9    N24   A    
C26   H78   S    
C5    N19   A    
C63   C67   A    
C75   H22   S    
C10   H77   S    
C82   C96   S    
C62   C66   A    
C72   H15   S    
C45   C69   S    
C34   C39   S    
C106  H53   S    
C84   C88   A    
C28   C32   S    
C28   C35   S    
C107  N10   A    
C86   C90   A    
C79   C81   A    
C12   C63   S    
C30   C34   S    
C54   N29   A    
C37   H2    S    
C68   C73   S    
C82   C86   A    
C96   H39   S    
C47   N27   A    
C46   C51   A    
C24   C34   S    
C17   C86   S    
N32   Ni2   S    
C43   C78   S    
C103  N6    A    
C23   C31   S    
C13   C99   A    
C60   H11   S    
C1    N1    A    
N7    Ni8   S    
C52   C59   A    
N19   N29   A    
C81   C93   S    
C11   C16   A    
C100  H48   S    
C26   C33   S    
C90   C92   A    
C66   C71   S    
C40   C44   A    
C8    C12   A    
C7    C91   A    
C13   C87   S    
N14   Ni1   S    
C11   H79   S    
N18   Ni6   S    
C105  H52   S    
C110  N14   A    
C95   H38   S    
C32   C37   S    
C109  N13   A    
C28   H68   S    
C11   N26   A    
C112  N16   A    
C7    N21   A    
C22   C32   S    
C79   C94   S    
C55   N30   A    
N28   Ni5   S    
N17   Ni4   S    
C108  H55   S    
C56   H74   S    
N30   Ni7   S    
C26   C30   S    
N11   Ni7   S    
C22   C27   S    
C27   C31   S    
C6    C80   A    
C104  N7    A    
C54   H72   S    
C3    C21   A    
C23   C28   S    
C73   C75   S    
C76   H28   S    
N12   Ni2   S    
C73   H16   S    
C36   H23   S    
C111  N15   A    
N26   Ni3   S    
C71   C77   S    
N31   Ni8   S    
C72   H19   S    
C42   C66   A    
C103  H50   S    
C85   C89   A    
N19   Ni5   S    
N1    N22   A    
N6    N15   A    
C50   H6    S    
C18   C110  A    
C77   H25   S    
N13   Ni8   S    
C17   C109  A    
C56   N31   A    
C61   H13   S    
C53   C58   A    
C40   C75   S    
C4    C58   A    
C20   C104  A    
N24   Ni1   S    
C19   C111  A    
C90   H33   S    
C89   H32   S    
N12   N24   A    
N2    N10   A    
C59   C63   A    
N8    N17   A    
N9    N32   A    
C97   N32   A    
C60   C64   A    
C95   H42   S    
C21   C33   S    
C78   H30   S    
C74   C76   S    
N1    Ni1   S    
N16   Ni3   S    
C2    C98   A    
C75   H27   S    
C106  N9    A    
C46   C80   S    
C55   C80   A    
N21   N31   A    
N26   N27   A    
C79   C84   A    
C54   C69   A    
C6    H64   S    
C45   C50   A    
C27   C37   S    
C94   H41   S    
C107  H54   S    
C31   C35   S    
C101  H49   S    
N7    N16   A    
C41   C76   S    
C18   C32   S    
C102  C106  A    
C111  H59   S    
C55   H73   S    
C14   C25   A    
N22   Ni2   S    
C17   C100  A    
C77   H29   S    
C47   H34   S    
N23   N25   A    
N25   Ni4   S    
C57   H9    S    
C23   H56   S    
C61   C65   A    
C48   C52   A    
C6    N20   A    
C88   C89   A    
C110  H58   S    
C42   C77   S    
C43   C67   A    
C82   C83   A    
C40   C68   A    
C74   H17   S    
C72   C78   S    
C39   H4    S    
C50   C61   A    
C41   C45   A    
C22   C23   S    
C93   H40   S    
C73   H20   S    
C16   C64   S    
C30   C38   S    
C18   C101  A    
C59   H10   S    
C21   C105  A    
C85   C102  S    
C10   N25   A    
C41   C70   A    
C71   H18   S    
C14   C62   S    
