data_mof_unit_62657.cif
_audit_creation_date              2012-10-26T17:54:37-0400
_audit_creation_method            fapswitch 2.2
_symmetry_space_group_name_H-M    P1
_symmetry_Int_Tables_number       1
_space_group_crystal_system       triclinic
_cell_length_a                    18.841816
_cell_length_b                    18.839256
_cell_length_c                    18.89909
_cell_angle_alpha                 109.178149
_cell_angle_beta                  109.69215
_cell_angle_gamma                 109.508317
_cell_volume                      5166.38155292

loop_
_atom_site_label
_atom_site_type_symbol
_atom_type_description
_atom_site_fract_x
_atom_site_fract_y
_atom_site_fract_z
_atom_type_partial_charge
C1    C     C_R   0.618734 0.118559 0.999863 0.566839
C2    C     C_R   0.496054 0.760386 0.675498 -0.004117
C3    C     C_R   0.505034 0.828396 0.744872 -0.008471
C4    C     C_R   0.497192 0.114709 0.118184 0.579000
C5    C     C_R   0.502416 0.817608 0.815054 0.054353
C6    C     C_R   0.319100 0.827963 0.080868 -0.017429
C7    C     C_R   0.259577 0.760647 0.083288 0.015899
C8    C     C_R   0.189638 0.686155 0.004331 0.014998
C9    C     C_R   0.183518 0.675545 0.925539 -0.147312
C10   C     C_R   0.246228 0.737389 0.922334 0.018400
C11   C     C_R   0.314470 0.814347 0.000594 -0.002746
C12   C     C_R   0.822817 0.242188 0.000878 0.000508
C13   C     C_R   0.619021 0.503998 0.622592 0.574566
C14   C     C_R   0.494667 0.385166 0.379690 0.565987
C15   C     C_R   0.381290 0.505652 0.386873 0.536437
C16   C     C_R   0.381175 0.880852 0.999631 0.569688
C17   C     C_R   0.497937 0.621266 0.618985 0.555197
C18   C     C_R   0.882762 0.502518 0.881979 0.570723
C19   C     C_R   0.881327 0.381164 0.000063 0.586533
C20   C     C_R   0.118615 0.499282 0.118278 0.577121
C21   C     C_R   0.120409 0.618876 0.001697 0.558650
C22   C     C_R   0.761914 0.587119 0.760374 0.073108
C23   C     C_R   0.814311 0.313836 0.999954 -0.004532
C24   C     C_R   0.828990 0.587099 0.823325 -0.034129
C25   C     C_R   0.818491 0.506495 0.816316 0.037469
C26   C     C_R   0.744296 0.428434 0.747773 -0.117273
C27   C     C_R   0.678820 0.428753 0.686357 -0.154071
C28   C     C_R   0.500690 0.882545 0.881913 0.564598
C29   C     C_R   0.687111 0.507107 0.691790 -0.003485
C30   C     C_R   0.322085 0.503546 0.249840 -0.147375
C31   C     C_R   0.259924 0.502653 0.183368 0.010643
C32   C     C_R   0.185311 0.500023 0.186883 -0.045435
C33   C     C_R   0.176505 0.502929 0.259418 0.042535
C34   C     C_R   0.742154 0.321731 0.999710 0.004309
C35   C     C_R   0.243591 0.510943 0.329398 -0.040856
C36   C     C_R   0.314463 0.507301 0.321737 -0.007018
C37   C     C_2   0.427006 0.233626 0.259799 -0.005284
C38   C     C_2   0.479623 0.321142 0.297376 -0.011903
C39   C     C_2   0.419906 0.173927 0.180629 -0.033107
C40   C     C_2   0.492848 0.173092 0.187221 -0.087388
C41   C     C_R   0.754623 0.174312 0.993755 -0.018690
C42   C     C_3   0.378570 0.191799 0.297447 -0.366793
C43   C     C_3   0.484997 0.764644 0.593905 -0.375587
C44   C     C_3   0.519656 0.912423 0.744141 -0.378984
C45   C     C_R   0.679998 0.259415 0.004126 0.009192
C46   C     C_3   0.386054 0.914888 0.162863 -0.376293
C47   C     C_3   0.273903 0.766537 0.169467 -0.351379
C48   C     C_2   0.237997 0.717809 0.835948 0.580469
C49   C     C_2   0.766331 0.669653 0.768161 0.583097
C50   C     C_3   0.910977 0.671095 0.897758 -0.358207
C51   C     C_3   0.520058 0.357563 0.250742 -0.371201
C52   C     C_2   0.277806 0.508236 0.113924 0.584523
C53   C     C_2   0.095836 0.494782 0.260962 0.590972
C54   C     C_3   0.239060 0.524903 0.411290 -0.358413
C55   C     C_3   0.332155 0.114011 0.099106 -0.362200
C56   C     C_R   0.685754 0.185296 0.999647 -0.017690
C57   C     C_3   0.754962 0.089913 0.977842 -0.371599
C58   C     C_3   0.904605 0.238060 0.010658 -0.341321
C59   C     C_2   0.731817 0.395417 0.995334 0.630178
C60   C     C_2   0.608403 0.271341 0.012527 0.630678
C61   C     C_3   0.495398 0.728396 0.892586 -0.354699
C62   C     C_R   0.497819 0.742628 0.819051 -0.017872
C63   C     C_R   0.495387 0.679280 0.753077 -0.105444
C64   C     C_R   0.495295 0.687851 0.682592 0.015582
Cu1   Cu    Cu3+1 0.438200 0.000380 0.938580 1.007880
Cu2   Cu    Cu3+1 0.561800 0.999620 0.061420 0.938660
Cu3   Cu    Cu3+1 0.438220 0.441470 0.503160 0.937941
Cu4   Cu    Cu3+1 0.561830 0.565070 0.503150 0.988606
Cu5   Cu    Cu3+1 0.999900 0.438590 0.938490 0.990809
Cu6   Cu    Cu3+1 0.999930 0.561410 0.061340 1.006693
H1    H     H_    0.494584 0.622856 0.756963 0.147277
H2    H     H_    0.452418 0.699499 0.536688 0.143430
H3    H     H_    0.442344 0.792162 0.576883 0.128795
H4    H     H_    0.549483 0.805511 0.603778 0.144046
H5    H     H_    0.550420 0.968224 0.809595 0.136458
H6    H     H_    0.565276 0.930846 0.720134 0.124006
H7    H     H_    0.456713 0.904448 0.701796 0.151767
H8    H     H_    0.367190 0.926592 0.213365 0.118423
H9    H     H_    0.450092 0.918277 0.189570 0.158153
H10   H     H_    0.392504 0.969007 0.149172 0.126231
H11   H     H_    0.344326 0.796676 0.215359 0.128158
H12   H     H_    0.129712 0.617279 0.865911 0.170442
H13   H     H_    0.247562 0.805573 0.197460 0.129774
H14   H     H_    0.243281 0.701786 0.163508 0.176517
H15   H     H_    0.158087 0.655735 0.706590 0.347430
H16   H     H_    0.713511 0.746732 0.784031 0.338867
H17   H     H_    0.918117 0.728942 0.891352 0.168177
H18   H     H_    0.911030 0.683777 0.959397 0.155578
H19   H     H_    0.969377 0.666290 0.902316 0.133939
H20   H     H_    0.542210 0.427655 0.275795 0.161006
H21   H     H_    0.577281 0.349316 0.258268 0.153029
H22   H     H_    0.471602 0.324599 0.180828 0.156987
H23   H     H_    0.736356 0.366961 0.742733 0.143407
H24   H     H_    0.331139 0.477191 0.040559 0.344776
H25   H     H_    0.040152 0.550157 0.317002 0.347859
H26   H     H_    0.298542 0.538834 0.465268 0.143760
H27   H     H_    0.231755 0.582547 0.436489 0.174453
H28   H     H_    0.182759 0.466891 0.397071 0.154513
H29   H     H_    0.315423 0.045372 0.077800 0.132453
H30   H     H_    0.280637 0.122544 0.110317 0.132977
H31   H     H_    0.332801 0.128953 0.047137 0.165954
H32   H     H_    0.688654 0.033668 0.944576 0.135735
H33   H     H_    0.781090 0.073303 0.934057 0.122931
H34   H     H_    0.621948 0.367424 0.633493 0.133273
H35   H     H_    0.795293 0.096045 0.040322 0.152909
H36   H     H_    0.920093 0.206090 0.048906 0.133980
H37   H     H_    0.895576 0.201648 0.945763 0.131896
H38   H     H_    0.962999 0.303391 0.046991 0.181273
H39   H     H_    0.716158 0.496829 0.048793 0.342998
H40   H     H_    0.508558 0.291858 0.965209 0.341617
H41   H     H_    0.483277 0.662418 0.880097 0.124499
H42   H     H_    0.558787 0.775869 0.953260 0.155589
H43   H     H_    0.442572 0.735595 0.901733 0.184352
H44   H     H_    0.378366 0.503067 0.246635 0.166051
H45   H     H_    0.551870 0.212624 0.250395 0.103564
H46   H     H_    0.344023 0.119868 0.258329 0.119030
H47   H     H_    0.424869 0.210358 0.363988 0.147758
H48   H     H_    0.328859 0.210873 0.297590 0.156996
O1    O     O_R   0.537990 0.090490 0.948120 -0.500776
O2    O     O_R   0.909750 0.552440 0.962210 -0.499483
O3    O     O_R   0.909720 0.357980 0.948050 -0.527576
O4    O     O_R   0.642370 0.089850 0.051860 -0.503043
O5    O     O_R   0.909750 0.461690 0.051790 -0.467648
O6    O     O_R   0.090070 0.447560 0.037620 -0.487228
O7    O     O_R   0.090100 0.551270 0.141360 -0.496032
O8    O     O_R   0.090070 0.538310 0.948030 -0.486655
O9    O     O_R   0.090100 0.642020 0.051770 -0.534561
O10   O     O_R   0.447800 0.089920 0.037730 -0.491914
O11   O     O_R   0.552180 0.089280 0.141460 -0.512926
O12   O     O_R   0.642390 0.554900 0.592760 -0.474896
O13   O     O_R   0.357630 0.910150 0.948140 -0.486116
O14   O     O_R   0.462010 0.909510 0.051880 -0.520389
O15   O     O_R   0.447820 0.910720 0.858540 -0.482736
O16   O     O_R   0.552200 0.910080 0.962270 -0.532606
O17   O     O_R   0.538000 0.450530 0.592770 -0.507301
O18   O     O_2   0.302547 0.744901 0.829039 -0.520165
O19   O     O_R   0.155554 0.665351 0.761513 -0.696500
O20   O     O_2   0.820847 0.717979 0.759572 -0.513660
O21   O     O_R   0.705372 0.689842 0.781633 -0.700306
O22   O     O_2   0.257648 0.550527 0.082413 -0.517352
O23   O     O_R   0.447840 0.361480 0.413570 -0.521348
O24   O     O_R   0.321514 0.467919 0.087198 -0.702886
O25   O     O_2   0.026172 0.428361 0.206600 -0.536594
O26   O     O_R   0.099397 0.563494 0.323225 -0.699957
O27   O     O_2   0.731394 0.408831 0.936151 -0.510781
O28   O     O_R   0.722740 0.449216 0.058925 -0.660585
O29   O     O_2   0.596625 0.269344 0.071819 -0.508953
O30   O     O_R   0.554639 0.284595 0.952537 -0.667495
O31   O     O_R   0.552220 0.465860 0.413560 -0.509573
O32   O     O_R   0.357660 0.451630 0.413550 -0.511857
O33   O     O_R   0.462040 0.556010 0.413540 -0.524115
O34   O     O_R   0.447820 0.540680 0.592750 -0.517067
O35   O     O_R   0.552200 0.645050 0.592740 -0.497568
O36   O     O_R   0.909730 0.448730 0.858460 -0.518984

loop_
_geom_bond_atom_site_label_1
_geom_bond_atom_site_label_2
_ccdc_geom_bond_type
Cu6   O9    S    
C43   H3    S    
C57   H35   S    
C45   C60   S    
C43   H2    S    
C22   C29   A    
H15   O19   S    
C27   C29   A    
C19   C23   S    
H39   O28   S    
C31   C52   S    
C17   O35   A    
C15   O33   A    
C7    C8    A    
C57   H32   S    
C12   C23   A    
C19   O5    A    
C26   C27   A    
C37   C38   D    
C48   O19   S    
C28   O16   A    
C13   C29   S    
C44   H7    S    
C1    C56   S    
C10   C48   S    
C51   H20   S    
C20   C32   S    
C30   C31   A    
C40   H45   S    
C27   H34   S    
C58   H37   S    
C1    O1    A    
C37   C42   S    
C44   H6    S    
C16   O13   A    
C1    O4    A    
Cu4   O31   S    
C51   H21   S    
Cu2   O16   S    
Cu6   O5    S    
C39   C55   S    
C4    C40   S    
C45   C56   A    
Cu6   O2    S    
C8    C9    A    
C55   H30   S    
C13   O12   A    
Cu2   O4    S    
C54   H27   S    
C60   O29   D    
C47   H13   S    
C21   O9    A    
C9    C10   A    
C54   H26   S    
C18   O36   A    
C50   H18   S    
C9    H12   S    
Cu2   O11   S    
C12   C58   S    
C26   H23   S    
C14   O23   A    
H25   O26   S    
C49   O20   D    
C35   C54   S    
C24   C50   S    
C13   O17   A    
Cu5   Cu6   S    
C18   C25   S    
H40   O30   S    
Cu1   O13   S    
C2    C64   A    
Cu2   O14   S    
C33   C53   S    
C57   H33   S    
C3    C44   S    
C4    O10   A    
Cu3   Cu4   S    
H24   O24   S    
Cu1   O10   S    
C24   C25   A    
Cu4   O35   S    
C6    C11   A    
C46   H8    S    
C42   H48   S    
C38   C51   S    
Cu5   O6    S    
C25   C26   A    
C52   O24   S    
C28   O15   A    
C58   H36   S    
C35   C36   A    
C7    C47   S    
C44   H5    S    
Cu3   O17   S    
C41   C56   A    
C62   C63   A    
C51   H22   S    
C14   C38   S    
C5    C28   S    
C11   C16   S    
C50   H19   S    
C31   C32   A    
Cu5   O3    S    
C2    C43   S    
C52   O22   D    
C23   C34   A    
C8    C21   S    
Cu1   O1    S    
C34   C45   A    
C47   H14   S    
Cu4   O12   S    
C6    C7    A    
H16   O21   S    
C22   C49   S    
C59   O27   D    
Cu6   O7    S    
C42   H46   S    
C63   H1    S    
Cu5   O8    S    
C49   O21   S    
C61   H43   S    
C34   C59   S    
C22   C24   A    
C17   O34   A    
Cu3   O23   S    
C18   O2    A    
C15   C36   S    
C39   C40   D    
C12   C41   A    
C30   H44   S    
C19   O3    A    
C6    C46   S    
Cu3   O34   S    
C48   O18   D    
C50   H17   S    
C3    C5    A    
C42   H47   S    
C4    O11   A    
C55   H31   S    
Cu5   O36   S    
C30   C36   A    
C53   O26   S    
C32   C33   A    
C2    C3    A    
C41   C57   S    
C20   O7    A    
C37   C39   S    
Cu4   O33   S    
C46   H10   S    
C46   H9    S    
C43   H4    S    
C14   O31   A    
C33   C35   A    
C5    C62   A    
C58   H38   S    
C47   H11   S    
C61   C62   S    
C16   O14   A    
C20   O6    A    
C10   C11   A    
C63   C64   A    
C59   O28   S    
Cu1   Cu2   S    
C55   H29   S    
C54   H28   S    
C17   C64   S    
C60   O30   S    
C53   O25   D    
C21   O8    A    
C61   H42   S    
C15   O32   A    
Cu1   O15   S    
Cu3   O32   S    
C61   H41   S    
