data_mof_unit_43297.cif
_audit_creation_date              2012-12-10T20:39:13-0500
_audit_creation_method            fapswitch 2.2
_symmetry_space_group_name_H-M    P1
_symmetry_Int_Tables_number       1
_space_group_crystal_system       triclinic
_cell_length_a                    18.765379
_cell_length_b                    10.777013
_cell_length_c                    9.886854
_cell_angle_alpha                 88.439895
_cell_angle_beta                  91.007563
_cell_angle_gamma                 89.380225
_cell_volume                      1998.28744453

loop_
_atom_site_label
_atom_site_type_symbol
_atom_type_description
_atom_site_fract_x
_atom_site_fract_y
_atom_site_fract_z
_atom_type_partial_charge
C1    C     C_R   0.505160 0.260163 0.501477 0.942578
C2    C     C_R   0.851130 0.627294 0.488027 -0.059845
C3    C     C_R   0.497361 0.058837 0.619724 -0.052057
C4    C     C_R   0.364764 0.505032 0.498797 0.852845
C5    C     C_R   0.512382 0.127415 0.502528 -0.184362
C6    C     C_R   0.528512 0.065437 0.382555 0.479808
C7    C     C_R   0.519991 0.937498 0.377743 -0.370017
C8    C     C_R   0.503665 0.870850 0.496070 -0.135493
C9    C     C_R   0.495366 0.932433 0.615932 -0.132780
C10   C     C_3   0.529195 0.915393 0.753904 0.177580
C11   C     C_3   0.532880 0.058662 0.757630 0.824451
C12   C     C_R   0.288884 0.536599 0.494659 -0.036751
C13   C     C_R   0.438118 0.484855 0.069532 0.174262
C14   C     C_R   0.559139 0.531426 0.072812 -0.154883
C15   C     C_R   0.559035 0.531781 0.928830 -0.097377
C16   C     C_R   0.500271 0.739499 0.498303 0.895100
C17   C     C_R   0.437835 0.485760 0.927185 0.190821
C18   C     C_3   0.388729 0.377998 0.923047 0.242744
C19   C     C_3   0.389695 0.376823 0.077402 -0.600471
C20   C     C_R   0.635350 0.506386 0.500919 0.902636
C21   C     C_R   0.258817 0.600124 0.602083 -0.160689
C22   C     C_R   0.188363 0.641242 0.593254 -0.185889
C23   C     C_R   0.926872 0.655526 0.478773 0.374450
C24   C     C_R   0.147196 0.620304 0.476359 0.087938
C25   C     C_R   0.177850 0.558806 0.368014 -0.159401
C26   C     C_R   0.248097 0.517051 0.377414 -0.200372
C27   C     C_3   0.643150 0.855429 0.662320 0.181085
C28   C     C_3   0.716278 0.812316 0.714218 -0.874337
C29   C     C_3   0.490352 0.074174 0.981324 0.007472
C30   C     C_3   0.417602 0.028965 0.026162 -0.855177
C31   C     C_3   0.641455 0.109617 0.865041 0.105807
C32   C     C_3   0.717972 0.141261 0.830982 -0.850505
C33   C     C_3   0.278696 0.306163 0.858511 0.106241
C34   C     C_R   0.070731 0.649378 0.473363 0.276808
C35   C     C_3   0.205319 0.342350 0.801688 -0.810576
C36   C     C_3   0.776919 0.463726 0.842743 0.081674
C37   C     C_3   0.736020 0.436159 0.971154 -0.901093
C38   C     C_3   0.797101 0.727517 0.154728 0.136657
C39   C     C_3   0.738718 0.822830 0.117305 -0.919558
C40   C     C_3   0.627961 0.103350 0.257276 0.051317
C41   C     C_3   0.667477 0.224530 0.236006 -0.798364
C42   C     C_R   0.829017 0.554747 0.598686 -0.393353
C43   C     C_R   0.757446 0.518173 0.611572 0.491441
C44   C     C_R   0.710739 0.542789 0.500289 -0.173653
C45   C     C_R   0.733292 0.616536 0.389742 -0.414790
C46   C     C_R   0.803245 0.661409 0.383151 0.527043
H1    H     H_    0.289913 0.619339 0.692290 0.191333
H2    H     H_    0.530407 0.890752 0.284322 0.181446
H3    H     H_    0.647283 0.949817 0.616033 0.169826
H4    H     H_    0.627822 0.789891 0.583198 0.139461
H5    H     H_    0.712915 0.715664 0.754418 0.272249
H6    H     H_    0.755217 0.816693 0.631040 0.226473
H7    H     H_    0.735178 0.870115 0.797952 0.251271
H8    H     H_    0.505452 0.153464 0.043979 0.228087
H9    H     H_    0.530231 0.998618 0.001494 0.128018
H10   H     H_    0.401455 0.946855 0.968231 0.242718
H11   H     H_    0.419872 0.002690 0.135515 0.242701
H12   H     H_    0.489244 0.875000 0.823176 0.115886
H13   H     H_    0.376752 0.103167 0.009366 0.241840
H14   H     H_    0.641792 0.015825 0.914280 0.160147
H15   H     H_    0.621372 0.179185 0.936183 0.159590
H16   H     H_    0.719210 0.231964 0.776432 0.312034
H17   H     H_    0.751147 0.144206 0.924941 0.211363
H18   H     H_    0.740930 0.072625 0.762491 0.252180
H19   H     H_    0.606407 0.557253 0.874842 0.204576
H20   H     H_    0.271613 0.262295 0.960639 0.139847
H21   H     H_    0.302756 0.237098 0.790431 0.148750
H22   H     H_    0.209179 0.372135 0.693860 0.261420
H23   H     H_    0.606969 0.555765 0.127787 0.151873
H24   H     H_    0.169441 0.261223 0.808200 0.206595
H25   H     H_    0.182191 0.419074 0.860196 0.261242
H26   H     H_    0.147175 0.540018 0.277207 0.151360
H27   H     H_    0.270411 0.469404 0.293109 0.146407
H28   H     H_    0.800762 0.557113 0.855060 0.140942
H29   H     H_    0.819558 0.392002 0.834180 0.157852
H30   H     H_    0.696014 0.363218 0.955446 0.279737
H31   H     H_    0.773399 0.406111 0.054310 0.221649
H32   H     H_    0.708048 0.521359 0.001585 0.225670
H33   H     H_    0.778072 0.631435 0.141508 0.118935
H34   H     H_    0.414146 0.297463 0.875779 0.171423
H35   H     H_    0.840894 0.739642 0.081603 0.171663
H36   H     H_    0.762493 0.915798 0.100515 0.258679
H37   H     H_    0.710639 0.795366 0.023295 0.235709
H38   H     H_    0.699117 0.829483 0.198802 0.244844
H39   H     H_    0.634631 0.045896 0.166840 0.135743
H40   H     H_    0.653730 0.052189 0.345470 0.140341
H41   H     H_    0.640111 0.282704 0.156232 0.257201
H42   H     H_    0.668716 0.276259 0.331560 0.257367
H43   H     H_    0.723031 0.205152 0.205224 0.205456
H44   H     H_    0.337615 0.401753 0.120819 0.213140
H45   H     H_    0.166012 0.688255 0.678424 0.155303
H46   H     H_    0.415979 0.293475 0.125113 0.206543
H47   H     H_    0.868824 0.526450 0.674005 0.158492
H48   H     H_    0.694809 0.643516 0.311646 0.182382
N1    N     N_R   0.031587 0.637021 0.357877 -0.185242
N2    N     N_R   0.960832 0.640014 0.360500 -0.144234
N3    N     N_R   0.965942 0.673587 0.593048 -0.187087
N4    N     N_R   0.036632 0.671001 0.590287 -0.183779
N5    N     N_R   0.499530 0.499140 0.142800 -0.093213
N6    N     N_R   0.499530 0.499180 0.857150 -0.135075
O1    O     O_R   0.500010 0.316790 0.614690 -0.583183
O2    O     O_3   0.485846 0.119013 0.845717 -0.671948
O3    O     O_3   0.600330 0.115768 0.744557 -0.630048
O4    O     O_3   0.321570 0.412853 0.866445 -0.587471
O5    O     O_3   0.730514 0.460110 0.728099 -0.614320
O6    O     O_3   0.825021 0.748646 0.285837 -0.610710
O7    O     O_3   0.554463 0.129964 0.271829 -0.623507
O8    O     O_R   0.500000 0.316760 0.385350 -0.569886
O9    O     O_R   0.398140 0.500000 0.614710 -0.596720
O10   O     O_R   0.398130 0.499970 0.385370 -0.617668
O11   O     O_R   0.500000 0.683240 0.614650 -0.601125
O12   O     O_R   0.499990 0.683210 0.385310 -0.629572
O13   O     O_R   0.601870 0.500030 0.614630 -0.562847
O14   O     O_R   0.601860 0.500000 0.385290 -0.640590
O15   O     O_3   0.595201 0.848726 0.771164 -0.621734
Zn1   Zn    Zn3+2 0.500000 0.500020 0.653130 1.007764
Zn2   Zn    Zn3+2 0.500000 0.499980 0.346870 0.955466

loop_
_geom_bond_atom_site_label_1
_geom_bond_atom_site_label_2
_ccdc_geom_bond_type
C31   H14   S    
C41   H43   S    
C4    O9    A    
C13   N5    A    
C33   O4    S    
C31   H15   S    
N1    N2    A    
N6    Zn1   S    
C15   N6    A    
N3    N4    A    
C7    C8    A    
C45   C46   A    
C2    C46   A    
C16   O12   A    
C1    C5    S    
C36   C37   S    
C10   H12   S    
C39   H38   S    
O12   Zn2   S    
C28   H5    S    
C38   H33   S    
C42   H47   S    
C30   H11   S    
C26   H27   S    
C23   N2    A    
C18   C19   S    
C43   O5    S    
C40   H40   S    
C19   H46   S    
O9    Zn1   S    
C34   N4    A    
C35   H24   S    
C8    C9    A    
C22   H45   S    
O11   Zn1   S    
C4    C12   S    
C9    C10   S    
C27   H4    S    
O13   Zn1   S    
C35   H25   S    
C8    C16   S    
C21   C22   A    
C45   H48   S    
O10   Zn2   S    
C20   C44   S    
C33   H20   S    
C38   C39   S    
C41   H41   S    
C13   C19   S    
C14   N5    A    
C24   C25   A    
C32   H18   S    
C29   H9    S    
C25   C26   A    
C30   H10   S    
C12   C21   A    
C24   C34   S    
C12   C26   A    
C31   O3    S    
C40   H39   S    
C38   O6    S    
C43   C44   A    
C29   C30   S    
C3    C9    A    
C36   H29   S    
N5    Zn2   S    
C31   C32   S    
C6    O7    S    
C30   H13   S    
C17   C18   S    
C25   H26   S    
C18   O4    S    
C34   N1    A    
C36   H28   S    
C40   O7    S    
C40   C41   S    
C23   N3    A    
C37   H30   S    
C38   H35   S    
C14   H23   S    
C22   C24   A    
C42   C43   A    
C1    O1    A    
C2    C23   S    
C44   C45   A    
C33   H21   S    
C41   H42   S    
C4    O10   A    
C36   O5    S    
O8    Zn2   S    
C39   H36   S    
C3    C5    A    
C28   H7    S    
C6    C7    A    
C32   H17   S    
C37   H32   S    
C13   C17   A    
C7    H2    S    
C32   H16   S    
C19   H44   S    
C20   O14   A    
C28   H6    S    
C5    C6    A    
C37   H31   S    
C35   H22   S    
C2    C42   A    
C46   O6    S    
C33   C35   S    
C29   O2    S    
C11   O2    S    
C20   O13   A    
C17   N6    A    
O14   Zn2   S    
C3    C11   S    
C10   C11   S    
C1    O8    A    
C39   H37   S    
C18   H34   S    
C29   H8    S    
C27   C28   S    
O1    Zn1   S    
C14   C15   A    
C11   O3    S    
C10   O15   S    
C27   H3    S    
C16   O11   A    
C27   O15   S    
C21   H1    S    
C15   H19   S    
