data_mof_unit_17500.cif
_audit_creation_date              2012-12-10T17:59:16-0500
_audit_creation_method            fapswitch 2.2
_symmetry_space_group_name_H-M    P1
_symmetry_Int_Tables_number       1
_space_group_crystal_system       triclinic
_cell_length_a                    10.795389
_cell_length_b                    9.622046
_cell_length_c                    10.716482
_cell_angle_alpha                 89.408515
_cell_angle_beta                  93.199212
_cell_angle_gamma                 90.561517
_cell_volume                      1111.31947117

loop_
_atom_site_label
_atom_site_type_symbol
_atom_type_description
_atom_site_fract_x
_atom_site_fract_y
_atom_site_fract_z
_atom_type_partial_charge
C1    C     C_R   0.262124 0.499510 0.494190 0.764068
C2    C     C_3   0.617855 0.489486 0.934933 -0.375230
C3    C     C_R   0.062302 0.372000 0.481815 -0.197298
C4    C     C_R   0.063151 0.622600 0.456615 -0.192245
C5    C     C_R   0.933939 0.371997 0.474742 -0.202136
C6    C     C_R   0.934480 0.621354 0.449692 -0.167527
C7    C     C_R   0.869827 0.498115 0.471660 -0.024794
C8    C     C_R   0.127557 0.498301 0.479471 -0.018017
C9    C     C_R   0.422530 0.074122 0.419037 -0.064456
C10   C     C_R   0.418711 0.925957 0.422941 -0.063612
C11   C     C_R   0.585354 0.926940 0.572839 0.064666
C12   C     C_R   0.573698 0.072952 0.584885 0.066873
C13   C     C_R   0.492620 0.500524 0.260018 0.735554
C14   C     C_R   0.736853 0.500057 0.490030 0.797539
C15   C     C_R   0.490017 0.499959 0.739048 0.762661
C16   C     C_3   0.432879 0.640320 0.067848 -0.375777
C17   C     C_3   0.404202 0.380288 0.068818 -0.379741
C18   C     C_3   0.425856 0.638039 0.923847 -0.379801
C19   C     C_3   0.402102 0.380974 0.924687 -0.379720
C20   C     C_3   0.619635 0.483859 0.078113 -0.386714
C21   C     C_3   0.486971 0.501500 0.121749 0.177452
C22   C     C_3   0.483947 0.501721 0.877274 0.160385
Cu1   Cu    Cu3+1 0.500020 0.640660 0.500000 0.930623
Cu2   Cu    Cu3+1 0.500020 0.359340 0.500000 0.930114
H1    H     H_    0.492470 0.729477 0.100157 0.173320
H2    H     H_    0.440157 0.278502 0.104508 0.171100
H3    H     H_    0.338585 0.656943 0.101698 0.147877
H4    H     H_    0.308054 0.390659 0.099808 0.146204
H5    H     H_    0.327310 0.645082 0.888010 0.153783
H6    H     H_    0.304959 0.392342 0.885656 0.145497
H7    H     H_    0.473133 0.732069 0.889437 0.163511
H8    H     H_    0.434418 0.279961 0.892756 0.190048
H9    H     H_    0.681701 0.567561 0.117461 0.149764
H10   H     H_    0.658341 0.382682 0.112256 0.167357
H11   H     H_    0.674273 0.579446 0.905704 0.149758
H12   H     H_    0.661824 0.395973 0.899519 0.195909
H13   H     H_    0.109916 0.273493 0.490402 0.146393
H14   H     H_    0.111750 0.720458 0.444810 0.138196
H15   H     H_    0.885850 0.273381 0.471439 0.135781
H16   H     H_    0.885551 0.715965 0.427017 0.153454
H17   H     H_    0.360302 0.129297 0.353689 0.120016
H18   H     H_    0.353134 0.870844 0.361008 0.118448
N1    N     N_R   0.500030 0.852070 0.500030 -0.178227
N2    N     N_R   0.500030 0.147930 0.500030 -0.178178
O1    O     O_R   0.319660 0.618740 0.499990 -0.588648
O2    O     O_R   0.319660 0.381260 0.499990 -0.589059
O3    O     O_R   0.499990 0.618790 0.317690 -0.591228
O4    O     O_R   0.499990 0.381210 0.317690 -0.590281
O5    O     O_R   0.680370 0.618830 0.500010 -0.569557
O6    O     O_R   0.680370 0.381170 0.500010 -0.590854
O7    O     O_R   0.500030 0.618780 0.682310 -0.590929
O8    O     O_R   0.500030 0.381220 0.682310 -0.572742
C23   C     C_R   0.704695 0.867870 0.623315 0.182868
C24   C     C_R   0.716471 0.808475 0.743291 -0.090802
C25   C     C_R   0.833629 0.782544 0.800927 -0.163060
C26   C     C_R   0.940535 0.820654 0.741141 -0.082716
C27   C     C_R   0.930310 0.886188 0.624420 -0.146806
C28   C     C_R   0.813262 0.908775 0.565436 -0.211605
H19   H     H_    0.635934 0.791775 0.795601 0.117434
H20   H     H_    0.841811 0.738185 0.894173 0.115302
H21   H     H_    0.031106 0.802672 0.786593 0.113782
H22   H     H_    0.012974 0.919594 0.579415 0.120528
H23   H     H_    0.806995 0.963295 0.476351 0.110028
C29   C     C_R   0.627354 0.131327 0.704105 0.177088
C30   C     C_R   0.749791 0.181745 0.713603 -0.103689
C31   C     C_R   0.814752 0.192421 0.829751 -0.168496
C32   C     C_R   0.758328 0.151156 0.938417 -0.129069
C33   C     C_R   0.636201 0.101715 0.930920 -0.161458
C34   C     C_R   0.571535 0.090920 0.814552 -0.207909
H24   H     H_    0.798809 0.200057 0.631120 0.126062
H25   H     H_    0.910130 0.228597 0.835016 0.130908
H26   H     H_    0.808971 0.157911 0.028211 0.122250
H27   H     H_    0.592461 0.068772 0.014864 0.126095
H28   H     H_    0.479830 0.043805 0.809789 0.113685

loop_
_geom_bond_atom_site_label_1
_geom_bond_atom_site_label_2
_ccdc_geom_bond_type
C2    H11   S    
Cu2   O8    S    
C25   C26   A    
C16   C21   S    
Cu1   O1    S    
C10   H18   S    
C1    C8    S    
C4    C8    A    
C27   H22   S    
C23   C24   A    
C17   H2    S    
C12   C29   S    
C1    O2    A    
Cu1   O5    S    
C14   O5    A    
C30   H24   S    
C16   H1    S    
Cu1   N1    S    
C26   C27   A    
C32   H26   S    
C7    C14   S    
C33   C34   A    
C2    C22   S    
Cu1   Cu2   S    
C11   N1    A    
C15   O7    A    
C9    C10   A    
C11   C23   S    
C20   H10   S    
C16   H3    S    
C31   C32   A    
C25   H20   S    
C19   H8    S    
C24   H19   S    
C15   C22   S    
Cu2   O6    S    
Cu1   O3    S    
C2    C20   S    
C32   C33   A    
Cu2   O4    S    
C19   C22   S    
C4    C6    A    
C3    C8    A    
C5    C7    A    
C33   H27   S    
C15   O8    A    
C17   C21   S    
Cu1   O7    S    
C31   H25   S    
C11   C12   A    
C13   C21   S    
C34   H28   S    
C18   H5    S    
C29   C34   A    
C20   H9    S    
C4    H14   S    
C5    H15   S    
Cu2   N2    S    
C6    H16   S    
C13   O3    A    
C2    H12   S    
C28   H23   S    
C24   C25   A    
C9    N2    A    
C10   N1    A    
C18   C22   S    
C17   H4    S    
C3    C5    A    
C13   O4    A    
C23   C28   A    
C6    C7    A    
C9    H17   S    
Cu2   O2    S    
C29   C30   A    
C12   N2    A    
C1    O1    A    
C27   C28   A    
C14   O6    A    
C17   C19   S    
C20   C21   S    
C3    H13   S    
C16   C18   S    
C30   C31   A    
C26   H21   S    
C18   H7    S    
C19   H6    S    
