data_mof_unit_15506.cif
_audit_creation_date              2012-12-10T18:29:33-0500
_audit_creation_method            fapswitch 2.2
_symmetry_space_group_name_H-M    P1
_symmetry_Int_Tables_number       1
_space_group_crystal_system       triclinic
_cell_length_a                    11.555675
_cell_length_b                    15.080513
_cell_length_c                    15.373797
_cell_angle_alpha                 82.709074
_cell_angle_beta                  90.721893
_cell_angle_gamma                 105.444097
_cell_volume                      2560.87213585

loop_
_atom_site_label
_atom_site_type_symbol
_atom_type_description
_atom_site_fract_x
_atom_site_fract_y
_atom_site_fract_z
_atom_type_partial_charge
C1    C     C_R   0.480700 0.442288 0.662440 0.848402
C2    C     C_R   0.513621 0.557583 0.337176 0.855619
C3    C     C_R   0.372571 0.346014 0.928594 0.126208
C4    C     C_R   0.433197 0.639156 0.072152 0.126582
C5    C     C_R   0.385265 0.505787 0.954681 0.001996
C6    C     C_R   0.385675 0.476510 0.045668 0.006553
C7    C     C_R   0.345782 0.379665 0.075197 0.214389
C8    C     C_R   0.377493 0.597986 0.926690 0.180898
C9    C     C_R   0.341264 0.315678 0.016343 -0.250022
C10   C     C_R   0.403204 0.663693 0.985889 -0.251503
C11   C     C_R   0.632302 0.830408 0.664252 0.077278
C12   C     C_R   0.315952 0.147900 0.365629 0.110142
C13   C     C_R   0.636272 0.752912 0.623988 0.300999
C14   C     C_R   0.336284 0.235958 0.395439 0.266809
C15   C     C_R   0.513409 0.794229 0.509926 -0.106425
C16   C     C_R   0.495912 0.208306 0.483975 -0.096912
C17   C     C_R   0.522788 0.881314 0.540109 -0.054219
C18   C     C_R   0.462390 0.113638 0.469169 -0.059564
C19   C     C_R   0.592620 0.901918 0.615258 0.011867
C20   C     C_R   0.391187 0.091550 0.395824 0.020021
C21   C     C_R   0.472427 0.950335 0.494569 -0.003957
C22   C     C_R   0.499739 0.041256 0.521736 -0.004710
C23   C     C_R   0.718381 0.501715 0.500484 0.901396
C24   C     C_R   0.281628 0.498295 0.499703 0.907180
C25   C     C_R   0.556713 0.054316 0.603006 0.193788
C26   C     C_R   0.397037 0.932676 0.421662 0.176460
C27   C     C_R   0.623259 0.993568 0.637655 0.162350
C28   C     C_R   0.384663 0.007471 0.362943 0.171101
C29   C     C_1   0.839946 0.504393 0.501372 -0.205014
C30   C     C_1   0.160135 0.495784 0.499320 -0.201832
C31   C     C_1   0.941476 0.502349 0.501024 0.000978
C32   C     C_1   0.058654 0.497920 0.499957 -0.006604
C33   C     C_R   0.449420 0.407733 0.754679 -0.063109
C34   C     C_R   0.498979 0.589896 0.244268 -0.067264
C35   C     C_R   0.381625 0.282016 0.872031 -0.190742
C36   C     C_R   0.467972 0.706748 0.129400 -0.190136
C37   C     C_R   0.418645 0.312697 0.785037 -0.193103
C38   C     C_R   0.498174 0.681840 0.215671 -0.189883
C39   C     C_R   0.439997 0.471120 0.811323 -0.255886
C40   C     C_R   0.469693 0.524084 0.185598 -0.254859
C41   C     C_R   0.395220 0.441550 0.896986 0.088632
C42   C     C_R   0.426365 0.545325 0.102243 0.091848
H1    H     H_    0.314501 0.241953 0.039563 0.150537
H2    H     H_    0.399851 0.734296 0.964335 0.153525
H3    H     H_    0.480764 0.455647 0.205657 0.182918
H4    H     H_    0.470358 0.544175 0.788606 0.180749
H5    H     H_    0.519601 0.734049 0.259962 0.148852
H6    H     H_    0.423870 0.262381 0.741926 0.161113
H7    H     H_    0.361290 0.208516 0.895320 0.133273
H8    H     H_    0.470159 0.778453 0.107831 0.134845
H9    H     H_    0.569146 0.234484 0.525886 0.169991
H10   H     H_    0.471771 0.776267 0.449596 0.169840
N1    N     N_R   0.566020 0.731700 0.552730 -0.134933
N2    N     N_R   0.433980 0.268300 0.447270 -0.125896
O1    O     O_R   0.466720 0.383110 0.605620 -0.613665
O2    O     O_R   0.533280 0.616890 0.394380 -0.616383
O3    O     O_R   0.509090 0.531900 0.639510 -0.605058
O4    O     O_R   0.490910 0.468100 0.360490 -0.627081
O5    O     O_R   0.644370 0.425610 0.483050 -0.606514
O6    O     O_R   0.355630 0.574390 0.516950 -0.601273
O7    O     O_R   0.686740 0.574390 0.516930 -0.620324
O8    O     O_R   0.313260 0.425610 0.483070 -0.617318
Zn1   Zn    Zn3+2 0.471710 0.400660 0.477370 0.925520
Zn2   Zn    Zn3+2 0.528290 0.599340 0.522630 0.935954
C43   C     C_3   0.527653 0.117458 0.663948 -0.951780
H11   H     H_    0.510835 0.080249 0.731648 0.235699
H12   H     H_    0.602892 0.180559 0.666008 0.241780
H13   H     H_    0.443552 0.136771 0.645799 0.245351
C44   C     C_3   0.301746 0.842125 0.417659 -0.936742
H14   H     H_    0.213270 0.856157 0.403454 0.238480
H15   H     H_    0.323250 0.805160 0.364593 0.239921
H16   H     H_    0.288796 0.796817 0.481510 0.253871
C45   C     C_3   0.289336 0.341320 0.163993 -0.987743
H17   H     H_    0.350111 0.307429 0.203903 0.244040
H18   H     H_    0.267084 0.395589 0.197790 0.248820
H19   H     H_    0.202793 0.288876 0.157033 0.245923
C46   C     C_3   0.323486 0.625409 0.840773 -0.918579
H20   H     H_    0.393779 0.672943 0.795800 0.241897
H21   H     H_    0.276440 0.564257 0.808715 0.251620
H22   H     H_    0.254613 0.661993 0.852677 0.244927
C47   C     C_3   0.737798 0.034014 0.685988 -0.410366
C48   C     C_3   0.824487 0.113557 0.628082 -0.869970
H23   H     H_    0.847169 0.089070 0.566921 0.256800
H24   H     H_    0.785476 0.172948 0.610459 0.262703
H25   H     H_    0.908671 0.138460 0.663828 0.249678
H26   H     H_    0.715661 0.058733 0.747114 0.212317
H27   H     H_    0.789648 0.982857 0.704035 0.226379
C49   C     C_3   0.371882 0.997481 0.265660 -0.408383
C50   C     C_3   0.479450 0.971437 0.229725 -0.884205
H28   H     H_    0.564000 0.024350 0.240674 0.262728
H29   H     H_    0.484971 0.902543 0.261913 0.256687
H30   H     H_    0.469844 0.968159 0.158156 0.245223
H31   H     H_    0.288407 0.943711 0.254276 0.212644
H32   H     H_    0.368240 0.063893 0.226787 0.223538
C51   C     C_3   0.241442 0.288056 0.377540 -0.354457
C52   C     C_3   0.148958 0.264217 0.453731 -0.798416
H33   H     H_    0.193038 0.267817 0.518251 0.273248
H34   H     H_    0.090986 0.312556 0.445665 0.246866
H35   H     H_    0.090070 0.192829 0.455041 0.227446
H36   H     H_    0.282940 0.362511 0.358790 0.236166
H37   H     H_    0.189954 0.270391 0.318384 0.194358
C53   C     C_3   0.747786 0.718324 0.640622 -0.349290
C54   C     C_3   0.735105 0.637770 0.714278 -0.789590
H38   H     H_    0.665037 0.636250 0.763230 0.245814
H39   H     H_    0.715542 0.570736 0.687530 0.262233
H40   H     H_    0.821522 0.645204 0.748809 0.225832
H41   H     H_    0.782939 0.703461 0.579343 0.216136
H42   H     H_    0.822190 0.776708 0.658188 0.168842
C55   C     C_3   0.653617 0.827426 0.762034 -0.952325
H43   H     H_    0.599522 0.760565 0.796730 0.249156
H44   H     H_    0.749603 0.834026 0.776602 0.244846
H45   H     H_    0.623653 0.881837 0.790437 0.243872
C56   C     C_3   0.202492 0.107877 0.315807 -0.976888
H46   H     H_    0.121421 0.117530 0.346325 0.253335
H47   H     H_    0.211473 0.140712 0.246601 0.239755
H48   H     H_    0.180199 0.031706 0.317509 0.245376

loop_
_geom_bond_atom_site_label_1
_geom_bond_atom_site_label_2
_ccdc_geom_bond_type
C21   C26   A    
C4    C36   A    
C11   C55   S    
C45   H17   S    
C51   C52   S    
C16   H9    S    
C47   C48   S    
C1    C33   S    
C39   C41   A    
C46   H20   S    
C23   O5    A    
C11   C19   A    
C33   C39   A    
C34   C40   A    
C15   N1    A    
C35   C37   A    
C56   H46   S    
C55   H44   S    
C5    C6    A    
N1    Zn2   S    
N2    Zn1   S    
C52   H35   S    
C15   C17   A    
C44   H15   S    
C43   H12   S    
C22   C25   A    
O1    Zn1   S    
C28   C49   S    
O2    Zn2   S    
C53   H42   S    
C50   H29   S    
C19   C27   A    
C47   H26   S    
C56   H48   S    
C2    C34   S    
C40   C42   A    
C34   C38   A    
C21   C22   A    
C45   H18   S    
C44   H14   S    
C13   N1    A    
C46   H21   S    
C40   H3    S    
C49   H32   S    
C9    H1    S    
C10   H2    S    
C27   C47   S    
C25   C43   S    
C7    C45   S    
C55   H45   S    
C51   H36   S    
C20   C28   A    
C33   C37   A    
C52   H34   S    
C50   H30   S    
O7    Zn2   S    
C35   H7    S    
O8    Zn1   S    
C3    C9    A    
C1    O3    A    
C31   C32   S    
C3    C35   A    
C24   O6    A    
C43   H13   S    
C52   H33   S    
C12   C20   A    
C53   H41   S    
C54   H39   S    
C15   H10   S    
C37   H6    S    
C38   H5    S    
C47   H27   S    
C39   H4    S    
C16   C18   A    
C14   N2    A    
C12   C14   A    
C43   H11   S    
C48   H24   S    
C8    C46   S    
C45   H19   S    
C4    C10   A    
C50   H28   S    
C23   C29   S    
C14   C51   S    
C44   H16   S    
C36   H8    S    
O3    Zn2   S    
C12   C56   S    
C46   H22   S    
O4    Zn1   S    
C7    C9    A    
C5    C41   A    
C49   H31   S    
C3    C41   A    
C24   O8    A    
C18   C22   A    
C26   C28   A    
C5    C8    A    
C2    O4    A    
C6    C7    A    
C25   C27   A    
C48   H25   S    
O5    Zn1   S    
O6    Zn2   S    
C16   N2    A    
C36   C38   A    
C1    O1    A    
C29   C31   T    
C2    O2    A    
C55   H43   S    
C30   C32   T    
C11   C13   A    
C4    C42   A    
C17   C19   A    
C54   H40   S    
C18   C20   A    
C53   C54   S    
C24   C30   S    
C23   O7    A    
C49   C50   S    
C8    C10   A    
C48   H23   S    
C6    C42   A    
C54   H38   S    
C26   C44   S    
C13   C53   S    
C51   H37   S    
C56   H47   S    
C17   C21   A    
