data_mof_unit_47852.cif
_audit_creation_date              2012-12-10T17:11:03-0500
_audit_creation_method            fapswitch 2.2
_symmetry_space_group_name_H-M    P1
_symmetry_Int_Tables_number       1
_space_group_crystal_system       triclinic
_cell_length_a                    11.663543
_cell_length_b                    13.008625
_cell_length_c                    13.447442
_cell_angle_alpha                 91.995473
_cell_angle_beta                  76.469345
_cell_angle_gamma                 99.94394
_cell_volume                      1953.87163353

loop_
_atom_site_label
_atom_site_type_symbol
_atom_type_description
_atom_site_fract_x
_atom_site_fract_y
_atom_site_fract_z
_atom_type_partial_charge
C1    C     C_R   0.521100 0.700890 0.501371 0.833962
C2    C     C_R   0.447163 0.501734 0.976113 0.084423
C3    C     C_R   0.476681 0.533266 0.871958 0.090182
C4    C     C_R   0.535473 0.526804 0.034555 0.077531
C5    C     C_R   0.647278 0.589401 0.990654 0.163813
C6    C     C_R   0.668773 0.629042 0.891934 -0.230252
C7    C     C_R   0.583936 0.603031 0.834200 -0.194731
C8    C     C_R   0.516304 0.491721 0.135512 -0.234401
C9    C     C_R   0.712177 0.581419 0.148454 -0.186798
C10   C     C_R   0.397239 0.495205 0.808496 -0.105232
C11   C     C_R   0.467567 0.185759 0.497779 -0.086731
C12   C     C_R   0.436552 0.499402 0.696129 0.787721
C13   C     C_R   0.534299 0.814376 0.501682 -0.134293
C14   C     C_R   0.658597 0.984475 0.504727 0.436404
C15   C     C_R   0.644542 0.875818 0.505083 -0.258211
C16   C     C_R   0.436522 0.861371 0.498115 -0.254242
C17   C     C_R   0.447849 0.969295 0.497859 0.119035
C18   C     C_R   0.559151 0.032103 0.501213 0.024150
C19   C     C_R   0.567075 0.140410 0.501063 -0.173344
C20   C     C_R   0.358430 0.122742 0.494167 -0.180434
C21   C     C_R   0.348638 0.014961 0.494250 -0.165806
C22   C     C_R   0.948639 0.603086 0.588749 -0.317935
C23   C     C_R   0.479102 0.299131 0.498528 0.815995
C24   C     C_R   0.829299 0.592812 0.580601 0.111903
C25   C     C_R   0.855420 0.454101 0.462994 0.057639
C26   C     C_R   0.976425 0.462036 0.468185 0.066707
C27   C     C_R   0.023388 0.537449 0.532196 0.059181
C28   C     C_R   0.144275 0.545288 0.537594 0.030651
C29   C     C_R   0.171232 0.407940 0.418432 0.085567
C30   C     C_R   0.051522 0.396980 0.410976 -0.288385
C31   C     C_R   0.563849 0.505771 0.304163 0.802843
C32   C     C_R   0.735368 0.614284 0.047162 -0.182397
C33   C     C_R   0.601136 0.522494 0.193545 -0.049833
C34   C     C_R   0.282537 0.441317 0.852413 -0.180579
C35   C     C_R   0.248755 0.419740 0.956467 -0.139385
C36   C     C_R   0.330209 0.447314 0.017591 -0.175520
Cu1   Cu    Cu3+1 0.386470 0.492430 0.492410 0.945855
Cu2   Cu    Cu3+1 0.613530 0.507570 0.507590 0.956601
H1    H     H_    0.778504 0.606227 0.192740 0.158667
H2    H     H_    0.280605 0.156605 0.491548 0.163014
H3    H     H_    0.263454 0.967275 0.491614 0.140959
H4    H     H_    0.720031 0.838788 0.507753 0.212822
H5    H     H_    0.351066 0.813986 0.495582 0.163583
H6    H     H_    0.181215 0.602476 0.587138 0.118778
H7    H     H_    0.228511 0.357438 0.374198 0.124280
H8    H     H_    0.982226 0.662263 0.638362 0.140922
H9    H     H_    0.018125 0.338187 0.360932 0.170864
H10   H     H_    0.773023 0.644763 0.623222 0.119144
H11   H     H_    0.751471 0.680815 0.859186 0.145167
H12   H     H_    0.818326 0.396621 0.413780 0.134157
H13   H     H_    0.820767 0.662028 0.013964 0.139589
H14   H     H_    0.434801 0.441845 0.172313 0.139616
H15   H     H_    0.219790 0.412810 0.805667 0.163190
H16   H     H_    0.297619 0.426532 0.097247 0.127072
H17   H     H_    0.159850 0.378204 0.989545 0.148920
H18   H     H_    0.602295 0.640508 0.760470 0.154039
H19   H     H_    0.650347 0.190535 0.503574 0.221289
N1    N     N_R   0.215880 0.481050 0.481000 -0.182071
N2    N     N_R   0.784100 0.518950 0.519000 -0.188404
O1    O     O_R   0.419710 0.645650 0.494620 -0.588847
O2    O     O_R   0.611450 0.658430 0.507430 -0.599193
O3    O     O_R   0.357340 0.490460 0.641450 -0.582944
O4    O     O_R   0.549080 0.503250 0.654260 -0.576660
O5    O     O_R   0.388550 0.341570 0.492570 -0.589459
O6    O     O_R   0.580290 0.354350 0.505380 -0.581793
O7    O     O_R   0.450920 0.496750 0.345740 -0.585563
O8    O     O_R   0.642660 0.509540 0.358550 -0.587041
S1    S     S_3+6 0.801277 0.056820 0.508475 -0.031038
O9    O     O_2   0.847258 0.125355 0.414994 -0.328350
O10   O     O_2   0.789837 0.123883 0.602434 -0.298652
O11   O     O_3   0.899110 0.976531 0.511519 -0.550261
H20   H     H_    0.975366 0.023400 0.512659 0.372551

loop_
_geom_bond_atom_site_label_1
_geom_bond_atom_site_label_2
_ccdc_geom_bond_type
C31   O7    A    
C2    C4    A    
C31   C33   S    
C32   H13   S    
C26   C30   A    
C29   C30   A    
C25   H12   S    
C28   N1    A    
C2    C3    A    
C12   O3    A    
C14   C18   A    
C35   C36   A    
Cu2   O6    S    
C4    C8    A    
Cu2   O2    S    
Cu1   O7    S    
C23   O6    A    
Cu1   O3    S    
Cu2   O8    S    
O11   H20   S    
C10   C34   A    
C3    C10   A    
C19   H19   S    
C31   O8    A    
C24   N2    A    
C16   H5    S    
C11   C19   A    
C26   C27   A    
C6    C7    A    
C10   C12   S    
C7    H18   S    
C9    C33   A    
S1    O11   S    
C21   H3    S    
C29   N1    A    
C11   C23   S    
C23   O5    A    
C22   H8    S    
Cu1   Cu2   S    
C17   C18   A    
C3    C7    A    
C22   C27   A    
C13   C15   A    
C6    H11   S    
C5    C6    A    
C34   C35   A    
C22   C24   A    
C11   C20   A    
C13   C16   A    
Cu1   O1    S    
C36   H16   S    
C35   H17   S    
Cu2   N2    S    
C24   H10   S    
C16   C17   A    
C30   H9    S    
C9    H1    S    
Cu1   O5    S    
C1    C13   S    
C20   C21   A    
C34   H15   S    
S1    O10   D    
Cu2   O4    S    
C1    O1    A    
C2    C36   A    
C27   C28   A    
C12   O4    A    
C18   C19   A    
C8    H14   S    
C14   C15   A    
C4    C5    A    
C14   S1    S    
C25   N2    A    
C9    C32   A    
C25   C26   A    
S1    O9    D    
C20   H2    S    
C28   H6    S    
C5    C32   A    
C17   C21   A    
Cu1   N1    S    
C15   H4    S    
C29   H7    S    
C8    C33   A    
C1    O2    A    
