data_mof_unit_9945.cif
_audit_creation_date              2012-12-11T17:14:10-0500
_audit_creation_method            fapswitch 2.2
_symmetry_space_group_name_H-M    P1
_symmetry_Int_Tables_number       1
_space_group_crystal_system       triclinic
_cell_length_a                    18.2214
_cell_length_b                    7.092677
_cell_length_c                    13.011997
_cell_angle_alpha                 89.75449
_cell_angle_beta                  71.949269
_cell_angle_gamma                 90.051299
_cell_volume                      1598.86538163

loop_
_atom_site_label
_atom_site_type_symbol
_atom_type_description
_atom_site_fract_x
_atom_site_fract_y
_atom_site_fract_z
_atom_type_partial_charge
O1    O     O_R   0.453880 0.506200 0.150010 -0.539366
O2    O     O_R   0.546120 0.006200 0.849990 -0.539298
O3    O     O_R   0.604080 0.177770 0.007280 -0.540229
O4    O     O_R   0.395920 0.677770 0.992720 -0.539626
C1    C     C_R   0.635984 0.344567 0.001756 0.730546
C2    C     C_R   0.364021 0.844464 0.998241 0.729413
O5    O     O_R   0.458010 0.176640 0.159130 -0.540863
O6    O     O_R   0.541990 0.676640 0.840870 -0.539991
O7    O     O_R   0.399010 0.004010 0.002930 -0.535447
O8    O     O_R   0.600990 0.504010 0.997070 -0.535544
C3    C     C_R   0.443059 0.344424 0.201891 0.689815
C4    C     C_R   0.556912 0.845531 0.798225 0.689876
O9    O     O_3   0.480810 0.338440 0.948570 -0.374079
O10   O     O_3   0.519190 0.838440 0.051430 -0.374870
V1    V     V_3+5 0.503560 0.064490 0.009540 1.421015
V2    V     V_3+5 0.496440 0.564490 0.990460 1.423183
C5    C     C_R   0.583030 0.843119 0.500984 -0.163142
C6    C     C_R   0.414793 0.276945 0.497207 -0.163945
H1    H     H_    0.485346 0.837538 0.644711 0.106743
H2    H     H_    0.512224 0.270761 0.353405 0.107921
H3    H     H_    0.662232 0.861354 0.293026 0.123996
H4    H     H_    0.335187 0.261741 0.705038 0.124033
H5    H     H_    0.547073 0.842838 0.448360 0.120338
H6    H     H_    0.449721 0.244239 0.548902 0.120790
C7    C     C_R   0.592876 0.852836 0.681323 -0.028388
C8    C     C_R   0.407481 0.346452 0.319072 -0.032087
C9    C     C_R   0.955432 0.832917 0.382697 -0.231224
C10   C     C_R   0.044907 0.379784 0.616228 -0.240820
C11   C     C_R   0.924787 0.791728 0.491874 -0.092541
C12   C     C_R   0.074434 0.359218 0.505128 -0.093617
C13   C     C_R   0.845067 0.778947 0.541500 0.199717
C14   C     C_R   0.153228 0.329827 0.454639 0.198737
C15   C     C_R   0.793231 0.824417 0.481257 0.025733
C16   C     C_R   0.205881 0.335452 0.517075 0.025031
C17   C     C_R   0.825866 0.849850 0.366999 0.037747
C18   C     C_R   0.173485 0.337279 0.632259 0.039425
C19   C     C_R   0.710921 0.838739 0.527244 0.075930
C20   C     C_R   0.288481 0.333181 0.471897 0.074674
C21   C     C_R   0.663906 0.843893 0.457904 0.144696
C22   C     C_R   0.334466 0.297577 0.540586 0.145080
C23   C     C_R   0.697668 0.854410 0.346279 -0.208894
C24   C     C_R   0.300368 0.285834 0.652117 -0.208484
C25   C     C_R   0.777163 0.864003 0.301724 -0.179576
C26   C     C_R   0.221658 0.312294 0.697528 -0.182123
C27   C     C_R   0.673319 0.858240 0.639109 -0.230203
C28   C     C_R   0.327788 0.372988 0.362105 -0.232874
C29   C     C_R   0.547738 0.842441 0.612353 -0.178179
C30   C     C_R   0.450683 0.295043 0.386480 -0.172541
C31   C     C_R   0.906970 0.855283 0.319167 -0.072882
C32   C     C_R   0.093052 0.361677 0.680525 -0.073108
H7    H     H_    0.704757 0.882832 0.695299 0.111721
H8    H     H_    0.298307 0.425475 0.308101 0.113874
H9    H     H_    0.017587 0.835689 0.346192 0.127549
H10   H     H_    0.983347 0.399906 0.652815 0.135875
H11   H     H_    0.963830 0.759176 0.537617 0.142814
H12   H     H_    0.034878 0.357972 0.457780 0.146829
H13   H     H_    0.800181 0.879332 0.214787 0.120841
H14   H     H_    0.198687 0.309234 0.784845 0.123348
C33   C     C_1   0.216301 0.858847 0.000346 -0.180590
C34   C     C_1   0.783703 0.358687 0.999638 -0.180121
C35   C     C_1   0.283595 0.852538 0.999151 -0.187790
C36   C     C_1   0.716408 0.352658 0.000831 -0.186441
O11   O     O_R   0.899030 0.205490 0.002790 -0.537495
O12   O     O_R   0.100970 0.705490 0.997210 -0.536298
O13   O     O_R   0.042000 0.536370 0.840840 -0.539921
O14   O     O_R   0.958000 0.036370 0.159160 -0.539526
C37   C     C_R   0.057714 0.368775 0.798153 0.694630
C38   C     C_R   0.942606 0.867631 0.201791 0.695455
O15   O     O_R   0.895930 0.535070 0.992690 -0.538892
O16   O     O_R   0.104070 0.035070 0.007310 -0.539148
O17   O     O_R   0.953870 0.707520 0.150040 -0.538418
O18   O     O_R   0.046130 0.207520 0.849960 -0.539483
C39   C     C_R   0.864134 0.366687 0.998673 0.730912
C40   C     C_R   0.135865 0.866806 0.001314 0.729885
O19   O     O_3   0.019200 0.374340 0.051340 -0.373262
O20   O     O_3   0.980800 0.874340 0.948660 -0.374705
V3    V     V_3+5 0.996440 0.648350 0.990470 1.435545
V4    V     V_3+5 0.003560 0.148350 0.009530 1.435690
N1    N     N_3   0.821389 0.688516 0.645464 -0.698887
H15   H     H_    0.772810 0.603399 0.655425 0.240388
H16   H     H_    0.813600 0.789006 0.706373 0.225700
N2    N     N_3   0.173768 0.263894 0.345346 -0.692989
H17   H     H_    0.218457 0.165376 0.329286 0.238186
H18   H     H_    0.186349 0.378262 0.291833 0.224226

loop_
_geom_bond_atom_site_label_1
_geom_bond_atom_site_label_2
_ccdc_geom_bond_type
O14   C38   A    
C31   C38   S    
C9    C11   A    
O12   V3    S    
O15   V3    S    
O1    C3    A    
O2    C4    A    
C2    O7    A    
C18   C32   A    
C21   C23   A    
O5    C3    A    
C5    H5    S    
C6    H6    S    
C2    C35   S    
O20   V4    S    
H1    C29   S    
O16   V4    S    
C27   H7    S    
C28   H8    S    
C34   C39   S    
C34   C36   T    
C37   O18   A    
C5    C21   A    
C6    C22   A    
O18   V4    S    
C11   H11   S    
C10   C32   A    
C26   H14   S    
O13   C37   A    
C17   C31   A    
C13   C15   A    
O15   C39   A    
C12   C14   A    
C17   C25   A    
C32   C37   S    
C7    C29   A    
C8    C30   A    
C22   C24   A    
O6    V2    S    
C23   C25   A    
C24   C26   A    
O14   V4    S    
C33   C35   T    
O13   V3    S    
O20   V3    S    
O4    C2    A    
N1    H16   S    
C10   H10   S    
O11   C39   A    
C3    C8    S    
C12   H12   S    
C15   C19   A    
C14   C16   A    
O4    V2    S    
O16   C40   A    
O6    C4    A    
O1    V2    S    
O2    V1    S    
O19   V3    S    
C33   C40   S    
H2    C30   S    
H3    C23   S    
N2    H18   S    
C18   C26   A    
C19   C27   A    
C7    C27   A    
O17   V3    S    
O3    V1    S    
C16   C20   A    
C5    C29   A    
O3    C1    A    
C6    C30   A    
C9    H9    S    
C13   N1    S    
C14   N2    S    
C4    C7    S    
C10   C12   A    
O7    V1    S    
C1    O8    A    
C19   C21   A    
O8    V2    S    
C20   C22   A    
H4    C24   S    
C38   O17   A    
O5    V1    S    
C15   C17   A    
C1    C36   S    
C16   C18   A    
O19   V4    S    
C20   C28   A    
C25   H13   S    
N1    H15   S    
C11   C13   A    
N2    H17   S    
O9    V2    S    
O12   C40   A    
O10   V1    S    
C8    C28   A    
C9    C31   A    
O11   V4    S    
