data_mof_unit_49362.cif
_audit_creation_date              2012-12-10T18:53:41-0500
_audit_creation_method            fapswitch 2.2
_symmetry_space_group_name_H-M    P1
_symmetry_Int_Tables_number       1
_space_group_crystal_system       triclinic
_cell_length_a                    10.63222
_cell_length_b                    10.007235
_cell_length_c                    19.194069
_cell_angle_alpha                 90.007531
_cell_angle_beta                  93.420555
_cell_angle_gamma                 89.999287
_cell_volume                      2038.5938498

loop_
_atom_site_label
_atom_site_type_symbol
_atom_type_description
_atom_site_fract_x
_atom_site_fract_y
_atom_site_fract_z
_atom_type_partial_charge
C1    C     C_R   0.261053 0.500001 0.499554 0.921864
C2    C     C_R   0.738975 0.499999 0.499940 0.908948
C3    C     C_R   0.487623 0.500648 0.929846 0.272412
C4    C     C_R   0.483679 0.500577 0.069299 0.272710
C5    C     C_R   0.496750 0.499997 0.365710 0.850680
C6    C     C_R   0.500024 0.500014 0.634226 0.854589
C7    C     C_R   0.058789 0.499964 0.434946 0.138557
C8    C     C_R   0.941627 0.500050 0.564686 0.143931
C9    C     C_R   0.927621 0.499940 0.434912 0.146760
C10   C     C_R   0.072909 0.500050 0.564424 0.143397
C11   C     C_R   0.871720 0.499994 0.499831 -0.110742
C12   C     C_R   0.128165 0.500005 0.499633 -0.124714
C13   C     C_R   0.580953 0.071687 0.544950 0.202333
C14   C     C_R   0.419153 0.928411 0.455107 0.207711
C15   C     C_R   0.419157 0.071570 0.455105 0.207507
C16   C     C_R   0.580956 0.928333 0.544948 0.202165
C17   C     C_R   0.488795 0.621244 0.253422 -0.208834
C18   C     C_R   0.495694 0.379000 0.746257 -0.211047
C19   C     C_R   0.496463 0.621347 0.746182 -0.211061
C20   C     C_R   0.488451 0.378910 0.253319 -0.209366
C21   C     C_R   0.483453 0.622981 0.180883 0.176412
C22   C     C_R   0.492522 0.377487 0.818571 0.177131
C23   C     C_R   0.491915 0.623159 0.818415 0.177036
C24   C     C_R   0.484478 0.377320 0.180777 0.176673
C25   C     C_R   0.482308 0.500224 0.144430 0.086816
C26   C     C_R   0.490178 0.500406 0.854763 0.086835
C27   C     C_R   0.491640 0.500035 0.289740 -0.116136
C28   C     C_R   0.497893 0.500103 0.709989 -0.115276
H1    H     H_    0.490315 0.715394 0.281397 0.176375
H2    H     H_    0.497033 0.284771 0.718432 0.175802
H3    H     H_    0.497699 0.715479 0.718277 0.175863
H4    H     H_    0.490402 0.284712 0.281246 0.176362
N1    N     N_R   0.500000 0.857200 0.500000 -0.116443
N2    N     N_R   0.500000 0.142800 0.500000 -0.116446
N3    N     N_R   0.378953 0.466539 0.029705 -0.164572
N4    N     N_R   0.592216 0.534865 0.969456 -0.162438
N5    N     N_R   0.380921 0.466564 0.960645 -0.164072
N6    N     N_R   0.590249 0.534839 0.038474 -0.161821
O1    O     O_R   0.316770 0.614620 0.500000 -0.621929
O2    O     O_R   0.683230 0.385380 0.500000 -0.616704
O3    O     O_R   0.683230 0.614620 0.500000 -0.616636
O4    O     O_R   0.316770 0.385380 0.500000 -0.621899
O5    O     O_R   0.499990 0.614700 0.398140 -0.626678
O6    O     O_R   0.500010 0.385300 0.601860 -0.629215
O7    O     O_R   0.500010 0.614700 0.601860 -0.629314
O8    O     O_R   0.499990 0.385300 0.398140 -0.626704
Zn1   Zn    Zn3+2 0.500000 0.653120 0.500000 0.931209
Zn2   Zn    Zn3+2 0.500000 0.346880 0.500000 0.931218
C29   C     C_3   0.127383 0.499943 0.367424 -0.892866
H5    H     H_    0.187603 0.589968 0.365304 0.227637
H6    H     H_    0.187573 0.409895 0.365297 0.227719
H7    H     H_    0.065443 0.499955 0.319107 0.254497
C30   C     C_3   0.877619 0.500100 0.633564 -0.903224
H8    H     H_    0.773463 0.500093 0.628085 0.217097
H9    H     H_    0.905447 0.409299 0.663947 0.248327
H10   H     H_    0.905439 0.590950 0.663922 0.248348
C31   C     C_3   0.849112 0.499850 0.366056 -0.851975
H11   H     H_    0.746686 0.499782 0.371758 0.228435
H12   H     H_    0.870130 0.590722 0.335665 0.241871
H13   H     H_    0.870235 0.408967 0.335686 0.241733
C32   C     C_3   0.156678 0.500099 0.631678 -0.863346
H14   H     H_    0.217472 0.590401 0.633401 0.239174
H15   H     H_    0.105379 0.500135 0.680094 0.248386
H16   H     H_    0.217474 0.409798 0.633424 0.239258
C33   C     C_3   0.478054 0.757628 0.145195 -0.903152
H17   H     H_    0.466441 0.751065 0.087548 0.251163
H18   H     H_    0.396878 0.815449 0.163137 0.238816
H19   H     H_    0.566041 0.813791 0.159169 0.246065
C34   C     C_3   0.493850 0.242905 0.854311 -0.903641
H20   H     H_    0.497702 0.249434 0.912009 0.251710
H21   H     H_    0.407804 0.186296 0.836900 0.245170
H22   H     H_    0.577768 0.185479 0.839788 0.239339
C35   C     C_3   0.487114 0.757894 0.853728 -0.903754
H23   H     H_    0.476805 0.751583 0.910724 0.251590
H24   H     H_    0.574807 0.814122 0.844950 0.243861
H25   H     H_    0.405463 0.815569 0.830886 0.240913
C36   C     C_3   0.485616 0.242673 0.145164 -0.903861
H26   H     H_    0.487913 0.249021 0.087647 0.252077
H27   H     H_    0.570220 0.185752 0.164662 0.241718
H28   H     H_    0.400211 0.185622 0.157581 0.243153
C37   C     C_3   0.672628 0.142411 0.595820 -0.817946
H29   H     H_    0.668979 0.250528 0.593684 0.290706
H30   H     H_    0.653412 0.115061 0.650187 0.207126
H31   H     H_    0.770816 0.114943 0.585333 0.221677
C38   C     C_3   0.327567 0.857867 0.404333 -0.831698
H32   H     H_    0.332507 0.750127 0.406696 0.286125
H33   H     H_    0.229299 0.884634 0.415034 0.223385
H34   H     H_    0.346391 0.885254 0.349920 0.209550
C39   C     C_3   0.327588 0.142096 0.404325 -0.831478
H35   H     H_    0.332539 0.249836 0.406691 0.286131
H36   H     H_    0.346428 0.114682 0.349915 0.209803
H37   H     H_    0.229314 0.115345 0.415017 0.223348
C40   C     C_3   0.672653 0.857628 0.595803 -0.817920
H38   H     H_    0.668947 0.749510 0.593692 0.290702
H39   H     H_    0.770836 0.885035 0.585277 0.221698
H40   H     H_    0.653511 0.885056 0.650173 0.207302

loop_
_geom_bond_atom_site_label_1
_geom_bond_atom_site_label_2
_ccdc_geom_bond_type
C40   H38   S    
C6    O7    A    
C32   H16   S    
C17   H1    S    
C35   H23   S    
C30   H9    S    
C19   H3    S    
C14   N1    A    
C37   H29   S    
C30   H8    S    
C30   H10   S    
C16   C40   S    
N3    N5    A    
C38   H32   S    
C31   H12   S    
C2    O3    A    
C13   C37   S    
C34   H21   S    
C23   C26   A    
C32   H15   S    
O2    Zn2   S    
C5    C27   S    
C6    C28   S    
C20   C24   A    
C33   H18   S    
C18   H2    S    
C39   H36   S    
C15   N2    A    
C29   H7    S    
C36   H27   S    
C5    O5    A    
C4    N3    A    
C40   H39   S    
C6    O6    A    
C35   H24   S    
C34   H20   S    
C1    C12   S    
C23   C35   S    
C2    C11   S    
C37   H30   S    
C4    C25   S    
O7    Zn1   S    
C7    C12   A    
O8    Zn2   S    
C38   H33   S    
C17   C27   A    
C18   C28   A    
C24   C25   A    
C7    C29   S    
C31   H13   S    
C29   H6    S    
C36   H26   S    
C17   C21   A    
C34   H22   S    
C19   C23   A    
C16   N1    A    
C15   C39   S    
C24   C36   S    
C33   H19   S    
O3    Zn1   S    
O4    Zn2   S    
C39   H37   S    
C19   C28   A    
C9    C11   A    
C10   C12   A    
C4    N6    A    
C29   H5    S    
C40   H40   S    
N1    Zn1   S    
C35   H25   S    
C10   C32   S    
N2    Zn2   S    
C37   H31   S    
O1    Zn1   S    
C20   H4    S    
C38   H34   S    
C7    C9    A    
C21   C25   A    
C22   C34   S    
C21   C33   S    
C18   C22   A    
C3    C26   S    
C14   C38   S    
C8    C30   S    
C20   C27   A    
C5    O8    A    
N4    N6    A    
C13   N2    A    
C36   H28   S    
C31   H11   S    
C3    N4    A    
C8    C11   A    
C9    C31   S    
C32   H14   S    
C1    O1    A    
C2    O2    A    
C1    O4    A    
C3    N5    A    
C8    C10   A    
C33   H17   S    
C22   C26   A    
C13   C16   A    
C14   C15   A    
C39   H35   S    
O5    Zn1   S    
O6    Zn2   S    
