data_mof_unit_63690.cif
_audit_creation_date              2013-03-05T16:22:03-0500
_audit_creation_method            fapswitch 2.2
_symmetry_space_group_name_H-M    P1
_symmetry_Int_Tables_number       1
_space_group_crystal_system       triclinic
_cell_length_a                    18.929653
_cell_length_b                    18.750969
_cell_length_c                    18.676099
_cell_angle_alpha                 109.387294
_cell_angle_beta                  109.464638
_cell_angle_gamma                 109.895715
_cell_volume                      5081.82981125

loop_
_atom_site_label
_atom_site_type_symbol
_atom_site_description
_atom_site_fract_x
_atom_site_fract_y
_atom_site_fract_z
_atom_type_partial_charge
O1    O     O_R   0.408400 0.356680 0.448290 -0.622411
O2    O     O_R   0.408370 0.460100 0.551700 -0.560074
C1    C     C_R   0.378756 0.379777 0.498904 0.944559
O3    O     O_R   0.591630 0.448290 0.539910 -0.597502
O4    O     O_R   0.591590 0.551710 0.643320 -0.639282
C2    C     C_R   0.620461 0.501170 0.620325 0.834277
Zn1   Zn    Zn3+2 0.500020 0.430950 0.430950 1.095047
Zn2   Zn    Zn3+2 0.499980 0.569050 0.569050 1.142304
O5    O     O_R   0.591630 0.539900 0.448300 -0.625453
O6    O     O_R   0.591600 0.643320 0.551710 -0.579955
O7    O     O_R   0.408410 0.448290 0.356680 -0.599141
O8    O     O_R   0.408370 0.551710 0.460090 -0.555375
C3    C     C_R   0.619427 0.620367 0.499739 0.940879
C4    C     C_R   0.380745 0.500592 0.379702 0.997553
C5    C     C_R   0.780824 0.661674 0.753464 -0.081728
C6    C     C_R   0.850670 0.741403 0.825925 -0.164542
C7    C     C_R   0.902242 0.743507 0.900483 -0.169117
C8    C     C_R   0.888305 0.665564 0.900617 0.640664
C9    C     C_R   0.822785 0.582824 0.823639 -0.052059
C10   C     C_R   0.763141 0.582022 0.753772 0.022604
C11   C     C_R   0.814194 0.501087 0.813419 -0.125923
C12   C     C_R   0.740305 0.420067 0.740403 -0.027526
C13   C     C_R   0.670469 0.422742 0.686339 -0.026323
C14   C     C_R   0.685820 0.502090 0.687696 -0.047002
C15   C     C_R   0.731900 0.335997 0.719416 0.247523
C16   C     C_R   0.648966 0.260509 0.665280 -0.231983
C17   C     C_R   0.576684 0.266081 0.624123 0.661492
C18   C     C_R   0.587462 0.345672 0.631079 -0.258044
H1    H     H_    0.740932 0.663407 0.697756 0.160604
H2    H     H_    0.862744 0.801918 0.825413 0.201972
H3    H     H_    0.953161 0.805967 0.958805 0.187692
H4    H     H_    0.640752 0.196428 0.651092 0.231096
H5    H     H_    0.530345 0.346574 0.593887 0.162577
C19   C     C_R   0.289374 0.227482 0.457182 -0.041472
C20   C     C_R   0.310949 0.314431 0.497714 -0.288463
C21   C     C_R   0.264964 0.336538 0.539121 0.558126
C22   C     C_R   0.201129 0.271425 0.539398 0.574127
C23   C     C_R   0.183748 0.184906 0.499347 -0.317251
C24   C     C_R   0.229248 0.165672 0.459109 -0.060018
C25   C     C_3   0.239724 0.094022 0.407989 0.528775
C26   C     C_3   0.308956 0.164898 0.405720 -0.362931
H6    H     H_    0.180706 0.042713 0.343055 0.058253
H7    H     H_    0.376188 0.179377 0.443686 0.268152
H8    H     H_    0.289509 0.156286 0.338976 0.187549
C27   C     C_R   0.252384 0.426948 0.235072 -0.160368
C28   C     C_R   0.316722 0.502582 0.314283 -0.301826
C29   C     C_R   0.315512 0.581148 0.329654 0.603152
C30   C     C_R   0.250201 0.580647 0.265298 0.536609
C31   C     C_R   0.185170 0.501455 0.186596 -0.254777
C32   C     C_R   0.188370 0.426092 0.174454 -0.153205
C33   C     C_3   0.145874 0.331123 0.110240 0.383487
C34   C     C_3   0.218369 0.331455 0.180340 0.781882
H9    H     H_    0.079200 0.291532 0.096828 0.105552
C35   C     C_R   0.767753 0.697565 0.531309 -0.034655
C36   C     C_R   0.685622 0.688102 0.502266 -0.293636
C37   C     C_R   0.671737 0.752056 0.487480 0.674316
C38   C     C_R   0.736548 0.816867 0.488429 -0.206294
H10   H     H_    0.724255 0.863614 0.472656 0.213047
C39   C     C_R   0.815318 0.818392 0.506160 -0.180902
C40   C     C_R   0.832184 0.762231 0.533340 0.162969
C41   C     C_3   0.866110 0.704310 0.501927 -0.508764
C42   C     C_3   0.794465 0.632633 0.499381 0.142631
H11   H     H_    0.857030 0.689978 0.435716 0.161556
H12   H     H_    0.933171 0.728038 0.552262 0.257131
H13   H     H_    0.744502 0.575696 0.432283 0.139218
O9    O     O_R   0.948260 0.356680 0.908450 -0.562564
O10   O     O_R   0.051700 0.460090 0.908430 -0.636045
C43   C     C_R   0.001513 0.379863 0.881667 0.990992
O11   O     O_R   0.856640 0.448300 0.908430 -0.614054
O12   O     O_R   0.960090 0.551710 0.908400 -0.568263
C44   C     C_R   0.879978 0.500452 0.880032 1.017355
Zn3   Zn    Zn3+2 0.930910 0.430960 0.000050 1.098305
Zn4   Zn    Zn3+2 0.069050 0.569060 0.000020 1.121374
O13   O     O_R   0.948250 0.539920 0.091630 -0.640755
O14   O     O_R   0.051690 0.643330 0.091610 -0.566315
O15   O     O_R   0.039870 0.448310 0.091660 -0.644194
O16   O     O_R   0.143310 0.551720 0.091640 -0.585413
C45   C     C_R   0.001011 0.620463 0.120883 0.957039
C46   C     C_R   0.119682 0.499669 0.119675 0.979237
O17   O     O_R   0.051740 0.091620 0.643380 -0.596553
O18   O     O_R   0.948300 0.091670 0.539990 -0.576387
C47   C     C_R   0.999776 0.119188 0.620140 0.992235
O19   O     O_R   0.143340 0.091640 0.551750 -0.584327
O20   O     O_R   0.039900 0.091690 0.448360 -0.600700
C48   C     C_R   0.119380 0.118395 0.498564 0.994127
Zn5   Zn    Zn3+2 0.069070 0.000020 0.569080 1.120053
Zn6   Zn    Zn3+2 0.930930 0.000080 0.431020 1.076491
O21   O     O_R   0.051700 0.908430 0.460110 -0.616161
O22   O     O_R   0.948260 0.908480 0.356720 -0.621102
O23   O     O_R   0.960100 0.908410 0.551740 -0.592980
O24   O     O_R   0.856660 0.908460 0.448350 -0.632834
C49   C     C_R   0.999637 0.880064 0.379462 0.854155
C50   C     C_R   0.880072 0.880135 0.500626 0.913587
C51   C     C_R   0.980399 0.233073 0.808046 -0.034497
C52   C     C_R   0.001953 0.314658 0.815751 -0.086568
C53   C     C_R   0.024420 0.332211 0.756210 -0.186504
H14   H     H_    0.040770 0.394748 0.759088 0.214718
C54   C     C_R   0.022684 0.267240 0.690200 0.677568
C55   C     C_R   0.002013 0.186022 0.686075 -0.198972
C56   C     C_R   0.982446 0.172089 0.746833 -0.182620
C57   C     C_3   0.949439 0.104655 0.770878 0.740780
C58   C     C_3   0.947880 0.174802 0.841902 0.444488
H15   H     H_    0.994164 0.198354 0.910973 0.102585
C59   C     C_R   0.924076 0.687068 0.171532 0.127238
C60   C     C_R   0.001432 0.688198 0.185304 -0.164938
C61   C     C_R   0.080812 0.761051 0.257238 -0.144947
H16   H     H_    0.142006 0.765570 0.265903 0.210885
C62   C     C_R   0.080774 0.825448 0.321499 -0.175969
H17   H     H_    0.141872 0.879409 0.379358 0.217869
C63   C     C_R   0.001401 0.817721 0.311806 -0.096574
C64   C     C_R   0.924154 0.751816 0.233912 0.052212
C65   C     C_3   0.840708 0.688868 0.220909 -0.545881
C66   C     C_3   0.840929 0.617334 0.152324 0.502522
H18   H     H_    0.848945 0.682333 0.279804 0.153074
H19   H     H_    0.787461 0.701475 0.193152 0.257133
H20   H     H_    0.847439 0.567559 0.169339 0.088966
F1    F     F_    0.496887 0.192791 0.572018 -0.609664
F2    F     F_    0.157412 0.292852 0.579220 -0.547609
F3    F     F_    0.274932 0.062222 0.458522 -0.586454
F4    F     F_    0.377822 0.657993 0.405304 -0.545566
F5    F     F_    0.249802 0.656453 0.280092 -0.608866
F6    F     F_    0.151997 0.318930 0.035705 -0.623686
F7    F     F_    0.188145 0.283118 0.216616 -0.664619
N1    N     N_R   0.278127 0.313416 0.154385 0.250353
O25   O     O_R   0.321828 0.362015 0.131038 -0.303371
O26   O     O_R   0.290614 0.250328 0.157941 -0.297855
F8    F     F_    0.594110 0.748230 0.466587 -0.586754
N2    N     N_R   0.827155 0.607475 0.564035 0.236879
O27   O     O_R   0.885145 0.666518 0.645801 -0.354957
O28   O     O_R   0.795526 0.524864 0.540382 -0.342992
F9    F     F_    0.040409 0.283378 0.630777 -0.563730
F10   F     F_    0.867904 0.033582 0.704522 -0.589462
N3    N     N_R   0.012567 0.079545 0.805743 0.165956
O29   O     O_R   0.092845 0.138937 0.866320 -0.331033
O30   O     O_R   0.989135 0.997041 0.774637 -0.307445
F11   F     F_    0.864429 0.154276 0.824969 -0.546166
F12   F     F_    0.774574 0.582276 0.068188 -0.601385
F13   F     F_    0.935060 0.672927 0.978301 -0.668977
N4    N     N_R   0.805967 0.324727 0.738355 0.200067
O31   O     O_R   0.868596 0.371787 0.730569 -0.415827
O32   O     O_R   0.800548 0.254097 0.739580 -0.314333
F14   F     F_    0.280516 0.419800 0.578266 -0.570751

loop_
_geom_bond_atom_site_label_1
_geom_bond_atom_site_label_2
_geom_bond_distance
_ccdc_geom_bond_type
O9    C43   1.279654 A    
C36   C37   1.403346 A    
C16   H4    1.082669 S    
C57   C58   1.544225 S    
Zn6   O24   2.015250 S    
O11   Zn3   2.021736 S    
Zn4   O14   2.019397 S    
C47   C55   1.411820 S    
C52   C53   1.410179 A    
O15   C46   1.277544 A    
Zn3   O15   2.027119 S    
N2    O27   1.302263 A    
C65   H18   1.112381 S    
O18   C47   1.276460 A    
C4    C28   1.427276 S    
C35   C40   1.375261 A    
C27   C28   1.383425 A    
C62   H17   1.083428 S    
Zn1   O7    2.029052 S    
C16   C17   1.386945 A    
C11   C44   1.444294 S    
C45   C60   1.425809 S    
C21   C22   1.398227 A    
C9    C11   1.423860 A    
C64   C65   1.494103 S    
C8    C9    1.425948 A    
C7    C8    1.394997 A    
C23   C24   1.378219 A    
C34   F7    1.385963 S    
Zn5   O21   2.012115 S    
C38   C39   1.403372 A    
C61   H16   1.083681 S    
C6    H2    1.082608 S    
C5    C6    1.390524 A    
C37   C38   1.392403 A    
C41   H11   1.112274 S    
C19   C20   1.385396 A    
C37   F8    1.358039 S    
O11   C44   1.280307 A    
O5    C3    1.279360 A    
C63   C64   1.393040 A    
C59   C60   1.391079 A    
O17   Zn5   2.021831 S    
C28   C29   1.414149 A    
O9    Zn3   2.019481 S    
C22   F2    1.355539 S    
O21   C49   1.282517 A    
C6    C7    1.387414 A    
C12   C15   1.428802 A    
C53   C54   1.397771 A    
C54   F9    1.355649 S    
C13   C14   1.405196 A    
O20   Zn6   2.020996 S    
O12   C44   1.280099 A    
O10   Zn4   2.014269 S    
C51   C56   1.344561 A    
C41   C42   1.523776 S    
C34   N1    1.464932 S    
C66   H20   1.111907 S    
C17   F1    1.355319 S    
C39   C40   1.394380 A    
C11   C12   1.425168 A    
C26   H7    1.109871 S    
C51   C52   1.384685 A    
C19   C26   1.490955 S    
O3    Zn1   2.019685 S    
C65   C66   1.518755 S    
C5    H1    1.081330 S    
C59   C66   1.492423 S    
O16   C46   1.274765 A    
C5    C10   1.417557 A    
C43   C52   1.423003 S    
C23   C48   1.407818 S    
C19   C24   1.340580 A    
C10   C14   1.409525 A    
C21   F14   1.358154 S    
O20   C48   1.276269 A    
O17   C47   1.278164 A    
Zn5   O23   2.020997 S    
C30   F5    1.358258 S    
C35   C42   1.493853 S    
C27   C34   1.492366 S    
C15   C16   1.403568 A    
C31   C46   1.418219 S    
C40   C41   1.496304 S    
O1    C1    1.281853 A    
C20   C21   1.417403 A    
C41   H12   1.111646 S    
O10   C43   1.275548 A    
C22   C23   1.402400 A    
O24   C50   1.283661 A    
C29   C30   1.402663 A    
C1    C20   1.428937 S    
Zn2   O8    2.019684 S    
C2    C14   1.431003 S    
C53   H14   1.083424 S    
O19   Zn5   2.015251 S    
O12   Zn4   2.027205 S    
C32   C33   1.490196 S    
C13   C18   1.416364 A    
O22   C49   1.279761 A    
O18   Zn6   2.012115 S    
Zn3   O13   2.014144 S    
C29   F4    1.358190 S    
O19   C48   1.276534 A    
C8    F13   1.354769 S    
C18   H5    1.082359 S    
C31   C32   1.380823 A    
Zn6   O22   2.021830 S    
N3    O29   1.302056 A    
C7    H3    1.082671 S    
C26   H8    1.111529 S    
C66   F12   1.384129 S    
O3    C2    1.278013 A    
C24   C25   1.487217 S    
O23   C50   1.280963 A    
N1    O26   1.300656 A    
Zn1   O5    2.015084 S    
C35   C36   1.388952 A    
C30   C31   1.407748 A    
C42   H13   1.113249 S    
C15   N4    1.433977 S    
O1    Zn1   2.020409 S    
O2    Zn2   2.015083 S    
O8    C4    1.275317 A    
O6    C3    1.273781 A    
N2    O28   1.300507 A    
O4    Zn2   2.029056 S    
N4    O31   1.301312 A    
C57   N3    1.463411 S    
C60   C61   1.402856 A    
C55   C56   1.379897 A    
C9    C10   1.403981 A    
O2    C1    1.275123 A    
C33   C34   1.545531 S    
C42   N2    1.463688 S    
N4    O32   1.301645 A    
C49   C63   1.427688 S    
C38   H10   1.083430 S    
O4    C2    1.272764 A    
C61   C62   1.391926 A    
C27   C32   1.345636 A    
C25   H6    1.111440 S    
C56   C57   1.489003 S    
O7    C4    1.280856 A    
C62   C63   1.401573 A    
C58   H15   1.109923 S    
O14   C45   1.276042 A    
C58   F11   1.384203 S    
C59   C64   1.374720 A    
C57   F10   1.386663 S    
C25   F3    1.383961 S    
C51   C58   1.494286 S    
Zn2   O6    2.020410 S    
C54   C55   1.405262 A    
O13   C45   1.280149 A    
C17   C18   1.390017 A    
N3    O30   1.300812 A    
C33   F6    1.384813 S    
Zn4   O16   2.021644 S    
C12   C13   1.399573 A    
C25   C26   1.540943 S    
C39   C50   1.432319 S    
C33   H9    1.111281 S    
C65   H19   1.111705 S    
N1    O25   1.302297 A    
C3    C36   1.422362 S    
