data_mof_unit_55980.cif
_audit_creation_date              2012-12-10T19:06:28-0500
_audit_creation_method            fapswitch 2.2
_symmetry_space_group_name_H-M    P1
_symmetry_Int_Tables_number       1
_space_group_crystal_system       triclinic
_cell_length_a                    23.504401
_cell_length_b                    10.891531
_cell_length_c                    9.546079
_cell_angle_alpha                 89.48441
_cell_angle_beta                  89.447574
_cell_angle_gamma                 90.378952
_cell_volume                      2443.51844343

loop_
_atom_site_label
_atom_site_type_symbol
_atom_type_description
_atom_site_fract_x
_atom_site_fract_y
_atom_site_fract_z
_atom_type_partial_charge
C1    C     C_R   0.499558 0.262948 0.500407 0.884367
C2    C     C_R   0.970504 0.321630 0.633645 -0.134791
C3    C     C_R   0.029717 0.322678 0.631119 -0.117766
C4    C     C_R   0.059789 0.420656 0.567943 0.002619
C5    C     C_R   0.029891 0.518966 0.506423 -0.059123
C6    C     C_R   0.059877 0.618852 0.443665 -0.121284
C7    C     C_R   0.028362 0.715566 0.381192 0.403273
C8    C     C_R   0.968950 0.711069 0.382071 -0.178002
C9    C     C_R   0.119267 0.422506 0.564911 0.619762
C10   C     C_R   0.120035 0.616985 0.446640 0.700403
C11   C     C_R   0.239643 0.545507 0.629336 -0.059833
C12   C     C_R   0.390945 0.500968 0.500695 0.836850
C13   C     C_R   0.299211 0.536965 0.626125 -0.210902
C14   C     C_R   0.328384 0.505897 0.502653 -0.123182
C15   C     C_R   0.297606 0.481838 0.380979 -0.207748
C16   C     C_R   0.238420 0.487472 0.382421 0.435970
C17   C     C_R   0.209032 0.519451 0.505827 0.186331
C18   C     C_R   0.762572 0.407834 0.440422 -0.100078
C19   C     C_R   0.702975 0.399094 0.440106 -0.022357
C20   C     C_R   0.671021 0.495596 0.500764 -0.076343
C21   C     C_R   0.699090 0.593261 0.566122 -0.233167
C22   C     C_R   0.758217 0.598413 0.568661 -0.060664
C23   C     C_R   0.500012 0.737545 0.498699 0.848073
C24   C     C_R   0.790247 0.506318 0.504913 0.301024
C25   C     C_R   0.496634 0.060688 0.620078 0.028760
C26   C     C_R   0.499747 0.130863 0.498715 -0.108331
C27   C     C_R   0.503030 0.068433 0.370511 -0.190926
C28   C     C_R   0.503009 0.939941 0.366618 0.378900
C29   C     C_R   0.499975 0.870674 0.494332 -0.180341
C30   C     C_R   0.496652 0.936925 0.618050 0.000068
C31   C     C_3   0.491654 0.926167 0.773707 0.286631
C32   C     C_3   0.491455 0.067648 0.775307 -0.434532
C33   C     C_R   0.529028 0.588487 0.071085 0.302983
C34   C     C_R   0.608776 0.497707 0.499738 0.846941
C35   C     C_R   0.467790 0.418474 0.076095 -0.011737
C36   C     C_R   0.468127 0.417847 0.927175 -0.026928
C37   C     C_R   0.527007 0.591687 0.924076 0.313461
C38   C     C_3   0.587950 0.628042 0.909564 -0.569040
C39   C     C_3   0.591837 0.617184 0.068046 -0.288089
C40   C     C_R   0.879569 0.607446 0.444746 0.581420
C41   C     C_R   0.880387 0.417844 0.572206 0.547282
C42   C     C_R   0.940055 0.417955 0.571829 -0.001746
C43   C     C_R   0.969745 0.516672 0.507704 -0.010032
C44   C     C_R   0.939296 0.612686 0.444696 -0.086453
Cu1   Cu    Cu3+1 0.500000 0.499980 0.640670 0.994300
Cu2   Cu    Cu3+1 0.500000 0.500020 0.359330 1.026370
H1    H     H_    0.948712 0.244684 0.683448 0.199951
H2    H     H_    0.675017 0.666325 0.614592 0.145585
H3    H     H_    0.779213 0.674108 0.620264 0.161512
H4    H     H_    0.505533 0.118982 0.272310 0.201914
H5    H     H_    0.529698 0.885002 0.822858 0.113305
H6    H     H_    0.450424 0.108610 0.809144 0.226248
H7    H     H_    0.530013 0.108347 0.823459 0.189239
H8    H     H_    0.442528 0.351062 0.133229 0.139840
H9    H     H_    0.051838 0.246495 0.679237 0.205941
H10   H     H_    0.443285 0.349719 0.872642 0.138110
H11   H     H_    0.613958 0.560307 0.851379 0.236154
H12   H     H_    0.593178 0.723823 0.870653 0.189031
H13   H     H_    0.602621 0.705755 0.118766 0.195446
H14   H     H_    0.945947 0.785668 0.333173 0.220584
H15   H     H_    0.323126 0.557344 0.719677 0.216601
H16   H     H_    0.319438 0.457132 0.284917 0.195401
H17   H     H_    0.788144 0.336573 0.393274 0.193474
N1    N     N_R   0.851361 0.511027 0.507933 -0.465951
N2    N     N_R   0.147917 0.519859 0.506053 -0.448933
N3    N     N_R   0.500360 0.500930 0.147930 -0.195497
N4    N     N_R   0.500360 0.500890 0.852020 -0.188056
O1    O     O_R   0.500000 0.319640 0.618810 -0.588167
O2    O     O_2   0.851560 0.325650 0.637012 -0.521770
O3    O     O_2   0.148484 0.327961 0.620707 -0.496616
O4    O     O_2   0.150905 0.710691 0.391827 -0.416571
O5    O     O_R   0.500010 0.319680 0.381230 -0.580050
O6    O     O_R   0.417880 0.499940 0.618820 -0.576487
O7    O     O_R   0.417880 0.499980 0.381240 -0.583630
O8    O     O_R   0.499990 0.680320 0.618770 -0.572360
O9    O     O_R   0.500000 0.680360 0.381190 -0.535504
O10   O     O_R   0.582120 0.500020 0.618760 -0.593756
O11   O     O_R   0.582120 0.500060 0.381180 -0.562117
O12   O     O_2   0.849940 0.697184 0.380625 -0.510448
C45   C     C_2   0.676521 0.286297 0.381216 0.839699
O13   O     O_2   0.627275 0.258485 0.409436 -0.610790
O14   O     O_R   0.708817 0.209131 0.295702 -0.750106
H18   H     H_    0.686441 0.135019 0.262905 0.347456
Cl1   Cl    Cl    0.506421 0.875742 0.197739 -0.612565
Cl2   Cl    Cl    0.425361 0.859293 0.827735 -0.509331
C46   C     C_2   0.630032 0.512315 0.108089 0.936545
O15   O     O_2   0.675060 0.533903 0.166101 -0.582431
O16   O     O_R   0.615443 0.391931 0.072324 -0.749142
H19   H     H_    0.646025 0.330770 0.097512 0.347445
Cl3   Cl    Cl    0.059493 0.845292 0.298116 -0.460068
C47   C     C_2   0.210795 0.582561 0.762004 0.949841
O17   O     O_2   0.235939 0.574371 0.873305 -0.518220
O18   O     O_R   0.155460 0.628879 0.760694 -0.749949
H20   H     H_    0.140938 0.650547 0.857662 0.369217
Cl4   Cl    Cl    0.201601 0.451346 0.228289 -0.492413

loop_
_geom_bond_atom_site_label_1
_geom_bond_atom_site_label_2
_ccdc_geom_bond_type
O18   H20   S    
C31   Cl2   S    
C12   O7    A    
C28   Cl1   S    
C41   C42   A    
C19   C20   A    
C23   O9    A    
Cu2   O9    S    
C36   N4    A    
C7    C8    A    
Cu1   Cu2   S    
C26   C27   A    
C33   C39   S    
C18   C24   A    
C5    C6    A    
C23   C29   S    
C21   C22   A    
C28   C29   A    
C37   C38   S    
Cu2   N3    S    
C34   O10   A    
C30   C31   S    
C46   O16   S    
C18   H17   S    
C15   C16   A    
C1    O1    A    
Cu1   O6    S    
C18   C19   A    
C32   H6    S    
C38   H12   S    
C3    H9    S    
C35   C36   A    
C16   C17   A    
Cu1   N4    S    
Cu2   O5    S    
C27   H4    S    
C21   H2    S    
C20   C34   S    
C10   O4    S    
C25   C32   S    
C5    C43   A    
C24   N1    S    
C12   O6    A    
C35   H8    S    
C33   N3    A    
C1    O5    A    
C9    O3    S    
C45   O14   S    
C23   O8    A    
C47   O17   D    
Cu2   O11   S    
C46   O15   D    
C4    C5    A    
C35   N3    A    
C25   C26   A    
C7    Cl3   S    
C33   C37   A    
C43   C44   A    
C29   C30   A    
C36   H10   S    
C47   O18   S    
C38   H11   S    
C31   C32   S    
C39   H13   S    
Cu1   O1    S    
C40   O12   S    
C20   C21   A    
C22   H3    S    
C12   C14   S    
C1    C26   S    
C22   C24   A    
C42   C43   A    
C3    C4    A    
C32   H7    S    
Cu2   O7    S    
C41   O2    S    
C10   N2    A    
C25   C30   A    
C11   C17   A    
C16   Cl4   S    
C8    C44   A    
C31   H5    S    
C45   O13   D    
C6    C10   A    
C6    C7    A    
C2    H1    S    
C17   N2    S    
C40   N1    A    
Cu1   O8    S    
C2    C3    A    
C34   O11   A    
C11   C13   A    
C38   C39   S    
C2    C42   A    
C37   N4    A    
C15   H16   S    
C19   C45   S    
C9    N2    A    
C11   C47   S    
C40   C44   A    
C13   H15   S    
O16   H19   S    
O14   H18   S    
C27   C28   A    
C14   C15   A    
Cu1   O10   S    
C41   N1    A    
C4    C9    A    
C13   C14   A    
C8    H14   S    
C39   C46   S    
