data_mof_unit_58888.cif
_audit_creation_date              2012-10-26T19:52:23-0400
_audit_creation_method            fapswitch 2.2
_symmetry_space_group_name_H-M    P1
_symmetry_Int_Tables_number       1
_space_group_crystal_system       triclinic
_cell_length_a                    9.557639
_cell_length_b                    10.840841
_cell_length_c                    13.473079
_cell_angle_alpha                 90.555359
_cell_angle_beta                  73.317318
_cell_angle_gamma                 90.632008
_cell_volume                      1337.11371841

loop_
_atom_site_label
_atom_site_type_symbol
_atom_type_description
_atom_site_fract_x
_atom_site_fract_y
_atom_site_fract_z
_atom_type_partial_charge
C1    C     C_R   0.499666 0.737535 0.502734 0.554929
C2    C     C_R   0.383603 0.452518 0.810100 -0.000720
C3    C     C_R   0.367418 0.934286 0.525267 0.022489
C4    C     C_R   0.423709 0.485120 0.698695 0.542718
C5    C     C_R   0.496735 0.870420 0.514450 0.007653
C6    C     C_R   0.621919 0.936987 0.518678 -0.160512
C7    C     C_R   0.621191 0.065688 0.518001 -0.161137
C8    C     C_R   0.495385 0.128862 0.512898 0.007871
C9    C     C_R   0.366454 0.061303 0.524544 0.023606
C10   C     C_3   0.258606 0.062771 0.463381 -0.278245
C11   C     C_3   0.259509 0.923052 0.464762 -0.261610
C12   C     C_R   0.444896 0.442259 0.974696 0.035790
C13   C     C_R   0.960792 0.466066 0.413269 0.160545
C14   C     C_R   0.893642 0.547832 0.580964 -0.029470
C15   C     C_R   0.042194 0.547175 0.581254 -0.021672
C16   C     C_R   0.498827 0.262161 0.501958 0.544435
C17   C     C_R   0.108097 0.466178 0.413211 0.160879
C18   C     C_3   0.132579 0.344188 0.359696 -0.281930
C19   C     C_3   0.974366 0.344966 0.358586 -0.275727
C20   C     C_R   0.577578 0.501032 0.300343 0.547515
C21   C     C_R   0.806910 0.497945 0.022150 -0.137551
C22   C     C_R   0.621367 0.496893 0.187030 -0.001407
C23   C     C_R   0.490455 0.440202 0.864881 0.029863
C24   C     C_R   0.235772 0.434620 0.863959 -0.136652
C25   C     C_R   0.194081 0.412579 0.969971 -0.145069
C26   C     C_R   0.295367 0.422288 0.025711 -0.119372
C27   C     C_R   0.551517 0.461662 0.028513 0.030250
C28   C     C_R   0.701347 0.468868 0.972058 0.054450
C29   C     C_R   0.744753 0.443292 0.866543 -0.152508
C30   C     C_R   0.640794 0.423383 0.814708 -0.129673
C31   C     C_R   0.513989 0.478430 0.136174 -0.136400
C32   C     C_R   0.767992 0.509283 0.129423 -0.140738
Cu1   Cu    Cu3+1 0.359330 0.500020 0.500010 0.934730
Cu2   Cu    Cu3+1 0.640670 0.499980 0.499990 0.926699
H1    H     H_    0.852185 0.527801 0.167042 0.125364
H2    H     H_    0.961829 0.353461 0.279422 0.122758
H3    H     H_    0.859550 0.437203 0.824033 0.096010
H4    H     H_    0.907024 0.271157 0.406765 0.146197
H5    H     H_    0.919208 0.512319 0.977615 0.103844
H6    H     H_    0.401603 0.478465 0.182051 0.117210
H7    H     H_    0.152433 0.435445 0.823888 0.120123
H8    H     H_    0.253883 0.409109 0.108016 0.091040
H9    H     H_    0.082129 0.390054 0.010486 0.113119
H10   H     H_    0.681532 0.390065 0.736231 0.154842
H11   H     H_    0.722308 0.890370 0.516800 0.135584
H12   H     H_    0.721186 0.114796 0.516086 0.128309
H13   H     H_    0.151996 0.101254 0.509042 0.131618
H14   H     H_    0.305659 0.101103 0.384403 0.134072
H15   H     H_    0.154205 0.881983 0.511155 0.139817
H16   H     H_    0.306582 0.880911 0.386843 0.144917
H17   H     H_    0.812412 0.585886 0.646953 0.125096
H18   H     H_    0.071040 0.583700 0.647778 0.117543
H19   H     H_    0.211569 0.348861 0.281476 0.112929
H20   H     H_    0.155068 0.272477 0.410288 0.144524
N1    N     N_R   0.852320 0.499070 0.499340 -0.235237
N2    N     N_R   0.148230 0.499110 0.499340 -0.231578
O1    O     O_R   0.381190 0.680360 0.500000 -0.496829
O2    O     O_R   0.618780 0.680320 0.499990 -0.501809
O3    O     O_R   0.323230 0.500000 0.650990 -0.510510
O4    O     O_R   0.560820 0.499960 0.650980 -0.521305
O5    O     O_R   0.381220 0.319680 0.500010 -0.499427
O6    O     O_R   0.618810 0.319640 0.500000 -0.515108
O7    O     O_R   0.439180 0.500040 0.349020 -0.506719
O8    O     O_R   0.676770 0.500000 0.349010 -0.500425

loop_
_geom_bond_atom_site_label_1
_geom_bond_atom_site_label_2
_ccdc_geom_bond_type
C16   O5    A    
C20   O8    A    
C2    C4    S    
C4    O4    A    
C23   C30   A    
C6    C7    A    
C11   H15   S    
C6    H11   S    
C1    O1    A    
C9    C10   S    
C14   H17   S    
C21   H5    S    
C13   C17   A    
Cu1   O7    S    
C15   N2    A    
C25   H9    S    
C20   O7    A    
Cu2   O8    S    
C17   C18   S    
Cu2   N1    S    
Cu1   O3    S    
C11   H16   S    
C1    O2    A    
C24   C25   A    
Cu2   O4    S    
C24   H7    S    
C12   C23   A    
C30   H10   S    
C29   C30   A    
C22   C32   A    
Cu1   N2    S    
C3    C9    A    
C4    O3    A    
Cu1   O5    S    
C28   C29   A    
C19   H4    S    
C21   C28   A    
C20   C22   S    
C14   N1    A    
C10   H14   S    
C17   N2    A    
C19   H2    S    
C2    C24   A    
C5    C6    A    
C21   C32   A    
C1    C5    S    
C10   H13   S    
C3    C11   S    
C22   C31   A    
C13   C19   S    
C12   C27   A    
C27   C31   A    
C7    H12   S    
C7    C8    A    
Cu1   Cu2   S    
C31   H6    S    
C26   H8    S    
C2    C23   A    
C8    C16   S    
C18   C19   S    
C10   C11   S    
C29   H3    S    
C27   C28   A    
Cu2   O2    S    
C18   H20   S    
C14   C15   A    
Cu1   O1    S    
C18   H19   S    
C3    C5    A    
C25   C26   A    
C15   H18   S    
C16   O6    A    
Cu2   O6    S    
C32   H1    S    
C12   C26   A    
C8    C9    A    
C13   N1    A    
