data_mof_unit_44376.cif
_audit_creation_date              2012-12-10T17:19:01-0500
_audit_creation_method            fapswitch 2.2
_symmetry_space_group_name_H-M    P1
_symmetry_Int_Tables_number       1
_space_group_crystal_system       triclinic
_cell_length_a                    10.210893
_cell_length_b                    10.788899
_cell_length_c                    13.83361
_cell_angle_alpha                 92.961797
_cell_angle_beta                  102.123674
_cell_angle_gamma                 96.191693
_cell_volume                      1476.95177651

loop_
_atom_site_label
_atom_site_type_symbol
_atom_type_description
_atom_site_fract_x
_atom_site_fract_y
_atom_site_fract_z
_atom_type_partial_charge
Br1   Br    Br    0.010402 0.601264 0.046907 -0.572492
Br2   Br    Br    0.922130 0.209997 0.984460 -0.557434
Br3   Br    Br    0.581544 0.325686 0.430873 -0.462356
Br4   Br    Br    0.420710 0.673711 0.572426 -0.538594
C1    C     C_R   0.054659 0.732682 0.496870 0.946871
C2    C     C_2   0.028757 0.070585 0.534229 -0.170561
C3    C     C_2   0.431977 0.517375 0.503105 0.269635
C4    C     C_2   0.568226 0.482243 0.497771 0.298181
C5    C     C_R   0.096489 0.514726 0.685585 0.915408
C6    C     C_R   0.901265 0.478976 0.314757 0.916129
C7    C     C_R   0.147350 0.511378 0.792621 -0.254505
C8    C     C_R   0.832223 0.431541 0.212728 -0.220820
C9    C     C_R   0.110880 0.529910 0.959928 0.340679
C10   C     C_R   0.823598 0.301060 0.062233 0.338946
C11   C     C_R   0.067202 0.541497 0.858906 -0.271549
C12   C     C_R   0.948542 0.268057 0.509494 0.941891
C13   C     C_R   0.894188 0.355740 0.155050 -0.259701
C14   C     C_R   0.274544 0.472823 0.829023 0.530546
C15   C     C_R   0.694687 0.446540 0.178992 0.568479
C16   C     C_R   0.305411 0.434474 0.925940 -0.083063
C17   C     C_R   0.617917 0.377769 0.092627 -0.058347
C18   C     C_R   0.227898 0.472291 0.993951 -0.032721
C19   C     C_R   0.685666 0.315048 0.028968 -0.059177
C20   C     C_R   0.421207 0.373516 0.959742 -0.126633
C21   C     C_R   0.478123 0.385850 0.061436 -0.109540
C22   C     C_3   0.659261 0.650387 0.189449 -0.262644
C23   C     C_R   0.392150 0.404447 0.127393 0.616435
C24   C     C_3   0.465494 0.587566 0.808032 -0.202970
C25   C     C_3   0.351883 0.237065 0.212316 -0.268207
C26   C     C_3   0.320707 0.154101 0.807753 -0.257666
C27   C     C_R   0.483166 0.300811 0.897381 0.583297
C28   C     C_R   0.269443 0.450773 0.093811 -0.255968
C29   C     C_R   0.613879 0.270927 0.933163 -0.244952
C30   C     C_2   0.090744 0.866447 0.505294 -0.334984
C31   C     C_2   0.924541 0.137136 0.525061 -0.323837
C32   C     C_2   0.006812 0.937833 0.536749 -0.162755
H1    H     H_    0.207321 0.467566 0.146438 0.203356
H2    H     H_    0.329451 0.363321 0.423475 0.188739
H3    H     H_    0.612159 0.646719 0.108928 0.149709
H4    H     H_    0.769024 0.683705 0.202552 0.171351
H5    H     H_    0.611806 0.719824 0.228253 0.200373
H6    H     H_    0.515381 0.584891 0.887373 0.131524
H7    H     H_    0.416673 0.674677 0.797275 0.168270
H8    H     H_    0.546664 0.590252 0.765796 0.209571
H9    H     H_    0.395537 0.173642 0.164879 0.167850
H10   H     H_    0.241058 0.233393 0.183294 0.160392
H11   H     H_    0.365130 0.200540 0.286594 0.211961
H12   H     H_    0.659806 0.218050 0.883505 0.216200
H13   H     H_    0.238984 0.184702 0.841892 0.174443
H14   H     H_    0.368132 0.078689 0.849106 0.151901
H15   H     H_    0.273366 0.114021 0.731354 0.199730
H16   H     H_    0.998381 0.340470 0.181322 0.194747
H17   H     H_    0.972702 0.578565 0.832748 0.210037
H18   H     H_    0.129912 0.112327 0.532089 0.200159
H19   H     H_    0.914796 0.898310 0.557338 0.200212
H20   H     H_    0.823642 0.094889 0.527119 0.178971
H21   H     H_    0.182440 0.906460 0.484654 0.177648
H22   H     H_    0.670863 0.637408 0.575613 0.177061
N1    N     N_2   0.322180 0.446120 0.460900 -0.186079
N2    N     N_2   0.677820 0.553880 0.539100 -0.208206
O1    O     O_R   0.935190 0.693030 0.507870 -0.626290
O2    O     O_3   0.371288 0.480940 0.772054 -0.536180
O3    O     O_3   0.418339 0.360512 0.220503 -0.558448
O4    O     O_3   0.417598 0.255497 0.802176 -0.558613
O5    O     O_R   0.064810 0.306970 0.492130 -0.628013
O6    O     O_R   0.142080 0.658430 0.482770 -0.556566
O7    O     O_R   0.857920 0.341570 0.517230 -0.561195
O8    O     O_R   0.969700 0.527180 0.651960 -0.625217
O9    O     O_R   0.030300 0.472820 0.348040 -0.615104
O10   O     O_R   0.176600 0.492580 0.626860 -0.521572
O11   O     O_R   0.823400 0.507420 0.373140 -0.524879
O12   O     O_3   0.636414 0.533513 0.228120 -0.554577
Zn1   Zn    Zn3+2 0.861850 0.523100 0.516760 1.018212
Zn2   Zn    Zn3+2 0.138150 0.476900 0.483240 1.023502

loop_
_geom_bond_atom_site_label_1
_geom_bond_atom_site_label_2
_ccdc_geom_bond_type
C8    C13   A    
O10   Zn2   S    
C30   H21   S    
C24   H8    S    
C26   H15   S    
C25   O3    S    
C7    C14   A    
C31   H20   S    
O7    Zn1   S    
C26   O4    S    
C21   C23   A    
C22   O12   S    
C2    C31   D    
C24   H7    S    
C30   C32   D    
N1    Zn2   S    
C25   H10   S    
C6    O11   A    
C17   C19   A    
C23   C28   A    
C5    O8    A    
C1    O1    A    
C3    C4    S    
C12   O7    A    
C28   H1    S    
C1    C30   S    
C5    C7    S    
C10   C13   A    
C22   H4    S    
C15   O12   S    
C18   C28   A    
C2    H18   S    
Br4   C3    S    
C11   H17   S    
C13   H16   S    
C20   C21   A    
C15   C17   A    
C10   C19   A    
C25   H11   S    
C9    C18   A    
C14   C16   A    
C9    C11   A    
C12   C31   S    
C26   H14   S    
Br2   C10   S    
C25   H9    S    
C22   H3    S    
C20   C27   A    
C4    N2    D    
Br1   C9    S    
C27   C29   A    
C16   C18   A    
H22   N2    S    
H2    N1    S    
O6    Zn2   S    
C6    O9    A    
N2    Zn1   S    
O9    Zn2   S    
C5    O10   A    
C8    C15   A    
C19   C29   A    
Br3   C4    S    
C3    N1    D    
O11   Zn1   S    
C29   H12   S    
C17   C21   A    
C23   O3    S    
C12   O5    A    
C24   H6    S    
O1    Zn1   S    
O8    Zn1   S    
C6    C8    S    
C7    C11   A    
C27   O4    S    
C26   H13   S    
C14   O2    S    
O5    Zn2   S    
C16   C20   A    
C22   H5    S    
C2    C32   S    
C1    O6    A    
C32   H19   S    
C24   O2    S    
