data_mof_unit_56605.cif
_audit_creation_date              2012-12-11T14:05:39-0500
_audit_creation_method            fapswitch 2.2
_symmetry_space_group_name_H-M    P1
_symmetry_Int_Tables_number       1
_space_group_crystal_system       monoclinic
_cell_length_a                    17.47797
_cell_length_b                    17.47797
_cell_length_c                    17.477965
_cell_angle_alpha                 90.0
_cell_angle_beta                  90.0
_cell_angle_gamma                 90.000024
_cell_volume                      5339.15887876

loop_
_atom_site_label
_atom_site_type_symbol
_atom_type_description
_atom_site_fract_x
_atom_site_fract_y
_atom_site_fract_z
_atom_type_partial_charge
C1    C     C_R   0.675051 0.773311 0.226689 -0.192220
C2    C     C_R   0.324949 0.773311 0.226689 -0.192218
C3    C     C_R   0.902719 0.815306 0.615600 0.701356
C4    C     C_R   0.097281 0.384399 0.815307 0.701356
C5    C     C_R   0.902719 0.615601 0.184693 0.701356
C6    C     C_R   0.097281 0.815307 0.615601 0.701354
C7    C     C_R   0.902719 0.184693 0.384399 0.701355
C8    C     C_R   0.815307 0.902719 0.615600 0.701357
C9    C     C_R   0.184693 0.097281 0.384400 0.701357
C10   C     C_R   0.615601 0.902719 0.184693 0.701356
C11   C     C_R   0.384399 0.097281 0.815307 0.701356
C12   C     C_R   0.184693 0.902719 0.384399 0.701355
C13   C     C_R   0.226689 0.324949 0.773311 -0.192220
C14   C     C_R   0.815307 0.097281 0.615601 0.701354
C15   C     C_R   0.384400 0.902719 0.815307 0.701356
C16   C     C_R   0.615600 0.097281 0.184693 0.701356
C17   C     C_R   0.184693 0.097281 0.615600 0.701355
C18   C     C_R   0.815307 0.902719 0.384400 0.701355
C19   C     C_R   0.384399 0.097281 0.184693 0.701353
C20   C     C_R   0.615601 0.902719 0.815307 0.701353
C21   C     C_R   0.815307 0.097281 0.384399 0.701355
C22   C     C_R   0.184693 0.902719 0.615600 0.701355
C23   C     C_R   0.615600 0.097281 0.815306 0.701359
C24   C     C_R   0.773311 0.675051 0.226689 -0.192220
C25   C     C_R   0.384400 0.902719 0.184694 0.701359
C26   C     C_R   0.324949 0.773311 0.773311 -0.192218
C27   C     C_R   0.675051 0.226689 0.226689 -0.192218
C28   C     C_R   0.773311 0.675051 0.773311 -0.192220
C29   C     C_R   0.226689 0.324949 0.226689 -0.192220
C30   C     C_R   0.226689 0.226689 0.675051 -0.192218
C31   C     C_R   0.773311 0.773311 0.324949 -0.192218
C32   C     C_R   0.226689 0.773311 0.324949 -0.192218
C33   C     C_R   0.324949 0.226689 0.773311 -0.192220
C34   C     C_R   0.773311 0.226689 0.675051 -0.192218
C35   C     C_R   0.773311 0.226689 0.324949 -0.192218
C36   C     C_R   0.226689 0.773311 0.675051 -0.192218
C37   C     C_R   0.773311 0.773311 0.675050 -0.192217
C38   C     C_R   0.226689 0.226689 0.324950 -0.192217
C39   C     C_R   0.637128 0.827625 0.827625 -0.340267
C40   C     C_R   0.362872 0.172375 0.172375 -0.340268
C41   C     C_R   0.172375 0.637127 0.827625 -0.340271
C42   C     C_R   0.827625 0.362872 0.172375 -0.340271
C43   C     C_R   0.362872 0.172375 0.827625 -0.340269
C44   C     C_R   0.226689 0.675051 0.226689 -0.192218
C45   C     C_R   0.637128 0.827625 0.172375 -0.340269
C46   C     C_R   0.827625 0.362872 0.827625 -0.340270
C47   C     C_R   0.172375 0.637128 0.172375 -0.340270
C48   C     C_R   0.637128 0.172375 0.172375 -0.340270
C49   C     C_R   0.362872 0.827625 0.827625 -0.340270
C50   C     C_R   0.172375 0.362872 0.172375 -0.340268
C51   C     C_R   0.827625 0.637128 0.827625 -0.340267
C52   C     C_R   0.362872 0.827625 0.172375 -0.340271
C53   C     C_R   0.637128 0.172375 0.827625 -0.340271
C54   C     C_R   0.827625 0.637128 0.172375 -0.340269
C55   C     C_R   0.773311 0.324949 0.773311 -0.192218
C56   C     C_R   0.172375 0.362872 0.827625 -0.340269
C57   C     C_R   0.827625 0.172375 0.637128 -0.340269
C58   C     C_R   0.172375 0.827625 0.362872 -0.340270
C59   C     C_R   0.827625 0.827625 0.362872 -0.340269
C60   C     C_R   0.172375 0.172375 0.637128 -0.340269
C61   C     C_R   0.172375 0.172375 0.362873 -0.340270
C62   C     C_R   0.827625 0.827625 0.637127 -0.340270
C63   C     C_R   0.172375 0.827625 0.637128 -0.340269
C64   C     C_R   0.827625 0.172375 0.362872 -0.340270
C65   C     C_R   0.703306 0.703306 0.199225 0.493924
C66   C     C_R   0.324949 0.226689 0.226689 -0.192220
C67   C     C_R   0.296694 0.296694 0.800775 0.493924
C68   C     C_R   0.296694 0.703306 0.199225 0.493923
C69   C     C_R   0.703306 0.296694 0.800775 0.493922
C70   C     C_R   0.296694 0.296694 0.199225 0.493922
C71   C     C_R   0.703306 0.703306 0.800775 0.493921
C72   C     C_R   0.703306 0.296694 0.199225 0.493922
C73   C     C_R   0.296694 0.703306 0.800775 0.493922
C74   C     C_R   0.199225 0.703306 0.703306 0.493921
C75   C     C_R   0.800775 0.296694 0.296694 0.493922
C76   C     C_R   0.199225 0.296694 0.703306 0.493923
C77   C     C_R   0.675051 0.773311 0.773311 -0.192220
C78   C     C_R   0.800775 0.703306 0.296694 0.493923
C79   C     C_R   0.199225 0.296694 0.296694 0.493924
C80   C     C_R   0.800775 0.703306 0.703306 0.493924
C81   C     C_R   0.199225 0.703306 0.296694 0.493922
C82   C     C_R   0.800775 0.296694 0.703306 0.493922
C83   C     C_R   0.703306 0.199225 0.703306 0.493921
C84   C     C_R   0.296694 0.800775 0.296694 0.493922
C85   C     C_R   0.703306 0.199225 0.296694 0.493922
C86   C     C_R   0.296694 0.800775 0.703306 0.493922
C87   C     C_R   0.296694 0.199225 0.296694 0.493924
C88   C     C_R   0.773311 0.324949 0.226689 -0.192218
C89   C     C_R   0.703306 0.800775 0.703306 0.493924
C90   C     C_R   0.296694 0.199225 0.703306 0.493923
C91   C     C_R   0.703306 0.800775 0.296694 0.493923
C92   C     C_R   0.615600 0.815307 0.902719 0.701356
C93   C     C_R   0.384399 0.184693 0.097281 0.701356
C94   C     C_R   0.184693 0.615601 0.902719 0.701354
C95   C     C_R   0.815307 0.384399 0.097281 0.701355
C96   C     C_R   0.384399 0.184693 0.902719 0.701355
C97   C     C_R   0.615601 0.815307 0.097281 0.701355
C98   C     C_R   0.815307 0.384400 0.902719 0.701357
C99   C     C_R   0.226689 0.675051 0.773311 -0.192217
C100  C     C_R   0.184693 0.615600 0.097281 0.701357
C101  C     C_R   0.615600 0.184693 0.097281 0.701357
C102  C     C_R   0.384400 0.815307 0.902719 0.701357
C103  C     C_R   0.184693 0.384400 0.097281 0.701356
C104  C     C_R   0.815307 0.615600 0.902719 0.701356
C105  C     C_R   0.384399 0.815307 0.097281 0.701355
C106  C     C_R   0.615601 0.184693 0.902719 0.701354
C107  C     C_R   0.815307 0.615601 0.097281 0.701355
C108  C     C_R   0.184693 0.384399 0.902719 0.701355
C109  C     C_R   0.902719 0.615601 0.815307 0.701353
C110  C     C_R   0.675051 0.226689 0.773311 -0.192217
C111  C     C_R   0.097281 0.384399 0.184693 0.701353
C112  C     C_R   0.902719 0.184693 0.615600 0.701355
C113  C     C_R   0.097281 0.815307 0.384399 0.701355
C114  C     C_R   0.902719 0.384400 0.184694 0.701359
C115  C     C_R   0.097281 0.615600 0.815306 0.701358
C116  C     C_R   0.902719 0.815307 0.384400 0.701355
C117  C     C_R   0.097281 0.184693 0.615600 0.701355
C118  C     C_R   0.097281 0.615600 0.184693 0.701356
C119  C     C_R   0.902719 0.384400 0.815307 0.701356
C120  C     C_R   0.097281 0.184693 0.384400 0.701357
Cl1   Cl    Cl    0.634087 0.634088 0.174666 -0.171636
Cl2   Cl    Cl    0.825334 0.365912 0.365913 -0.171636
Cl3   Cl    Cl    0.174666 0.365913 0.634088 -0.171636
Cl4   Cl    Cl    0.825334 0.634087 0.365912 -0.171636
Cl5   Cl    Cl    0.174666 0.365913 0.365912 -0.171636
Cl6   Cl    Cl    0.825334 0.634087 0.634088 -0.171636
Cl7   Cl    Cl    0.174666 0.634087 0.365913 -0.171636
Cl8   Cl    Cl    0.825334 0.365912 0.634087 -0.171636
Cl9   Cl    Cl    0.634088 0.174666 0.634087 -0.171636
Cl10  Cl    Cl    0.365912 0.825334 0.365913 -0.171636
Cl11  Cl    Cl    0.634087 0.174666 0.365913 -0.171636
Cl12  Cl    Cl    0.365912 0.365912 0.825334 -0.171636
Cl13  Cl    Cl    0.365912 0.825334 0.634087 -0.171636
Cl14  Cl    Cl    0.365913 0.174666 0.365912 -0.171636
Cl15  Cl    Cl    0.634087 0.825334 0.634088 -0.171636
Cl16  Cl    Cl    0.365913 0.174666 0.634088 -0.171636
Cl17  Cl    Cl    0.634087 0.825334 0.365912 -0.171636
Cl18  Cl    Cl    0.365913 0.634087 0.174666 -0.171636
Cl19  Cl    Cl    0.634087 0.365912 0.825334 -0.171636
Cl20  Cl    Cl    0.365912 0.365912 0.174666 -0.171636
Cl21  Cl    Cl    0.634087 0.634088 0.825334 -0.171636
Cl22  Cl    Cl    0.634087 0.365913 0.174666 -0.171636
Cl23  Cl    Cl    0.365912 0.634087 0.825334 -0.171636
Cl24  Cl    Cl    0.174666 0.634088 0.634087 -0.171636
F1    F     F_    0.603140 0.745424 0.932401 -0.494118
F2    F     F_    0.396860 0.745424 0.932401 -0.494117
F3    F     F_    0.254576 0.396860 0.067599 -0.494118
F4    F     F_    0.745424 0.603140 0.932401 -0.494118
F5    F     F_    0.396859 0.745424 0.067598 -0.494119
F6    F     F_    0.603141 0.254576 0.932402 -0.494119
F7    F     F_    0.745424 0.603141 0.067598 -0.494119
F8    F     F_    0.254575 0.396859 0.932402 -0.494119
F9    F     F_    0.932403 0.603143 0.745425 -0.494122
F10   F     F_    0.067597 0.396857 0.254575 -0.494122
F11   F     F_    0.932401 0.254576 0.603141 -0.494118
F12   F     F_    0.396860 0.254576 0.067599 -0.494118
F13   F     F_    0.067598 0.745424 0.396859 -0.494118
F14   F     F_    0.932401 0.396861 0.254576 -0.494115
F15   F     F_    0.067599 0.603138 0.745424 -0.494115
F16   F     F_    0.932401 0.745424 0.396859 -0.494118
F17   F     F_    0.067598 0.254576 0.603141 -0.494118
F18   F     F_    0.067599 0.603140 0.254576 -0.494118
F19   F     F_    0.932401 0.396860 0.745424 -0.494118
F20   F     F_    0.067599 0.254576 0.396860 -0.494117
F21   F     F_    0.932401 0.745424 0.603140 -0.494116
F22   F     F_    0.067598 0.396859 0.745424 -0.494119
F23   F     F_    0.254576 0.603141 0.932402 -0.494119
F24   F     F_    0.932402 0.603141 0.254576 -0.494119
F25   F     F_    0.067598 0.745424 0.603142 -0.494120
F26   F     F_    0.932402 0.254575 0.396858 -0.494120
F27   F     F_    0.745424 0.932401 0.603140 -0.494116
F28   F     F_    0.254576 0.067599 0.396860 -0.494117
F29   F     F_    0.603141 0.932402 0.254576 -0.494119
F30   F     F_    0.396859 0.067598 0.745424 -0.494119
F31   F     F_    0.254576 0.932402 0.396858 -0.494120
F32   F     F_    0.745424 0.067598 0.603142 -0.494120
F33   F     F_    0.396860 0.932401 0.745424 -0.494118
F34   F     F_    0.745424 0.396859 0.067598 -0.494119
F35   F     F_    0.603140 0.067599 0.254576 -0.494118
F36   F     F_    0.254576 0.067598 0.603141 -0.494118
F37   F     F_    0.745424 0.932401 0.396859 -0.494118
F38   F     F_    0.396857 0.067597 0.254575 -0.494122
F39   F     F_    0.603144 0.932403 0.745425 -0.494122
F40   F     F_    0.745424 0.067598 0.396859 -0.494118
F41   F     F_    0.254576 0.932401 0.603141 -0.494118
F42   F     F_    0.603138 0.067599 0.745424 -0.494115
F43   F     F_    0.396861 0.932401 0.254576 -0.494115
F44   F     F_    0.396859 0.254575 0.932402 -0.494119
F45   F     F_    0.603141 0.745424 0.067598 -0.494119
F46   F     F_    0.745424 0.396860 0.932401 -0.494117
F47   F     F_    0.254576 0.603140 0.067599 -0.494117
F48   F     F_    0.603140 0.254576 0.067599 -0.494117
N1    N     N_R   0.584840 0.879720 0.932190 -0.190169
N2    N     N_R   0.415160 0.879720 0.932190 -0.190169
N3    N     N_R   0.120280 0.415160 0.067810 -0.190169
N4    N     N_R   0.879720 0.584840 0.932190 -0.190169
N5    N     N_R   0.415160 0.879720 0.067810 -0.190169
N6    N     N_R   0.584840 0.120280 0.932190 -0.190169
N7    N     N_R   0.879720 0.584840 0.067810 -0.190169
N8    N     N_R   0.120280 0.415160 0.932190 -0.190169
N9    N     N_R   0.932190 0.584840 0.879720 -0.190168
N10   N     N_R   0.067810 0.415160 0.120280 -0.190168
N11   N     N_R   0.932190 0.120280 0.584840 -0.190169
N12   N     N_R   0.415160 0.120280 0.067810 -0.190169
N13   N     N_R   0.067810 0.879720 0.415160 -0.190169
N14   N     N_R   0.932190 0.415160 0.120280 -0.190169
N15   N     N_R   0.067810 0.584840 0.879720 -0.190169
N16   N     N_R   0.932190 0.879720 0.415160 -0.190169
N17   N     N_R   0.067810 0.120280 0.584840 -0.190169
N18   N     N_R   0.067810 0.584840 0.120280 -0.190169
N19   N     N_R   0.932190 0.415160 0.879720 -0.190169
N20   N     N_R   0.067810 0.120280 0.415160 -0.190169
N21   N     N_R   0.932190 0.879720 0.584840 -0.190169
N22   N     N_R   0.067810 0.415160 0.879720 -0.190169
N23   N     N_R   0.120280 0.584840 0.932190 -0.190169
N24   N     N_R   0.932190 0.584840 0.120280 -0.190169
N25   N     N_R   0.067810 0.879720 0.584840 -0.190168
N26   N     N_R   0.932190 0.120280 0.415160 -0.190168
N27   N     N_R   0.879720 0.932190 0.584840 -0.190169
N28   N     N_R   0.120280 0.067810 0.415160 -0.190169
N29   N     N_R   0.584840 0.932190 0.120280 -0.190169
N30   N     N_R   0.415160 0.067810 0.879720 -0.190169
N31   N     N_R   0.120280 0.932190 0.415160 -0.190168
N32   N     N_R   0.879720 0.067810 0.584840 -0.190168
N33   N     N_R   0.415160 0.932190 0.879720 -0.190169
N34   N     N_R   0.879720 0.415160 0.067810 -0.190169
N35   N     N_R   0.584840 0.067810 0.120280 -0.190169
N36   N     N_R   0.120280 0.067810 0.584840 -0.190169
N37   N     N_R   0.879720 0.932190 0.415160 -0.190169
N38   N     N_R   0.415160 0.067810 0.120280 -0.190168
N39   N     N_R   0.584840 0.932190 0.879720 -0.190168
N40   N     N_R   0.879720 0.067810 0.415160 -0.190169
N41   N     N_R   0.120280 0.932190 0.584840 -0.190169
N42   N     N_R   0.584840 0.067810 0.879720 -0.190169
N43   N     N_R   0.415160 0.932190 0.120280 -0.190169
N44   N     N_R   0.415160 0.120280 0.932190 -0.190169
N45   N     N_R   0.584840 0.879720 0.067810 -0.190169
N46   N     N_R   0.879720 0.415160 0.932190 -0.190169
N47   N     N_R   0.120280 0.584840 0.067810 -0.190169
N48   N     N_R   0.584840 0.120280 0.067810 -0.190169
Ni1   Ni    Ni4+2 0.500000 0.880920 0.000000 0.352129
Ni2   Ni    Ni4+2 0.119080 0.000000 0.500000 0.352129
Ni3   Ni    Ni4+2 0.500000 0.000000 0.119080 0.352129
Ni4   Ni    Ni4+2 0.500000 0.000000 0.880920 0.352129
Ni5   Ni    Ni4+2 0.500000 0.119080 0.000000 0.352129
Ni6   Ni    Ni4+2 0.119080 0.500000 0.000000 0.352129
Ni7   Ni    Ni4+2 0.880920 0.500000 0.000000 0.352129
Ni8   Ni    Ni4+2 0.000000 0.500000 0.880920 0.352129
Ni9   Ni    Ni4+2 1.000000 0.500000 0.119080 0.352129
Ni10  Ni    Ni4+2 1.000000 0.119080 0.500000 0.352129
Ni11  Ni    Ni4+2 1.000000 0.880920 0.500000 0.352129
Ni12  Ni    Ni4+2 0.880920 0.000000 0.500000 0.352129

loop_
_geom_bond_atom_site_label_1
_geom_bond_atom_site_label_2
_ccdc_geom_bond_type
C53   C110  S    
C69   Cl19  S    
C21   F40   S    
C16   N35   A    
C70   Cl20  S    
C89   Cl15  S    
N2    Ni1   S    
C115  N15   A    
C75   Cl2   S    
N26   Ni10  S    
C104  F4    S    
C68   Cl18  S    
C67   Cl12  S    
C32   C58   S    
C40   C93   A    
C30   C90   A    
C101  F48   S    
C83   C110  A    
N15   Ni8   S    
C16   C48   A    
C37   C62   S    
N5    N43   A    
C103  F3    S    
N34   Ni7   S    
N3    N10   A    
N33   Ni4   S    
C72   Cl22  S    
C32   C81   A    
N30   N44   A    
C94   N23   A    
C54   C107  A    
C15   N33   A    
N47   Ni6   S    
C9    C61   A    
C39   C77   S    
N2    N33   A    
C14   N32   A    
C28   C71   A    
C83   Cl9   S    
C2    C68   A    
N35   Ni3   S    
C28   C51   S    
C57   C112  A    
N32   Ni12  S    
C38   C79   A    
N35   N48   A    
N31   Ni2   S    
C24   C54   S    
C109  N9    A    
C22   N41   A    
C26   C73   A    
C90   Cl16  S    
C19   F38   S    
C100  N47   A    
C5    F24   S    
C31   C59   S    
C106  F6    S    
C27   C85   A    
N14   Ni9   S    
C96   F44   S    
C114  F14   S    
C21   C64   A    
C14   F32   S    
N38   Ni3   S    
C25   F43   S    
C10   N29   A    
C22   C63   A    
C91   Cl17  S    
C23   N42   A    
C2    C84   A    
C53   C106  A    
C42   C114  A    
C47   C118  A    
C56   C108  A    
N24   Ni9   S    
C112  F11   S    
C30   C60   S    
C46   C55   S    
N14   N34   A    
C34   C57   S    
N8    N22   A    
C41   C99   S    
C3    F21   S    
C11   C43   A    
C35   C64   S    
N40   Ni12  S    
N17   N36   A    
C65   Cl1   S    
C36   C63   S    
C78   Cl4   S    
N43   Ni3   S    
N18   Ni9   S    
N12   Ni5   S    
C8    F27   S    
C98   F46   S    
N17   Ni10  S    
C106  N6    A    
C38   C61   S    
C12   C58   A    
C10   F29   S    
C97   F45   S    
C46   C98   A    
C50   C103  A    
C51   C109  A    
C20   N39   A    
C108  F8    S    
C4    C56   A    
C101  N48   A    
N12   N38   A    
C7    N26   A    
C87   Cl14  S    
C21   N40   A    
C103  N3    A    
C120  N20   A    
C41   C115  A    
C102  N2    A    
C11   N30   A    
C97   N45   A    
C72   C88   A    
N29   Ni3   S    
C23   C53   A    
C29   C50   S    
N21   N27   A    
C71   Cl21  S    
C32   C84   A    
C37   C80   A    
C96   N44   A    
C4    N22   A    
C75   C88   A    
C42   C95   A    
C33   C43   S    
C5    C54   A    
C108  N8    A    
C16   F35   S    
C44   C81   A    
N6    N42   A    
C26   C49   S    
C119  F19   S    
C49   C102  A    
C20   C39   A    
N30   Ni4   S    
C59   C116  A    
N20   N28   A    
C18   F37   S    
C117  F17   S    
C51   C104  A    
C5    N24   A    
N28   Ni2   S    
C111  N10   A    
N13   N31   A    
C47   C100  A    
N7    N24   A    
N29   N45   A    
C105  N5    A    
N16   Ni11  S    
C113  N13   A    
C6    C63   A    
N46   Ni7   S    
C12   N31   A    
N13   Ni11  S    
C58   C113  A    
C6    N25   A    
C30   C76   A    
C69   C110  A    
N41   Ni2   S    
C86   Cl13  S    
C1    C65   A    
C41   C94   A    
C29   C79   A    
C13   C76   A    
C26   C86   A    
C77   C89   A    
C10   C45   A    
N15   N23   A    
C43   C96   A    
C104  N4    A    
N19   N46   A    
C60   C117  A    
C116  N16   A    
N3    Ni6   S    
C55   C82   A    
N5    Ni1   S    
C93   N12   A    
C82   Cl8   S    
C55   C69   A    
C12   F31   S    
C36   C74   A    
C24   C65   A    
C20   F39   S    
C17   F36   S    
C24   C78   A    
C52   C105  A    
C92   N1    A    
C31   C91   A    
N27   Ni12  S    
C15   F33   S    
N4    Ni7   S    
N48   Ni5   S    
C44   C68   A    
C100  F47   S    
C42   C88   S    
C34   C83   A    
N1    N39   A    
N25   N41   A    
C39   C92   A    
C71   C77   A    
C109  F9    S    
C33   C67   A    
C31   C78   A    
C29   C70   A    
C13   C67   A    
C3    C62   A    
C105  F5    S    
C73   C99   A    
C14   C57   A    
C74   Cl24  S    
C118  F18   S    
C11   F30   S    
C34   C82   A    
C95   F34   S    
C92   F1    S    
C76   Cl3   S    
N1    Ni1   S    
N44   Ni5   S    
C93   F12   S    
C35   C75   A    
C9    N28   A    
N19   Ni8   S    
N42   Ni4   S    
C94   F23   S    
C23   F42   S    
C19   N38   A    
C44   C47   S    
C116  F16   S    
C74   C99   A    
C98   N46   A    
N7    Ni7   S    
C3    N21   A    
N25   Ni11  S    
N16   N37   A    
C119  N19   A    
C2    C52   S    
N45   Ni1   S    
C38   C87   A    
C118  N18   A    
C36   C86   A    
N18   N47   A    
C13   C56   S    
C22   F41   S    
C117  N17   A    
N39   Ni4   S    
C95   N34   A    
C107  F7    S    
C8    N27   A    
C45   C97   A    
C33   C90   A    
C85   Cl11  S    
C107  N7    A    
C35   C85   A    
C1    C45   S    
C66   C70   A    
N11   Ni10  S    
C80   Cl6   S    
C66   C87   A    
C48   C101  A    
C84   Cl10  S    
C50   C111  A    
C17   N36   A    
C37   C89   A    
C4    F22   S    
C46   C119  A    
N21   Ni11  S    
C15   C49   A    
C27   C48   S    
C79   Cl5   S    
N26   N40   A    
C28   C80   A    
C111  F10   S    
C73   Cl23  S    
C7    C64   A    
C25   C52   A    
N37   Ni12  S    
N8    Ni6   S    
C19   C40   A    
C120  F20   S    
C17   C60   A    
C18   N37   A    
C114  N14   A    
C18   C59   A    
N10   Ni9   S    
N36   Ni2   S    
C25   N43   A    
N23   Ni6   S    
C1    C91   A    
N11   N32   A    
C7    F26   S    
C115  F15   S    
N9    Ni8   S    
C9    F28   S    
C40   C66   S    
N6    Ni5   S    
C112  N11   A    
C113  F13   S    
N4    N9    A    
N20   Ni10  S    
C102  F2    S    
C27   C72   A    
C81   Cl7   S    
N22   Ni8   S    
C8    C62   A    
C61   C120  A    
C6    F25   S    
