data_mof_unit_17932.cif
_audit_creation_date              2012-12-11T15:08:54-0500
_audit_creation_method            fapswitch 2.2
_symmetry_space_group_name_H-M    P1
_symmetry_Int_Tables_number       1
_space_group_crystal_system       triclinic
_cell_length_a                    19.514023
_cell_length_b                    11.302729
_cell_length_c                    18.698635
_cell_angle_alpha                 89.812226
_cell_angle_beta                  89.509758
_cell_angle_gamma                 89.98043
_cell_volume                      4124.02966154

loop_
_atom_site_label
_atom_site_type_symbol
_atom_type_description
_atom_site_fract_x
_atom_site_fract_y
_atom_site_fract_z
_atom_type_partial_charge
C1    C     C_R   0.270841 0.046258 0.852372 0.526640
C2    C     C_3   0.679200 0.549160 0.951320 -0.235190
C3    C     C_R   0.226874 0.544140 0.353817 0.532998
C4    C     C_R   0.468007 0.822379 0.645100 0.536038
C5    C     C_R   0.532014 0.822190 0.354875 0.534607
C6    C     C_R   0.968008 0.322379 0.645101 0.536029
C7    C     C_R   0.032016 0.322190 0.354876 0.534610
C8    C     C_R   0.260789 0.639719 0.643856 0.514314
C9    C     C_R   0.739260 0.639433 0.356105 0.519480
C10   C     C_R   0.760790 0.139721 0.643855 0.514319
C11   C     C_R   0.239261 0.139432 0.356105 0.519486
C12   C     C_3   0.485044 0.931732 0.034187 0.002494
C13   C     C_3   0.812503 0.022823 0.043075 -0.231229
C14   C     C_3   0.522443 0.920951 0.960645 0.006946
C15   C     C_3   0.985021 0.431703 0.034199 0.002496
C16   C     C_3   0.022423 0.420965 0.960658 0.006953
C17   C     C_3   0.431363 0.839939 0.010297 -0.177669
C18   C     C_3   0.567419 0.819578 0.990525 -0.176686
C19   C     C_3   0.931356 0.339888 0.010301 -0.177662
C20   C     C_3   0.067416 0.319606 0.990525 -0.176691
C21   C     C_3   0.469363 0.827832 0.937432 0.045250
C22   C     C_3   0.529118 0.829231 0.063258 0.039267
C23   C     C_3   0.969359 0.327827 0.937433 0.045246
C24   C     C_3   0.179197 0.049174 0.951319 -0.235204
C25   C     C_3   0.029113 0.329219 0.063259 0.039276
C26   C     C_R   0.469446 0.035052 0.083803 0.029432
C27   C     C_R   0.499017 0.147376 0.073951 -0.106239
C28   C     C_R   0.489006 0.236729 0.124511 -0.122763
C29   C     C_R   0.451328 0.214132 0.186840 -0.072979
C30   C     C_R   0.423659 0.101973 0.198833 -0.057683
C31   C     C_R   0.432287 0.013200 0.147730 -0.070516
C32   C     C_R   0.542591 0.009292 0.903121 0.026004
C33   C     C_R   0.508017 0.118059 0.895993 -0.085823
C34   C     C_R   0.520010 0.190805 0.836552 -0.108460
C35   C     C_3   0.317585 0.532230 0.960675 -0.237310
C36   C     C_R   0.563867 0.153512 0.781694 -0.060013
C37   C     C_R   0.595151 0.042649 0.785681 -0.065111
C38   C     C_R   0.583871 0.970217 0.845318 -0.076759
C39   C     C_R   0.969404 0.534989 0.083837 0.029407
C40   C     C_R   0.998985 0.647316 0.074027 -0.106222
C41   C     C_R   0.988982 0.736618 0.124628 -0.122727
C42   C     C_R   0.951302 0.713968 0.186949 -0.072906
C43   C     C_R   0.923618 0.601802 0.198894 -0.057615
C44   C     C_R   0.932238 0.513077 0.147756 -0.070532
C45   C     C_R   0.042564 0.509340 0.903150 0.026016
C46   C     C_3   0.669765 0.577431 0.031951 -0.230640
C47   C     C_R   0.007990 0.618112 0.896051 -0.085859
C48   C     C_R   0.019975 0.690893 0.836625 -0.108491
C49   C     C_R   0.063829 0.653633 0.781755 -0.060038
C50   C     C_R   0.095113 0.542766 0.785715 -0.065093
C51   C     C_R   0.083840 0.470300 0.845336 -0.076749
C52   C     C_3   0.817592 0.032255 0.960679 -0.237306
C53   C     C_3   0.169764 0.077448 0.031949 -0.230638
C54   C     C_3   0.180343 0.540078 0.028881 -0.208499
C55   C     C_3   0.807362 0.524982 0.974020 -0.218222
C56   C     C_3   0.680344 0.040074 0.028879 -0.208506
C57   C     C_R   0.728596 0.045453 0.146767 0.526017
C58   C     C_3   0.307347 0.024955 0.974025 -0.218276
C59   C     C_3   0.251221 0.711756 0.057740 -0.254071
C60   C     C_3   0.759520 0.717182 0.936098 -0.248592
C61   C     C_3   0.751213 0.211760 0.057743 -0.254063
C62   C     C_3   0.259530 0.217181 0.936100 -0.248569
C63   C     C_3   0.244405 0.578772 0.071552 0.065739
C64   C     C_3   0.752814 0.583750 0.926099 0.068109
C65   C     C_3   0.744404 0.078774 0.071553 0.065740
C66   C     C_3   0.252813 0.083751 0.926100 0.068100
C67   C     C_3   0.258626 0.612168 0.933083 0.050669
C68   C     C_R   0.770841 0.546259 0.852371 0.526638
C69   C     C_3   0.736138 0.633425 0.062544 0.048309
C70   C     C_3   0.758626 0.112179 0.933085 0.050658
C71   C     C_3   0.236138 0.133436 0.062544 0.048320
C72   C     C_3   0.191305 0.551955 0.949034 -0.249934
C73   C     C_3   0.791694 0.540363 0.053711 -0.248528
C74   C     C_3   0.691311 0.051947 0.949033 -0.249937
C75   C     C_3   0.291693 0.040374 0.053715 -0.248515
C76   C     C_3   0.262011 0.728687 0.975814 -0.227901
C77   C     C_3   0.759195 0.741731 0.017004 -0.242270
C78   C     C_3   0.761998 0.228699 0.975817 -0.227898
C79   C     C_R   0.228596 0.545453 0.146767 0.526016
C80   C     C_3   0.259201 0.241735 0.017004 -0.242269
C81   C     C_3   0.504971 0.696552 0.460502 -0.222240
C82   C     C_3   0.495135 0.696717 0.539888 -0.221576
C83   C     C_3   0.004970 0.196554 0.460502 -0.222241
C84   C     C_3   0.995133 0.196715 0.539888 -0.221578
C85   C     C_R   0.442741 0.817841 0.862823 0.535615
C86   C     C_R   0.556408 0.818417 0.137242 0.521547
C87   C     C_R   0.942739 0.317841 0.862823 0.535605
C88   C     C_R   0.056407 0.318415 0.137242 0.521551
C89   C     C_3   0.564417 0.900911 0.473735 -0.203384
C90   C     C_3   0.513897 0.727946 0.967092 -0.127722
C91   C     C_3   0.435553 0.901044 0.525817 -0.203674
C92   C     C_3   0.064422 0.400908 0.473739 -0.203361
C93   C     C_3   0.935558 0.401048 0.525820 -0.203686
C94   C     C_3   0.442104 0.880650 0.444292 -0.261379
C95   C     C_3   0.557855 0.881048 0.555368 -0.262520
C96   C     C_3   0.942109 0.380662 0.444295 -0.261398
C97   C     C_3   0.057860 0.381035 0.555371 -0.262490
C98   C     C_3   0.511545 0.824964 0.431124 0.042102
C99   C     C_3   0.488471 0.825296 0.568792 0.041650
C100  C     C_3   0.011548 0.324967 0.431126 0.042095
C101  C     C_3   0.476066 0.738834 0.039199 -0.127664
C102  C     C_3   0.988473 0.325294 0.568793 0.041647
C103  C     C_3   0.179025 0.648092 0.458756 -0.149286
C104  C     C_3   0.821034 0.648476 0.541088 -0.149134
C105  C     C_3   0.679021 0.148081 0.458759 -0.149335
C106  C     C_3   0.321033 0.148481 0.541089 -0.149107
C107  C     C_3   0.184644 0.666137 0.537874 0.118217
C108  C     C_3   0.815499 0.665926 0.461873 0.118288
C109  C     C_3   0.684649 0.166140 0.537875 0.118224
C110  C     C_3   0.315502 0.165923 0.461873 0.118286
C111  C     C_3   0.250922 0.457151 0.472590 -0.220193
C112  C     C_3   0.013910 0.227954 0.967082 -0.127729
C113  C     C_3   0.749179 0.457452 0.528210 -0.219955
C114  C     C_3   0.750924 0.957153 0.472589 -0.220205
C115  C     C_3   0.249180 0.957448 0.528208 -0.219947
C116  C     C_3   0.303719 0.649528 0.442099 -0.285585
C117  C     C_3   0.696308 0.649984 0.557619 -0.286135
C118  C     C_3   0.803717 0.149534 0.442098 -0.285584
C119  C     C_3   0.196307 0.149978 0.557618 -0.286134
C120  C     C_3   0.239967 0.574472 0.429523 0.031413
C121  C     C_3   0.760089 0.574967 0.570592 0.032446
C122  C     C_3   0.739967 0.074473 0.429523 0.031400
C123  C     C_3   0.976078 0.238799 0.039191 -0.127662
C124  C     C_3   0.260089 0.074965 0.570592 0.032454
C125  C     C_3   0.251367 0.606093 0.567701 0.050421
C126  C     C_3   0.748690 0.605897 0.432349 0.049482
C127  C     C_3   0.751371 0.106094 0.567701 0.050378
C128  C     C_3   0.248692 0.105896 0.432349 0.049507
C129  C     C_3   0.244295 0.473882 0.554254 -0.267030
C130  C     C_3   0.755740 0.473726 0.446468 -0.267202
C131  C     C_3   0.744298 0.973882 0.554253 -0.267065
C132  C     C_3   0.255743 0.973725 0.446466 -0.267178
C133  C     C_R   0.262901 0.642883 0.855351 0.530988
C134  C     C_3   0.312502 0.522812 0.043073 -0.231226
C135  C     C_R   0.729459 0.671699 0.139210 0.534758
C136  C     C_R   0.762903 0.142892 0.855353 0.530997
C137  C     C_R   0.229456 0.171711 0.139210 0.534760
C138  C     C_3   0.316151 0.647687 0.523896 -0.252091
C139  C     C_3   0.683879 0.647690 0.475855 -0.252365
C140  C     C_3   0.816153 0.147691 0.523895 -0.252094
C141  C     C_3   0.183880 0.147686 0.475853 -0.252365
C142  C     C_R   0.273064 0.044544 0.646312 0.531191
C143  C     C_R   0.726874 0.044140 0.353817 0.533000
C144  C     C_R   0.773064 0.544545 0.646313 0.531190
Cr1   Cr    Cr6+3 0.229620 0.836040 0.749110 0.985397
Cr2   Cr    Cr6+3 0.613980 0.676590 0.250790 0.990498
Cr3   Cr    Cr6+3 0.886020 0.176590 0.749210 0.988977
Cr4   Cr    Cr6+3 0.113980 0.176590 0.250790 0.990495
Cr5   Cr    Cr6+3 0.770380 0.836040 0.250890 0.982536
Cr6   Cr    Cr6+3 0.729620 0.336040 0.749110 0.985423
Cr7   Cr    Cr6+3 0.270380 0.336040 0.250890 0.982509
Cr8   Cr    Cr6+3 0.387630 0.990680 0.750730 1.004715
Cr9   Cr    Cr6+3 0.612370 0.990680 0.249270 1.007883
Cr10  Cr    Cr6+3 0.887630 0.490680 0.750730 1.004722
Cr11  Cr    Cr6+3 0.112370 0.490680 0.249270 1.007882
Cr12  Cr    Cr6+3 0.386020 0.676590 0.749210 0.988984
H1    H     H_    0.379510 0.848982 0.031817 0.089823
H2    H     H_    0.717135 0.764190 0.908832 0.097614
H3    H     H_    0.214817 0.924207 0.418571 0.106315
H4    H     H_    0.320398 0.432602 0.061713 0.134345
H5    H     H_    0.668196 0.454625 0.941990 0.125633
H6    H     H_    0.820396 0.932607 0.061707 0.134340
H7    H     H_    0.168193 0.954636 0.941991 0.125639
H8    H     H_    0.356182 0.570959 0.066810 0.106417
H9    H     H_    0.641067 0.599255 0.919522 0.111772
H10   H     H_    0.856181 0.070967 0.066820 0.106425
H11   H     H_    0.141069 0.099271 0.919518 0.111773
H12   H     H_    0.368471 0.569905 0.945828 0.138523
H13   H     H_    0.794913 0.247963 0.088322 0.098749
H14   H     H_    0.625410 0.635469 0.041319 0.129385
H15   H     H_    0.868474 0.069950 0.945838 0.138527
H16   H     H_    0.125411 0.135493 0.041315 0.129378
H17   H     H_    0.314605 0.443785 0.935997 0.112251
H18   H     H_    0.657688 0.493797 0.061054 0.124770
H19   H     H_    0.814624 0.943813 0.935996 0.112253
H20   H     H_    0.157683 0.993817 0.061053 0.124781
H21   H     H_    0.661222 0.953050 0.045123 0.101981
H22   H     H_    0.310719 0.933662 0.959459 0.100503
H23   H     H_    0.161222 0.453054 0.045125 0.101983
H24   H     H_    0.217149 0.264199 0.908831 0.097617
H25   H     H_    0.810796 0.433696 0.959432 0.100502
H26   H     H_    0.690751 0.963691 0.923702 0.105154
H27   H     H_    0.277301 0.955673 0.079906 0.111347
H28   H     H_    0.190734 0.463700 0.923699 0.105136
H29   H     H_    0.777297 0.455648 0.079885 0.111352
H30   H     H_    0.531901 0.166268 0.029032 0.085532
H31   H     H_    0.511809 0.323002 0.116024 0.098766
H32   H     H_    0.444203 0.283133 0.226199 0.107925
H33   H     H_    0.395185 0.083799 0.247538 0.115673
H34   H     H_    0.410719 0.926494 0.158216 0.104424
H35   H     H_    0.314300 0.757724 0.964743 0.104524
H36   H     H_    0.468658 0.143935 0.933653 0.093728
H37   H     H_    0.493507 0.274583 0.831953 0.091788
H38   H     H_    0.572413 0.209400 0.735361 0.122691
H39   H     H_    0.627644 0.012175 0.742321 0.092450
H40   H     H_    0.606356 0.882601 0.846089 0.096318
H41   H     H_    0.031867 0.666229 0.029118 0.085548
H42   H     H_    0.011793 0.822890 0.116178 0.098760
H43   H     H_    0.944185 0.782929 0.226339 0.107938
H44   H     H_    0.895138 0.583584 0.247591 0.115607
H45   H     H_    0.910663 0.426360 0.158208 0.104383
H46   H     H_    0.727876 0.818102 0.029189 0.104744
H47   H     H_    0.968636 0.643964 0.933722 0.093700
H48   H     H_    0.993469 0.774672 0.832046 0.091804
H49   H     H_    0.072371 0.709547 0.735434 0.122604
H50   H     H_    0.127603 0.512318 0.742347 0.092488
H51   H     H_    0.106326 0.382684 0.846087 0.096324
H52   H     H_    0.131045 0.596213 0.618143 0.332338
H53   H     H_    0.869107 0.596459 0.381714 0.333979
H54   H     H_    0.631069 0.096131 0.618131 0.332262
H55   H     H_    0.369122 0.096508 0.381704 0.334019
H56   H     H_    0.814278 0.257757 0.964742 0.104515
H57   H     H_    0.227881 0.318108 0.029183 0.104741
H58   H     H_    0.224432 0.793222 0.955564 0.133775
H59   H     H_    0.813109 0.760324 0.031320 0.129440
H60   H     H_    0.724413 0.293220 0.955569 0.133783
H61   H     H_    0.622306 0.808310 0.978955 0.089166
H62   H     H_    0.313114 0.260325 0.031321 0.129458
H63   H     H_    0.636879 0.098678 0.043286 0.141723
H64   H     H_    0.358954 0.062817 0.962509 0.137761
H65   H     H_    0.136878 0.598684 0.043290 0.141708
H66   H     H_    0.858951 0.562931 0.962521 0.137743
H67   H     H_    0.150725 0.610663 0.928329 0.157499
H68   H     H_    0.837613 0.575064 0.078473 0.153810
H69   H     H_    0.650728 0.110640 0.928322 0.157489
H70   H     H_    0.337618 0.075075 0.078462 0.153806
H71   H     H_    0.549046 0.641654 0.447034 0.140129
H72   H     H_    0.879506 0.348914 0.031830 0.089824
H73   H     H_    0.451035 0.641828 0.553530 0.140434
H74   H     H_    0.049043 0.141652 0.447034 0.140127
H75   H     H_    0.951032 0.141829 0.553530 0.140434
H76   H     H_    0.461188 0.650508 0.435135 0.120374
H77   H     H_    0.538916 0.650711 0.565480 0.120500
H78   H     H_    0.961185 0.150515 0.435134 0.120378
H79   H     H_    0.038912 0.150703 0.565480 0.120496
H80   H     H_    0.616282 0.892671 0.453736 0.111472
H81   H     H_    0.383730 0.892728 0.545904 0.111434
H82   H     H_    0.116286 0.392666 0.453738 0.111475
H83   H     H_    0.122305 0.308349 0.978952 0.089159
H84   H     H_    0.883734 0.392733 0.545905 0.111434
H85   H     H_    0.599484 0.824646 0.575994 0.102952
H86   H     H_    0.400494 0.824085 0.424059 0.103305
H87   H     H_    0.099486 0.324624 0.575994 0.102949
H88   H     H_    0.900496 0.324105 0.424058 0.103307
H89   H     H_    0.441448 0.963815 0.414245 0.168924
H90   H     H_    0.558440 0.964508 0.584814 0.168999
H91   H     H_    0.941459 0.463833 0.414253 0.168902
H92   H     H_    0.058451 0.464486 0.584826 0.169037
H93   H     H_    0.449405 0.994476 0.535094 0.160639
H94   H     H_    0.204470 0.760136 0.075683 0.123843
H95   H     H_    0.550427 0.994239 0.463873 0.159805
H96   H     H_    0.949414 0.494478 0.535101 0.160624
H97   H     H_    0.050437 0.494239 0.463881 0.159832
H98   H     H_    0.129931 0.607070 0.446689 0.182361
H99   H     H_    0.870187 0.607638 0.553537 0.182655
H100  H     H_    0.629932 0.107042 0.446701 0.182331
H101  H     H_    0.370188 0.107654 0.553544 0.182670
H102  H     H_    0.176687 0.735221 0.431126 0.084610
H103  H     H_    0.823214 0.735796 0.568150 0.082969
H104  H     H_    0.676673 0.235206 0.431124 0.084646
H105  H     H_    0.808320 0.749784 0.912068 0.129155
H106  H     H_    0.323206 0.235804 0.568148 0.082949
H107  H     H_    0.188276 0.759626 0.546709 0.165223
H108  H     H_    0.812131 0.759451 0.452293 0.165915
H109  H     H_    0.688295 0.259629 0.546698 0.165243
H110  H     H_    0.312143 0.259449 0.452286 0.165902
H111  H     H_    0.720975 0.883521 0.452940 0.103847
H112  H     H_    0.279101 0.883857 0.548370 0.104609
H113  H     H_    0.220976 0.383517 0.452940 0.103845
H114  H     H_    0.779103 0.383864 0.548371 0.104606
H115  H     H_    0.694512 0.940746 0.574140 0.125136
H116  H     H_    0.704461 0.260134 0.075690 0.123849
H117  H     H_    0.305506 0.940410 0.426743 0.127680
H118  H     H_    0.194509 0.440748 0.574143 0.125220
H119  H     H_    0.805503 0.440409 0.426746 0.127628
H120  H     H_    0.348486 0.612248 0.412808 0.122894
H121  H     H_    0.651568 0.612863 0.587144 0.122366
H122  H     H_    0.848484 0.112260 0.412804 0.122896
H123  H     H_    0.151567 0.112854 0.587141 0.122363
H124  H     H_    0.295653 0.740629 0.422306 0.105137
H125  H     H_    0.704344 0.741166 0.576851 0.104770
H126  H     H_    0.795647 0.240636 0.422308 0.105139
H127  H     H_    0.308335 0.249768 0.912073 0.129169
H128  H     H_    0.204341 0.241160 0.576851 0.104765
H129  H     H_    0.524669 0.642046 0.940774 0.124465
H130  H     H_    0.457932 0.662295 0.071225 0.126772
H131  H     H_    0.024693 0.142065 0.940755 0.124473
H132  H     H_    0.957959 0.162237 0.071208 0.126768
H133  H     H_    0.337258 0.730047 0.543065 0.115351
H134  H     H_    0.662641 0.729808 0.456054 0.115587
H135  H     H_    0.837260 0.230050 0.543064 0.115352
H136  H     H_    0.162642 0.229804 0.456054 0.115585
H137  H     H_    0.355830 0.579889 0.533397 0.130817
H138  H     H_    0.294921 0.747958 0.088319 0.098760
H139  H     H_    0.644297 0.579713 0.466765 0.130738
H140  H     H_    0.855831 0.079890 0.533393 0.130822
H141  H     H_    0.144298 0.079711 0.466761 0.130733
H142  H     H_    0.305113 0.433788 0.462328 0.126985
H143  H     H_    0.694994 0.434256 0.538768 0.127709
H144  H     H_    0.805115 0.933793 0.462324 0.127003
H145  H     H_    0.194996 0.934251 0.538763 0.127686
H146  H     H_    0.285172 0.424413 0.582490 0.105809
H147  H     H_    0.714813 0.424207 0.418575 0.106329
H148  H     H_    0.785175 0.924412 0.582488 0.105831
O1    O     O_R   0.214130 0.708570 0.829890 -0.528501
O2    O     O_R   0.542830 0.717300 0.331620 -0.528250
O3    O     O_R   0.957170 0.217300 0.668380 -0.528885
O4    O     O_R   0.042830 0.217300 0.331620 -0.528250
O5    O     O_R   0.320870 0.624890 0.673130 -0.507289
O6    O     O_R   0.679130 0.624890 0.326870 -0.503638
O7    O     O_R   0.820870 0.124890 0.673130 -0.507295
O8    O     O_R   0.179130 0.124890 0.326870 -0.503634
O9    O     O_3   0.334430 0.834430 0.749680 -0.284031
O10   O     O_3   0.665570 0.834430 0.250320 -0.293057
O11   O     O_3   0.834430 0.334430 0.749680 -0.284039
O12   O     O_R   0.785870 0.708570 0.170110 -0.529231
O13   O     O_3   0.165570 0.334430 0.250320 -0.293058
O14   O     O_R   0.236050 0.959150 0.825270 -0.515248
O15   O     O_R   0.763950 0.959150 0.174730 -0.523008
O16   O     O_R   0.736050 0.459150 0.825270 -0.515253
O17   O     O_R   0.263950 0.459150 0.174730 -0.523011
O18   O     O_R   0.332100 0.076650 0.832310 -0.534768
O19   O     O_R   0.667900 0.076650 0.167690 -0.525994
O20   O     O_R   0.832100 0.576650 0.832310 -0.534757
O21   O     O_R   0.167900 0.576650 0.167690 -0.526003
O22   O     O_R   0.446500 0.918620 0.826240 -0.484530
O23   O     O_R   0.714130 0.208570 0.829890 -0.528499
O24   O     O_R   0.553500 0.918620 0.173760 -0.490172
O25   O     O_R   0.946500 0.418620 0.826240 -0.484528
O26   O     O_R   0.053500 0.418620 0.173760 -0.490144
O27   O     O_R   0.457310 0.715830 0.831280 -0.529432
O28   O     O_R   0.542690 0.715830 0.168720 -0.531585
O29   O     O_R   0.957310 0.215830 0.831280 -0.529438
O30   O     O_R   0.042690 0.215830 0.168720 -0.531589
O31   O     O_R   0.321000 0.623520 0.824130 -0.521466
O32   O     O_R   0.679000 0.623520 0.175870 -0.516059
O33   O     O_R   0.821000 0.123520 0.824130 -0.521468
O34   O     O_R   0.285870 0.208570 0.170110 -0.529243
O35   O     O_R   0.179000 0.123520 0.175870 -0.516059
O36   O     O_R   0.213990 0.710040 0.667000 -0.537032
O37   O     O_R   0.786010 0.710040 0.333000 -0.535108
O38   O     O_R   0.713990 0.210040 0.667000 -0.536954
O39   O     O_R   0.286010 0.210040 0.333000 -0.535160
O40   O     O_R   0.235920 0.960520 0.674260 -0.507073
O41   O     O_R   0.764080 0.960520 0.325740 -0.506510
O42   O     O_R   0.735920 0.460520 0.674260 -0.507069
O43   O     O_R   0.264080 0.460520 0.325740 -0.506511
O44   O     O_R   0.331960 0.078120 0.669410 -0.538470
O45   O     O_R   0.446360 0.919990 0.675230 -0.505475
O46   O     O_R   0.668040 0.078120 0.330590 -0.536118
O47   O     O_R   0.831960 0.578120 0.669410 -0.538467
O48   O     O_R   0.168040 0.578120 0.330590 -0.536126
O49   O     O_3   0.122594 0.631651 0.570686 -0.749865
O50   O     O_3   0.877487 0.630559 0.429421 -0.748683
O51   O     O_3   0.622598 0.131695 0.570705 -0.749739
O52   O     O_3   0.377490 0.130532 0.429431 -0.748751
O53   O     O_R   0.553640 0.919990 0.324770 -0.507765
O54   O     O_R   0.946360 0.419990 0.675230 -0.505483
O55   O     O_R   0.053640 0.419990 0.324770 -0.507760
O56   O     O_R   0.457170 0.717300 0.668380 -0.528884

loop_
_geom_bond_atom_site_label_1
_geom_bond_atom_site_label_2
_ccdc_geom_bond_type
C130  H147  S    
C110  H110  S    
C77   H46   S    
C71   C137  S    
C23   C112  S    
C89   H80   S    
C118  H126  S    
C74   H69   S    
C95   H90   S    
C119  H123  S    
C95   C99   S    
C54   C63   S    
Cr2   O6    S    
C93   H84   S    
C4    O56   A    
C52   H15   S    
Cr2   O32   S    
C41   C42   A    
C30   H33   S    
C116  H120  S    
C96   H88   S    
C88   O26   A    
C8    O36   A    
Cr12  O27   S    
C109  C127  S    
C70   C74   S    
C46   H18   S    
H52   O49   S    
Cr9   O19   S    
Cr4   O8    S    
C92   H97   S    
C69   C135  S    
C70   C136  S    
C129  H118  S    
C117  C139  S    
C118  C140  S    
C35   C134  S    
C21   C90   S    
C45   C47   A    
C129  H146  S    
C4    O45   A    
C86   O28   A    
C84   H79   S    
C62   H127  S    
C72   H28   S    
H53   O50   S    
C28   H31   S    
C11   O39   A    
Cr4   O13   S    
C118  H122  S    
C68   O16   A    
Cr2   O10   S    
C25   C88   S    
C17   C21   S    
C104  H103  S    
C19   C23   S    
C43   C44   A    
C37   C38   A    
C133  O31   A    
Cr10  O11   S    
Cr11  O21   S    
C16   C20   S    
C91   H81   S    
C59   H94   S    
C104  H99   S    
C52   H19   S    
C15   C39   S    
C95   H85   S    
C82   H73   S    
C83   C100  S    
C119  C141  S    
C61   H13   S    
C136  O33   A    
C53   C71   S    
C78   H56   S    
C115  H112  S    
C14   C21   S    
C28   C29   A    
Cr3   O11   S    
C86   O24   A    
C16   C45   S    
C3    O48   A    
C83   H74   S    
C125  C138  S    
C59   C63   S    
C29   H32   S    
C60   C64   S    
C68   O20   A    
C140  H135  S    
C13   H10   S    
C137  O35   A    
C108  H108  S    
H55   O52   S    
C6    C102  S    
C94   H89   S    
C36   H38   S    
C123  H132  S    
C125  C129  S    
C81   C98   S    
C82   H77   S    
C106  C124  S    
C103  H98   S    
C94   C98   S    
C136  O23   A    
C103  C107  S    
C108  C126  S    
C110  C128  S    
C91   C94   S    
C134  H4    S    
C84   C102  S    
C69   C77   S    
C79   O17   A    
Cr10  O20   S    
C1    O18   A    
C142  O40   A    
Cr5   O10   S    
Cr10  O54   S    
C31   H34   S    
C19   C123  S    
C37   H39   S    
C62   C80   S    
C36   C37   A    
C138  H133  S    
C51   H51   S    
C5    O2    A    
C15   C25   S    
C12   C22   S    
C106  H106  S    
C67   C72   S    
C118  C122  S    
C53   H16   S    
Cr3   O33   S    
C58   H64   S    
Cr7   O34   S    
C17   H1    S    
C96   H91   S    
C143  O46   A    
C141  H141  S    
Cr8   O22   S    
Cr5   O41   S    
C40   H41   S    
C121  C144  S    
C122  C143  S    
C111  C129  S    
C92   C97   S    
C33   C34   A    
C127  C131  S    
C115  C132  S    
C126  C139  S    
C132  H3    S    
C113  C130  S    
C62   C66   S    
C35   H17   S    
C116  H124  S    
C24   H11   S    
C107  C125  S    
C109  H109  S    
C39   C40   A    
Cr12  O31   S    
C54   H65   S    
C46   H14   S    
C12   C26   S    
Cr8   O9    S    
C114  C131  S    
C29   C30   A    
C61   C65   S    
C8    C125  S    
C83   C84   S    
C35   C67   S    
C111  H142  S    
C57   C65   S    
C35   H12   S    
C58   H22   S    
C144  O42   A    
C25   C123  S    
Cr11  O48   S    
C108  O50   S    
C55   H66   S    
C50   H50   S    
C16   C23   S    
C103  H102  S    
Cr5   O37   S    
C127  C140  S    
Cr8   O44   S    
C85   O22   A    
Cr5   O12   S    
C128  C141  S    
Cr1   O1    S    
C105  C109  S    
C18   C22   S    
C73   H29   S    
C39   C44   A    
C74   H26   S    
C6    O3    A    
C143  O41   A    
C48   H48   S    
C89   C98   S    
C59   H138  S    
C57   O19   A    
C132  H117  S    
C96   C100  S    
C38   H40   S    
C105  C122  S    
C34   C36   A    
C139  H134  S    
C13   C65   S    
C55   C73   S    
C76   H58   S    
C113  C121  S    
C49   C50   A    
C105  H104  S    
C4    C99   S    
Cr3   O7    S    
C91   C99   S    
C59   C76   S    
Cr12  O5    S    
C82   C99   S    
C103  C120  S    
Cr1   O36   S    
Cr7   O17   S    
C13   H6    S    
Cr8   O45   S    
C15   C19   S    
C26   C27   A    
C22   C101  S    
Cr11  O55   S    
C42   H43   S    
C30   C31   A    
C116  C120  S    
Cr5   O15   S    
C20   C25   S    
C126  C130  S    
C54   H23   S    
C20   C112  S    
C87   O25   A    
C12   C17   S    
C106  H101  S    
C69   C73   S    
C43   H44   S    
C79   O21   A    
C112  H131  S    
C81   H71   S    
H54   O51   S    
C97   C102  S    
C93   H96   S    
C24   C66   S    
C109  O51   S    
C113  H143  S    
Cr12  O9    S    
C114  H144  S    
C138  H137  S    
C21   C85   S    
C56   C74   S    
C7    C100  S    
C18   C90   S    
C63   C134  S    
Cr10  O25   S    
C112  C123  S    
Cr3   O29   S    
C63   C79   S    
C9    O6    A    
Cr11  O13   S    
C24   C53   S    
C72   H67   S    
C11   O8    A    
C89   C95   S    
C13   C52   S    
Cr8   O18   S    
C137  O34   A    
C92   H82   S    
C1    O14   A    
C50   C51   A    
C47   H47   S    
Cr9   O46   S    
C80   H57   S    
C34   H37   S    
C48   C49   A    
C49   H49   S    
C24   H7    S    
C42   C43   A    
C111  H113  S    
C64   C68   S    
C104  C108  S    
C77   H59   S    
C141  H136  S    
C91   H93   S    
Cr6   O11   S    
C115  C124  S    
C89   H95   S    
C9    O37   A    
C14   C32   S    
C93   C102  S    
C119  H128  S    
Cr1   O14   S    
C32   C33   A    
Cr6   O42   S    
C114  H111  S    
C139  H139  S    
C134  H8    S    
C101  H130  S    
C22   C86   S    
C117  H125  S    
C5    O53   A    
C135  O12   A    
C131  H115  S    
Cr2   O2    S    
C76   H35   S    
Cr2   O28   S    
C105  H100  S    
C56   H63   S    
C56   C65   S    
C88   O30   A    
C70   C78   S    
C14   C18   S    
Cr4   O30   S    
C75   H27   S    
C97   H92   S    
C81   C82   S    
Cr4   O4    S    
C110  O52   S    
C119  C124  S    
C2    C46   S    
C10   O7    A    
Cr9   O53   S    
C33   H36   S    
C67   C133  S    
C60   H2    S    
Cr6   O38   S    
C62   H24   S    
C45   C51   A    
Cr6   O16   S    
C15   C16   S    
Cr11  O26   S    
Cr3   O3    S    
Cr7   O13   S    
Cr4   O35   S    
C84   H75   S    
C117  C121  S    
C10   O38   A    
C46   C69   S    
C17   C101  S    
C58   C66   S    
Cr1   O9    S    
C135  O32   A    
C81   H76   S    
C8    O5    A    
C117  H121  S    
C32   C38   A    
Cr1   O40   S    
C26   C31   A    
C23   C87   S    
C124  C142  S    
C128  C132  S    
C2    H5    S    
C71   C80   S    
C2    C64   S    
C58   C75   S    
C116  C138  S    
C56   H21   S    
C6    O54   A    
C60   C77   S    
C131  H148  S    
C113  H114  S    
C3    C120  S    
C78   H60   S    
C87   O29   A    
C104  C121  S    
C111  C120  S    
C27   H30   S    
C19   H72   S    
C90   C101  S    
C97   H87   S    
C47   C48   A    
C2    H9    S    
C83   H78   S    
C61   C78   S    
C55   C64   S    
C90   H129  S    
C1    C66   S    
C55   H25   S    
C115  H145  S    
Cr7   O39   S    
C133  O1    A    
C107  O49   S    
C40   C41   A    
C12   C14   S    
C7    O4    A    
C93   C96   S    
C44   H45   S    
C85   O27   A    
C10   C127  S    
Cr10  O47   S    
C92   C100  S    
C3    O43   A    
C106  C110  S    
C61   H116  S    
C73   H68   S    
C60   H105  S    
C75   H70   S    
C41   H42   S    
C140  H140  S    
C80   H62   S    
C20   H83   S    
Cr12  O56   S    
C9    C126  S    
C11   C128  S    
C94   H86   S    
Cr9   O24   S    
C7    O55   A    
C71   C75   S    
C142  O44   A    
C57   O15   A    
Cr7   O43   S    
C52   C70   S    
Cr9   O10   S    
C114  C122  S    
Cr6   O23   S    
C54   C72   S    
C5    C98   S    
C27   C28   A    
C144  O47   A    
C107  H107  S    
C67   C76   S    
C130  H119  S    
C18   H61   S    
C53   H20   S    
