data_mof_unit_44610.cif
_audit_creation_date              2012-10-26T21:25:50-0400
_audit_creation_method            fapswitch 2.2
_symmetry_space_group_name_H-M    P1
_symmetry_Int_Tables_number       1
_space_group_crystal_system       triclinic
_cell_length_a                    10.831787
_cell_length_b                    10.915904
_cell_length_c                    12.712783
_cell_angle_alpha                 91.797757
_cell_angle_beta                  92.889039
_cell_angle_gamma                 89.636963
_cell_volume                      1500.47711846

loop_
_atom_site_label
_atom_site_type_symbol
_atom_type_description
_atom_site_fract_x
_atom_site_fract_y
_atom_site_fract_z
_atom_type_partial_charge
C1    C     C_R   0.261923 0.502727 0.500589 0.542923
C2    C     C_R   0.888780 0.372514 0.228802 -0.099474
C3    C     C_R   0.129366 0.640956 0.666407 0.051524
C4    C     C_R   0.872253 0.352332 0.335823 0.054532
C5    C     C_R   0.194907 0.745254 0.640208 -0.059179
C6    C     C_R   0.804364 0.250096 0.363774 -0.054756
C7    C     C_R   0.255768 0.817117 0.719134 -0.097694
C8    C     C_R   0.754521 0.169196 0.285722 -0.105660
C9    C     C_R   0.251931 0.785753 0.824619 -0.108069
C10   C     C_R   0.771619 0.189662 0.179550 -0.117193
C11   C     C_R   0.937381 0.558075 0.580691 -0.155128
C12   C     C_R   0.738041 0.496340 0.499473 0.537389
C13   C     C_R   0.062708 0.439370 0.420146 -0.152941
C14   C     C_R   0.871710 0.493816 0.499068 -0.005528
C15   C     C_R   0.128210 0.504047 0.501379 -0.002892
C16   C     C_R   0.501419 0.261840 0.501725 0.538524
C17   C     C_R   0.501465 0.738204 0.498365 0.540365
C18   C     C_R   0.934691 0.432120 0.418415 -0.034732
C19   C     C_R   0.065334 0.564586 0.582551 -0.034979
C20   C     C_2   0.452431 0.491993 0.032098 -0.173686
C21   C     C_2   0.546260 0.508862 0.967819 -0.180764
C22   C     C_1   0.528999 0.516314 0.852539 0.137507
C23   C     C_R   0.503683 0.871862 0.496469 -0.007687
C24   C     C_1   0.470219 0.484061 0.147453 0.137526
C25   C     C_R   0.698035 0.228060 0.826183 -0.127324
C26   C     C_R   0.366396 0.812959 0.136374 -0.134846
C27   C     C_R   0.670200 0.176649 0.725853 -0.065108
C28   C     C_R   0.368259 0.858890 0.240248 -0.091576
C29   C     C_R   0.554243 0.123373 0.702217 0.042968
C30   C     C_R   0.481362 0.877766 0.296595 0.042151
C31   C     C_R   0.467288 0.120726 0.780257 -0.081429
C32   C     C_R   0.592271 0.849832 0.248788 -0.058637
C33   C     C_R   0.495084 0.170707 0.881690 0.039882
C34   C     C_R   0.503213 0.128300 0.504070 -0.007218
C35   C     C_R   0.591126 0.803492 0.144620 0.034348
C36   C     C_R   0.611106 0.225230 0.903684 -0.088495
C37   C     C_R   0.477210 0.786792 0.088250 -0.100307
C38   C     C_R   0.524079 0.936580 0.592756 -0.163280
C39   C     C_R   0.482476 0.063493 0.407976 -0.164691
C40   C     C_3   0.399023 0.168757 0.963915 -0.281269
C41   C     C_3   0.450308 0.120096 0.068789 -0.442366
C42   C     C_3   0.711144 0.776854 0.093038 -0.288134
C43   C     C_3   0.786655 0.678386 0.150639 -0.430151
C44   C     C_R   0.485839 0.936602 0.402604 -0.041149
C45   C     C_R   0.525953 0.063749 0.597779 -0.038380
C46   C     C_R   0.186411 0.682267 0.851393 -0.116341
C47   C     C_R   0.837902 0.291815 0.151031 -0.123497
C48   C     C_R   0.124642 0.610256 0.772630 -0.087247
Cu1   Cu    Cu3+1 0.492140 0.492110 0.395880 0.982378
Cu2   Cu    Cu3+1 0.507860 0.507890 0.604120 0.986301
H1    H     H_    0.634287 0.266043 0.980595 0.115374
H2    H     H_    0.358514 0.486811 0.998236 0.113074
H3    H     H_    0.787191 0.270074 0.844041 0.095809
H4    H     H_    0.279063 0.799674 0.092477 0.099296
H5    H     H_    0.738606 0.178347 0.666625 0.097649
H6    H     H_    0.282127 0.881566 0.276142 0.103101
H7    H     H_    0.377325 0.081225 0.761503 0.086355
H8    H     H_    0.679478 0.866159 0.292315 0.095799
H9    H     H_    0.540994 0.888071 0.665289 0.140005
H10   H     H_    0.467083 0.111673 0.335079 0.139145
H11   H     H_    0.299269 0.841932 0.885434 0.097838
H12   H     H_    0.473986 0.754811 0.006766 0.115052
H13   H     H_    0.734387 0.125765 0.119505 0.101115
H14   H     H_    0.183363 0.657931 0.933094 0.092683
H15   H     H_    0.851391 0.307584 0.068775 0.093285
H16   H     H_    0.074308 0.530134 0.794145 0.096983
H17   H     H_    0.942088 0.449987 0.205813 0.097425
H18   H     H_    0.506179 0.036062 0.055488 0.164099
H19   H     H_    0.508517 0.190465 0.111806 0.154292
H20   H     H_    0.372849 0.098187 0.118891 0.144842
H21   H     H_    0.362354 0.262653 0.977017 0.148690
H22   H     H_    0.319616 0.110353 0.935598 0.130632
H23   H     H_    0.198924 0.770682 0.558759 0.092231
H24   H     H_    0.822759 0.713999 0.228909 0.150099
H25   H     H_    0.729287 0.596429 0.162054 0.174404
H26   H     H_    0.866496 0.650652 0.103721 0.122715
H27   H     H_    0.693472 0.745630 0.009601 0.139246
H28   H     H_    0.766190 0.862422 0.092861 0.134731
H29   H     H_    0.792406 0.231658 0.445873 0.087439
H30   H     H_    0.305610 0.897101 0.698092 0.099321
H31   H     H_    0.704335 0.089607 0.307636 0.102878
H32   H     H_    0.888540 0.607024 0.641630 0.131946
H33   H     H_    0.111998 0.390084 0.359667 0.132173
H34   H     H_    0.640181 0.513494 0.001287 0.116647
N1    N     N_1   0.480320 0.480250 0.239400 -0.188040
N2    N     N_1   0.519680 0.519750 0.760600 -0.183981
O1    O     O_R   0.313000 0.493330 0.412070 -0.508009
O2    O     O_R   0.687000 0.506670 0.587930 -0.510753
O3    O     O_R   0.326280 0.506660 0.587930 -0.483311
O4    O     O_R   0.673720 0.493340 0.412070 -0.489421
O5    O     O_R   0.493370 0.312980 0.412070 -0.508658
O6    O     O_R   0.506630 0.687020 0.587930 -0.507685
O7    O     O_R   0.506650 0.326310 0.587930 -0.487740
O8    O     O_R   0.493350 0.673690 0.412070 -0.485288

loop_
_geom_bond_atom_site_label_1
_geom_bond_atom_site_label_2
_ccdc_geom_bond_type
C1    O1    A    
C40   H21   S    
C27   C29   A    
Cu1   O1    S    
C10   H13   S    
C32   H8    S    
Cu1   O4    S    
C37   H12   S    
C28   H6    S    
C15   C19   A    
C11   C19   A    
C16   O7    A    
C17   C23   S    
C13   C18   A    
C9    H11   S    
C12   O4    A    
C35   C37   A    
C25   H3    S    
C11   C14   A    
C27   H5    S    
C3    C48   A    
C33   C36   A    
C35   C42   S    
C14   C18   A    
C38   C45   A    
C16   C34   S    
C20   C24   S    
C31   C33   A    
C3    C19   S    
C1    C15   S    
Cu1   O8    S    
C24   N1    T    
Cu2   O2    S    
C4    C18   S    
C43   H24   S    
C9    C46   A    
C21   C22   S    
C30   C44   S    
C17   O6    A    
Cu1   O5    S    
C26   H4    S    
C41   H18   S    
C11   H32   S    
C43   H25   S    
C46   C48   A    
C33   C40   S    
C12   O2    A    
C8    H31   S    
C32   C35   A    
Cu1   N1    S    
C4    C6    A    
C2    H17   S    
C5    C7    A    
C6    C8    A    
C23   C44   A    
C34   C39   A    
C29   C45   S    
C2    C4    A    
Cu2   O3    S    
C21   H34   S    
C26   C37   A    
C34   C45   A    
C36   H1    S    
C42   H27   S    
Cu2   O6    S    
C40   C41   S    
C12   C14   S    
C42   H28   S    
C13   C15   A    
C42   C43   S    
C41   H19   S    
C43   H26   S    
C7    C9    A    
C1    O3    A    
C40   H22   S    
C3    C5    A    
Cu2   O7    S    
C39   C44   A    
C2    C47   A    
C25   C27   A    
C23   C38   A    
C13   H33   S    
C26   C28   A    
C20   H2    S    
C31   H7    S    
C28   C30   A    
C29   C31   A    
C30   C32   A    
C6    H29   S    
C39   H10   S    
C22   N2    T    
C5    H23   S    
Cu2   N2    S    
C25   C36   A    
C38   H9    S    
C20   C21   D    
C16   O5    A    
C8    C10   A    
Cu1   Cu2   S    
C46   H14   S    
C10   C47   A    
C7    H30   S    
C17   O8    A    
C48   H16   S    
C47   H15   S    
C41   H20   S    
