data_mof_unit_52949.cif
_audit_creation_date              2012-12-11T14:49:41-0500
_audit_creation_method            fapswitch 2.2
_symmetry_space_group_name_H-M    P1
_symmetry_Int_Tables_number       1
_space_group_crystal_system       triclinic
_cell_length_a                    17.328783
_cell_length_b                    16.765951
_cell_length_c                    19.497533
_cell_angle_alpha                 117.991307
_cell_angle_beta                  63.335526
_cell_angle_gamma                 100.68794
_cell_volume                      4467.78575656

loop_
_atom_site_label
_atom_site_type_symbol
_atom_type_description
_atom_site_fract_x
_atom_site_fract_y
_atom_site_fract_z
_atom_type_partial_charge
C1    C     C_R   0.032609 0.760586 0.018291 -0.061991
C2    C     C_R   0.248202 0.535332 0.826020 -0.005213
C3    C     C_R   0.190386 0.472341 0.071073 0.547164
C4    C     C_R   0.756123 0.441979 0.169825 -0.172324
C5    C     C_R   0.988295 0.340100 0.759161 -0.133637
C6    C     C_R   0.268696 0.500784 0.028437 0.004614
C7    C     C_R   0.939747 0.264523 0.758989 0.086089
C8    C     C_R   0.250260 0.482843 0.745340 0.108390
C9    C     C_R   0.027973 0.221135 0.999455 0.077274
C10   C     C_R   0.859664 0.128799 0.703680 -0.245169
C11   C     C_R   0.902944 0.206220 0.697522 0.127271
C12   C     C_R   0.756606 0.472635 0.248383 0.170989
C13   C     C_R   0.917516 0.222472 0.628232 -0.221414
C14   C     C_R   0.901354 0.155613 0.559422 0.142076
C15   C     C_R   0.869904 0.072498 0.560800 0.063652
C16   C     C_R   0.815893 0.517937 0.917945 -0.119483
C17   C     C_R   0.844403 0.061105 0.635197 0.133721
C18   C     C_R   0.923948 0.167049 0.486090 -0.243545
C19   C     C_R   0.924510 0.093462 0.411408 -0.107726
C20   C     C_R   0.904440 0.006914 0.408706 0.007502
C21   C     C_R   0.872710 0.997991 0.485336 -0.019987
C22   C     C_R   0.850923 0.912913 0.485256 0.144155
C23   C     C_R   0.741077 0.476579 0.947832 0.145492
C24   C     C_R   0.816265 0.904449 0.561666 -0.171465
C25   C     C_R   0.812731 0.978587 0.636655 -0.193180
C26   C     C_R   0.921883 0.928364 0.330949 0.391149
C27   C     C_R   0.917683 0.842850 0.330437 -0.007891
C28   C     C_R   0.953320 0.673928 0.246492 -0.141360
C29   C     C_R   0.873478 0.836334 0.408104 -0.298397
C30   C     C_R   0.381938 0.409638 0.626724 -0.274892
C31   C     C_R   0.320237 0.477829 0.669005 -0.081052
C32   C     C_R   0.322590 0.539234 0.638159 0.475092
C33   C     C_R   0.389822 0.530193 0.559795 -0.190253
C34   C     C_R   0.963641 0.760652 0.252749 0.140485
C35   C     C_R   0.458146 0.466313 0.521512 -0.023803
C36   C     C_R   0.452561 0.404718 0.553948 0.173511
C37   C     C_R   0.393895 0.582909 0.518703 0.551758
C38   C     C_R   0.468996 0.580525 0.449195 -0.298414
C39   C     C_R   0.539014 0.525163 0.418262 0.081111
C40   C     C_R   0.748122 0.440674 0.995337 -0.149421
C41   C     C_R   0.533575 0.465772 0.452412 0.023453
C42   C     C_R   0.604163 0.406816 0.418148 -0.043559
C43   C     C_R   0.593386 0.340382 0.445910 -0.166389
C44   C     C_R   0.518188 0.339926 0.514050 -0.181969
C45   C     C_R   0.256765 0.546942 0.991489 -0.180684
C46   C     C_R   0.613839 0.526351 0.351287 -0.288796
C47   C     C_R   0.684240 0.472519 0.321268 -0.075362
C48   C     C_R   0.683108 0.415703 0.355988 0.490362
C49   C     C_R   0.663265 0.479799 0.942252 -0.050696
C50   C     C_R   0.349605 0.490898 0.025520 0.021890
C51   C     C_R   0.440382 0.537595 0.099582 -0.200544
C52   C     C_R   0.026999 0.753345 0.173932 -0.094735
C53   C     C_R   0.359218 0.530961 0.101848 -0.182463
C54   C     C_R   0.419677 0.453895 0.945514 0.416253
C55   C     C_R   0.502223 0.463701 0.942647 -0.024026
C56   C     C_R   0.921494 0.262274 0.834871 -0.128158
C57   C     C_R   0.511504 0.505792 0.020761 0.147234
C58   C     C_R   0.591918 0.514194 0.019577 -0.312810
C59   C     C_R   0.657486 0.443503 0.863988 0.537398
C60   C     C_R   0.575821 0.433910 0.864378 -0.296500
C61   C     C_R   0.877721 0.204094 0.188953 0.119163
C62   C     C_R   0.936821 0.865948 0.026752 -0.015596
C63   C     C_R   0.812012 0.966599 0.097778 -0.320734
C64   C     C_R   0.836316 0.504248 0.245389 -0.127835
C65   C     C_R   0.848313 0.878502 0.050498 0.563181
C66   C     C_R   0.988053 0.941806 0.045475 -0.206433
C67   C     C_R   0.167811 0.463317 0.750717 -0.062545
C68   C     C_R   0.951697 0.029314 0.091714 0.158130
C69   C     C_R   0.862999 0.042279 0.116945 -0.078901
C70   C     C_R   0.826874 0.131064 0.162833 0.504546
C71   C     C_R   0.964288 0.190732 0.167074 -0.325431
C72   C     C_R   0.001883 0.103950 0.116938 -0.147190
C73   C     C_R   0.948599 0.691685 0.948442 -0.049187
C74   C     C_R   0.973713 0.776061 0.995038 0.108148
C75   C     C_3   0.099792 0.480114 0.205814 0.124728
C76   C     C_3   0.117283 0.573843 0.266067 -0.305424
C77   C     C_3   0.041677 0.609919 0.354104 -0.963577
C78   C     C_R   0.050852 0.305648 0.048868 -0.142090
C79   C     C_3   0.786315 0.380766 0.384319 0.199409
C80   C     C_3   0.879024 0.414158 0.359169 -0.312170
C81   C     C_3   0.929466 0.385174 0.391403 -1.008117
C82   C     C_3   0.750967 0.470228 0.750713 0.164875
C83   C     C_3   0.841624 0.446458 0.678404 -0.260764
C84   C     C_3   0.870604 0.515311 0.641864 -1.019372
C85   C     C_3   0.727323 0.132424 0.115881 0.161415
C86   C     C_3   0.736420 0.219908 0.107150 -0.254529
C87   C     C_3   0.727845 0.203215 0.026899 -1.058369
C88   C     C_3   0.758649 0.797902 0.984998 0.133732
C89   C     C_R   0.972859 0.238516 0.973490 -0.126404
C90   C     C_3   0.689665 0.726410 0.985021 -0.218423
C91   C     C_3   0.647238 0.715637 0.927563 -1.052438
Cl1   Cl    Cl    0.944250 0.937990 0.237303 -0.733933
Cl2   Cl    Cl    0.247831 0.632914 0.706251 -0.593477
Cl3   Cl    Cl    0.306555 0.645436 0.542206 -0.563447
Cl4   Cl    Cl    0.402813 0.396357 0.850324 -0.694473
H1    H     H_    0.070678 0.810790 0.047985 0.116355
H2    H     H_    0.946106 0.231442 0.484924 0.138176
H3    H     H_    0.705162 0.408133 0.149985 0.116406
H4    H     H_    0.947225 0.103888 0.354779 0.185675
H5    H     H_    0.862898 0.771981 0.410343 0.137811
H6    H     H_    0.797708 0.839288 0.562239 0.130205
H7    H     H_    0.791419 0.969628 0.693982 0.132601
H8    H     H_    0.376287 0.362902 0.652709 0.180952
H9    H     H_    0.472557 0.622006 0.418789 0.174771
H10   H     H_    0.617988 0.569617 0.322265 0.160116
H11   H     H_    0.833948 0.545323 0.872709 0.090636
H12   H     H_    0.874526 0.221388 0.862292 0.095675
H13   H     H_    0.642723 0.288993 0.415904 0.160702
H14   H     H_    0.512267 0.290420 0.536994 0.146021
H15   H     H_    0.599178 0.544547 0.079304 0.154373
H16   H     H_    0.447793 0.569764 0.159138 0.143982
H17   H     H_    0.571062 0.402333 0.803716 0.203682
H18   H     H_    0.304650 0.561109 0.162733 0.148313
H19   H     H_    0.910406 0.653662 0.295000 0.096666
H20   H     H_    0.002678 0.247969 0.187968 0.160172
H21   H     H_    0.742857 0.975403 0.122307 0.170186
H22   H     H_    0.069582 0.095015 0.099543 0.147804
H23   H     H_    0.147332 0.430446 0.699119 0.109397
H24   H     H_    0.055940 0.932747 0.027349 0.140554
H25   H     H_    0.703053 0.398144 0.022091 0.107559
H26   H     H_    0.059437 0.807860 0.158986 0.146671
H27   H     H_    0.858876 0.524577 0.294329 0.079722
H28   H     H_    0.906781 0.677602 0.916786 0.107332
H29   H     H_    0.302659 0.588002 0.963368 0.137371
H30   H     H_    0.080797 0.435611 0.238352 0.147654
H31   H     H_    0.043731 0.483149 0.194189 0.094862
H32   H     H_    0.175433 0.569599 0.274415 0.217142
H33   H     H_    0.129145 0.621698 0.238008 0.187385
H34   H     H_    0.090581 0.315718 0.081337 0.156104
H35   H     H_    0.980393 0.608154 0.348681 0.244507
H36   H     H_    0.053054 0.680823 0.393398 0.276939
H37   H     H_    0.035473 0.568650 0.387095 0.273456
H38   H     H_    0.785641 0.315739 0.386783 0.142017
H39   H     H_    0.745594 0.430702 0.450307 0.061995
H40   H     H_    0.913710 0.387549 0.288645 0.210980
H41   H     H_    0.877102 0.489087 0.387306 0.179535
H42   H     H_    0.895237 0.409571 0.461642 0.276090
H43   H     H_    0.994746 0.413910 0.375813 0.269404
H44   H     H_    0.936901 0.310345 0.360413 0.273897
H45   H     H_    0.940648 0.188643 0.935888 0.106645
H46   H     H_    0.750097 0.541554 0.798319 0.096525
H47   H     H_    0.704116 0.464365 0.724064 0.112870
H48   H     H_    0.887916 0.445273 0.703053 0.198234
H49   H     H_    0.842230 0.378263 0.626767 0.203208
H50   H     H_    0.825148 0.518186 0.617076 0.265072
H51   H     H_    0.936087 0.495513 0.588732 0.281977
H52   H     H_    0.873308 0.583433 0.691942 0.272816
H53   H     H_    0.660395 0.108967 0.126519 0.135644
H54   H     H_    0.770865 0.078525 0.054509 0.073371
H55   H     H_    0.685457 0.269500 0.164433 0.211395
H56   H     H_    0.301430 0.568942 0.841949 0.110259
H57   H     H_    0.800529 0.248483 0.103537 0.203692
H58   H     H_    0.776126 0.150964 0.969299 0.260882
H59   H     H_    0.739724 0.266358 0.019187 0.266871
H60   H     H_    0.661905 0.180683 0.031786 0.280155
H61   H     H_    0.810066 0.776981 0.918838 0.093822
H62   H     H_    0.727245 0.862363 0.005654 0.095806
H63   H     H_    0.719658 0.660818 0.962241 0.190777
H64   H     H_    0.639220 0.745706 0.051244 0.213582
H65   H     H_    0.612328 0.779313 0.952216 0.278241
H66   H     H_    0.600235 0.660584 0.926475 0.275137
H67   H     H_    0.003471 0.370316 0.716545 0.089114
H68   H     H_    0.696640 0.698166 0.861280 0.264148
H69   H     H_    0.845218 0.116229 0.757697 0.119119
H70   H     H_    0.947649 0.283467 0.624020 0.111435
N1    N     N_R   0.036080 0.671900 0.995420 -0.051025
N2    N     N_R   0.867430 0.509300 0.948100 -0.043542
N3    N     N_R   0.003360 0.617250 0.167070 -0.059268
N4    N     N_R   0.825450 0.461270 0.995400 -0.040952
N5    N     N_R   0.045340 0.665280 0.119770 -0.058235
N6    N     N_R   0.883740 0.497640 0.167070 -0.048003
N7    N     N_R   0.987050 0.628910 0.948110 -0.052619
N8    N     N_R   0.174550 0.538730 0.004600 -0.072200
N9    N     N_R   0.954660 0.334720 0.880230 -0.038176
N10   N     N_R   0.116260 0.502360 0.832930 -0.048453
N11   N     N_R   0.012950 0.371090 0.051890 -0.053821
N12   N     N_R   0.963920 0.328100 0.004580 -0.038873
N13   N     N_R   0.165290 0.545350 0.880240 -0.051161
N14   N     N_R   0.132570 0.490700 0.051900 -0.110735
N15   N     N_R   0.996640 0.382750 0.832930 -0.043719
N16   N     N_R   0.834710 0.454650 0.119760 -0.037756
Ni1   Ni    Ni4+2 0.104370 0.604370 0.000010 0.224051
Ni2   Ni    Ni4+2 0.895630 0.395630 0.999990 0.214297
Ni3   Ni    Ni4+2 0.991920 0.505780 0.891500 0.239305
Ni4   Ni    Ni4+2 0.008080 0.494220 0.108500 0.201441
O1    O     O_3   0.175223 0.440282 0.129886 -0.677239
O2    O     O_3   0.756734 0.363748 0.321609 -0.659957
O3    O     O_3   0.730534 0.410080 0.787995 -0.654297
O4    O     O_3   0.740807 0.147764 0.187609 -0.642373
O5    O     O_3   0.794656 0.805438 0.040089 -0.656588

loop_
_geom_bond_atom_site_label_1
_geom_bond_atom_site_label_2
_ccdc_geom_bond_type
C61   C70   A    
C66   C68   A    
C63   C65   A    
N1    N7    A    
C6    C45   A    
C4    H3    S    
C27   C29   A    
C41   C42   A    
C14   C18   A    
C35   C36   A    
N1    Ni1   S    
C85   H53   S    
C82   H47   S    
C3    C6    A    
C90   C91   S    
N11   Ni4   S    
N2    N4    A    
C84   H50   S    
C62   C74   S    
C7    C11   S    
C26   C27   A    
C50   C54   A    
C80   H40   S    
C79   O2    S    
C1    C74   A    
C88   H61   S    
C22   C29   A    
C78   H34   S    
C18   C19   A    
C86   H57   S    
C86   H55   S    
C83   H49   S    
C12   C64   A    
C25   H7    S    
C23   C49   S    
N8    N14   A    
C16   N2    A    
C85   O4    S    
C23   C40   A    
C46   H10   S    
C82   H46   S    
C24   H6    S    
C77   H36   S    
C90   H64   S    
C3    N14   A    
N4    Ni2   S    
C38   H9    S    
C13   C14   A    
C46   C47   A    
C63   C69   A    
C67   N10   A    
C68   C69   A    
C73   H28   S    
C72   H22   S    
C10   H69   S    
C87   H58   S    
C51   C57   A    
C18   H2    S    
C89   N12   A    
C4    N16   A    
C4    C12   A    
C29   H5    S    
C16   H11   S    
C9    C78   A    
C44   H14   S    
C61   C71   A    
N3    N5    A    
C32   Cl2   S    
C28   C34   A    
C59   C60   A    
C45   H29   S    
C55   C60   A    
N5    Ni1   S    
C78   N11   A    
C91   H68   S    
C7    C56   A    
C12   C47   S    
C40   N4    A    
C53   H18   S    
N10   N13   A    
N16   Ni2   S    
C27   C34   S    
C81   H43   S    
C79   H38   S    
C50   C53   A    
C62   C66   A    
C47   C48   A    
C88   O5    S    
C38   C39   A    
C24   C25   A    
C48   O2    S    
C39   C41   A    
C5    N15   A    
C9    C89   A    
C5    C7    A    
C19   H4    S    
C86   C87   S    
C77   H35   S    
C85   C86   S    
C33   C37   A    
C49   C58   A    
C82   O3    S    
C75   H30   S    
C77   H37   S    
C30   H8    S    
C81   H42   S    
C75   C76   S    
C56   H12   S    
C37   C38   A    
C60   H17   S    
C90   H63   S    
C45   N8    A    
C52   H26   S    
N7    Ni3   S    
C13   H70   S    
C83   C84   S    
C68   C72   A    
C89   H45   S    
C20   C21   A    
C54   Cl4   S    
C87   H59   S    
C71   H20   S    
C59   O3    S    
C42   C48   A    
C88   H62   S    
C76   C77   S    
C73   N7    A    
C91   H65   S    
N13   Ni1   S    
C28   H19   S    
C39   C46   A    
C63   H21   S    
N11   N12   A    
C40   H25   S    
C88   C90   S    
N8    Ni1   S    
C16   C23   A    
C66   H24   S    
C55   C57   A    
C43   C44   A    
C76   H33   S    
C87   H60   S    
C36   C44   A    
C75   O1    S    
C42   C43   A    
C52   N5    A    
C10   C17   A    
C73   C74   A    
N9    N15   A    
C84   H52   S    
C2    H56   S    
C15   C17   A    
C79   H39   S    
C54   C55   A    
C51   H16   S    
N3    Ni4   S    
C6    C50   S    
C62   C65   A    
C58   H15   S    
C8    C31   S    
N6    N16   A    
C31   C32   A    
C2    C8    A    
C80   C81   S    
C49   C59   A    
N9    Ni2   S    
N14   Ni4   S    
C84   H51   S    
C34   C52   A    
C3    O1    S    
C81   H44   S    
C30   C36   A    
C75   H31   S    
C17   C25   A    
C32   C33   A    
C19   C20   A    
C71   C72   A    
N12   Ni2   S    
C5    H67   S    
C83   H48   S    
C11   C13   A    
C57   C58   A    
C30   C31   A    
C20   C26   A    
C1    N1    A    
C64   N6    A    
C1    H1    S    
C64   H27   S    
C33   C35   A    
C37   Cl3   S    
C22   C24   A    
C43   H13   S    
C69   C70   A    
C35   C41   A    
C67   H23   S    
C85   H54   S    
C80   H41   S    
C10   C11   A    
C28   N3    A    
C79   C80   S    
C15   C21   A    
C65   O5    S    
C8    C67   A    
C82   C83   S    
C56   N9    A    
C76   H32   S    
N6    Ni4   S    
C14   C15   A    
C91   H66   S    
C2    N13   A    
C51   C53   A    
C21   C22   A    
C26   Cl1   S    
N2    Ni3   S    
N15   Ni3   S    
C70   O4    S    
N10   Ni3   S    
