data_mof_unit_28072.cif
_audit_creation_date              2012-12-11T15:39:14-0500
_audit_creation_method            fapswitch 2.2
_symmetry_space_group_name_H-M    P1
_symmetry_Int_Tables_number       1
_space_group_crystal_system       triclinic
_cell_length_a                    14.316466
_cell_length_b                    14.829672
_cell_length_c                    33.229905
_cell_angle_alpha                 97.936131
_cell_angle_beta                  90.46149
_cell_angle_gamma                 118.734558
_cell_volume                      6104.42192895

loop_
_atom_site_label
_atom_site_type_symbol
_atom_type_description
_atom_site_fract_x
_atom_site_fract_y
_atom_site_fract_z
_atom_type_partial_charge
C1    C     C_R   0.616672 0.910372 0.436917 0.542383
C2    C     C_R   0.727183 0.399245 0.183549 0.051657
C3    C     C_R   0.696030 0.914468 0.660049 -0.122157
C4    C     C_R   0.623407 0.813066 0.666153 0.029168
C5    C     C_R   0.631394 0.869372 0.588605 0.024647
C6    C     C_R   0.053258 0.781863 0.063700 0.543676
C7    C     C_R   0.743689 0.485951 0.065895 0.547004
C8    C     C_R   0.742884 0.789377 0.066349 0.541928
C9    C     C_R   0.022307 0.732347 0.947672 0.549826
C10   C     C_R   0.712008 0.437177 0.949307 0.539119
C11   C     C_R   0.710332 0.739400 0.950262 0.538505
C12   C     C_R   0.822315 0.432073 0.164325 -0.157211
C13   C     C_R   0.826230 0.453826 0.124743 -0.142143
C14   C     C_R   0.762607 0.329810 0.242448 -0.133260
C15   C     C_R   0.756914 0.319819 0.283562 -0.116147
C16   C     C_R   0.719069 0.375179 0.310067 0.029372
C17   C     C_R   0.691601 0.444121 0.295157 -0.118337
C18   C     C_R   0.696733 0.453556 0.254042 -0.080013
C19   C     C_R   0.729532 0.394375 0.227340 0.045610
C20   C     C_R   0.599491 0.335334 0.366604 -0.118898
C21   C     C_R   0.593799 0.205184 0.456579 0.544580
C22   C     C_R   0.568837 0.294172 0.402469 -0.126815
C23   C     C_R   0.736275 0.292316 0.410729 -0.126860
C24   C     C_R   0.767031 0.333782 0.374898 -0.121536
C25   C     C_R   0.697092 0.351786 0.351738 0.033515
C26   C     C_R   0.635089 0.268309 0.423922 0.021957
C27   C     C_R   0.246601 0.878800 0.392993 0.020187
C28   C     C_R   0.232813 0.959317 0.380835 -0.126971
C29   C     C_R   0.211180 0.958629 0.339688 -0.115260
C30   C     C_R   0.202402 0.877288 0.310276 0.040014
C31   C     C_R   0.209073 0.793580 0.322283 -0.113544
C32   C     C_R   0.295933 0.892869 0.434289 0.541222
C33   C     C_R   0.230806 0.794084 0.363403 -0.128451
C34   C     C_R   0.188546 0.798454 0.163476 -0.129641
C35   C     C_R   0.159717 0.776744 0.121769 -0.161558
C36   C     C_R   0.117768 0.918531 0.127940 0.135120
C37   C     C_R   0.145297 0.938312 0.170250 -0.106546
C38   C     C_R   0.176396 0.875636 0.188031 0.012839
C39   C     C_1   0.186793 0.882763 0.231542 -0.030667
C40   C     C_1   0.193335 0.882153 0.267639 -0.030349
C41   C     C_R   0.117065 0.831298 0.103798 0.038115
C42   C     C_R   0.636329 0.879389 0.395096 0.020213
C43   C     C_R   0.614010 0.905811 0.551730 0.542195
C44   C     C_R   0.550580 0.803302 0.367609 -0.130392
C45   C     C_R   0.562372 0.792578 0.325838 -0.116478
C46   C     C_R   0.659963 0.857067 0.311249 0.038752
C47   C     C_R   0.747742 0.927647 0.338548 -0.114978
C48   C     C_R   0.736169 0.938689 0.380290 -0.125921
C49   C     C_R   0.774682 0.924723 0.174008 -0.118140
C50   C     C_R   0.790116 0.910372 0.132643 -0.126250
C51   C     C_R   0.618483 0.752118 0.121312 -0.127447
C52   C     C_R   0.603079 0.766838 0.162534 -0.114987
C53   C     C_R   0.682862 0.850876 0.189139 0.039505
C54   C     C_R   0.589674 0.199177 0.571021 0.543866
C55   C     C_1   0.674770 0.855000 0.232211 -0.033129
C56   C     C_1   0.668177 0.855739 0.268266 -0.033544
C57   C     C_R   0.714338 0.821184 0.106321 0.021403
C58   C     C_R   0.623246 0.249525 0.614077 -0.040389
C59   C     C_R   0.562464 0.287389 0.635994 -0.109077
C60   C     C_R   0.578803 0.314585 0.678812 0.130070
C61   C     C_R   0.655730 0.299318 0.699484 0.065742
C62   C     C_R   0.723060 0.269859 0.677430 0.127996
C63   C     C_R   0.706198 0.245191 0.634910 -0.135877
C64   C     C_R   0.759673 0.339797 0.845336 -0.116901
C65   C     C_R   0.289453 0.887219 0.548595 0.545054
C66   C     C_R   0.770699 0.368096 0.887650 -0.132143
C67   C     C_R   0.590519 0.343758 0.885632 -0.131960
C68   C     C_R   0.579716 0.315392 0.843319 -0.121000
C69   C     C_R   0.665778 0.317471 0.823057 0.036533
C70   C     C_1   0.662152 0.308553 0.779519 -0.031763
C71   C     C_1   0.659768 0.304557 0.743122 0.001640
C72   C     C_R   0.688129 0.375484 0.907999 0.019177
C73   C     C_R   0.071091 0.754900 0.909072 0.048113
C74   C     C_R   0.113350 0.855278 0.898099 0.139154
C75   C     C_R   0.131981 0.866725 0.857356 -0.107704
C76   C     C_R   0.734956 0.443326 0.103935 -0.004084
C77   C     C_R   0.111620 0.780505 0.827981 0.006609
C78   C     C_R   0.079187 0.683517 0.839907 -0.135656
C79   C     C_R   0.059349 0.670875 0.880126 -0.158035
C80   C     C_R   0.165425 0.742051 0.759531 -0.116948
C81   C     C_R   0.169958 0.749619 0.718310 -0.114814
C82   C     C_R   0.127438 0.805356 0.701479 0.030848
C83   C     C_R   0.079271 0.852566 0.726381 -0.115570
C84   C     C_R   0.074509 0.844778 0.767682 -0.112606
C85   C     C_R   0.118348 0.790147 0.784567 0.032558
C86   C     C_R   0.186472 0.922815 0.649497 -0.117688
C87   C     C_R   0.637768 0.403070 0.122077 -0.117098
C88   C     C_R   0.226406 0.943129 0.611782 -0.127390
C89   C     C_R   0.170873 0.759856 0.591283 -0.124863
C90   C     C_R   0.130608 0.739566 0.628871 -0.122374
C91   C     C_R   0.143315 0.821761 0.658946 0.030811
C92   C     C_R   0.223975 0.862582 0.583315 0.021788
C93   C     C_R   0.659142 0.743737 0.912627 0.022090
C94   C     C_R   0.587582 0.651541 0.886724 -0.128683
C95   C     C_R   0.558667 0.655244 0.846976 -0.123270
C96   C     C_R   0.600093 0.751214 0.832878 0.031175
C97   C     C_R   0.664739 0.843640 0.859993 -0.117749
C98   C     C_R   0.632705 0.379762 0.161632 0.145887
C99   C     C_R   0.694096 0.839895 0.899454 -0.123825
C100  C     C_R   0.575706 0.837053 0.777256 -0.118986
C101  C     C_R   0.585292 0.854019 0.736980 -0.114562
C102  C     C_R   0.606109 0.789444 0.707839 0.025819
C103  C     C_R   0.611704 0.704311 0.718955 -0.119865
C104  C     C_R   0.603062 0.687741 0.759431 -0.115234
C105  C     C_R   0.587985 0.755868 0.789154 0.027749
C106  C     C_R   0.561252 0.737574 0.632713 -0.119997
C107  C     C_R   0.564645 0.765755 0.594159 -0.124034
C108  C     C_R   0.700724 0.942275 0.621467 -0.125442
Cr1   Cr    Cr6+3 0.424820 0.846020 0.489780 1.009549
Cr2   Cr    Cr6+3 0.657880 0.078580 0.505700 1.008156
Cr3   Cr    Cr6+3 0.417280 0.075360 0.504550 1.008213
Cr4   Cr    Cr6+3 0.903360 0.812540 0.006510 1.042448
Cr5   Cr    Cr6+3 0.914630 0.587050 0.006280 1.002889
Cr6   Cr    Cr6+3 0.673560 0.582680 0.008540 1.005358
H1    H     H_    0.566165 0.392488 0.106003 0.119162
H2    H     H_    0.490516 0.276753 0.411956 0.126053
H3    H     H_    0.895045 0.446495 0.180799 0.110536
H4    H     H_    0.789551 0.274272 0.426941 0.123786
H5    H     H_    0.163227 0.711450 0.104166 0.131084
H6    H     H_    0.214177 0.750539 0.176923 0.113142
H7    H     H_    0.201963 0.730000 0.299683 0.105107
H8    H     H_    0.241471 0.731258 0.371639 0.122439
H9    H     H_    0.244681 0.025845 0.402799 0.123469
H10   H     H_    0.139113 0.000307 0.189376 0.096373
H11   H     H_    0.902186 0.484654 0.111419 0.135393
H12   H     H_    0.205667 0.023536 0.330700 0.104586
H13   H     H_    0.864405 0.964974 0.121942 0.129081
H14   H     H_    0.836701 0.990303 0.194474 0.101923
H15   H     H_    0.823779 0.977375 0.327456 0.105674
H16   H     H_    0.803683 0.997837 0.400684 0.125535
H17   H     H_    0.472538 0.756948 0.377992 0.125033
H18   H     H_    0.531535 0.709605 0.174006 0.104525
H19   H     H_    0.558303 0.683022 0.101744 0.120682
H20   H     H_    0.494131 0.737367 0.304830 0.105056
H21   H     H_    0.846889 0.392023 0.903907 0.122448
H22   H     H_    0.843501 0.347603 0.364374 0.102066
H23   H     H_    0.826643 0.341422 0.829829 0.107923
H24   H     H_    0.754507 0.217008 0.618422 0.127078
H25   H     H_    0.499034 0.290826 0.619616 0.134943
H26   H     H_    0.506619 0.297969 0.826227 0.106326
H27   H     H_    0.525449 0.348595 0.900313 0.122781
H28   H     H_    0.027119 0.593305 0.887810 0.129198
H29   H     H_    0.095497 0.660698 0.635381 0.102396
H30   H     H_    0.777108 0.264965 0.294149 0.106636
H31   H     H_    0.209943 0.714775 0.699854 0.106575
H32   H     H_    0.200520 0.700343 0.772013 0.104170
H33   H     H_    0.160807 0.942697 0.848445 0.097648
H34   H     H_    0.045909 0.895719 0.713913 0.104247
H35   H     H_    0.035873 0.880707 0.786374 0.106307
H36   H     H_    0.197288 0.987441 0.672339 0.110918
H37   H     H_    0.266576 0.022986 0.606271 0.130176
H38   H     H_    0.062838 0.615904 0.817662 0.107878
H39   H     H_    0.166284 0.696122 0.569471 0.125891
H40   H     H_    0.788538 0.284078 0.222124 0.102630
H41   H     H_    0.749028 0.912052 0.918928 0.125171
H42   H     H_    0.745617 0.973333 0.685546 0.109083
H43   H     H_    0.578282 0.918757 0.728645 0.118452
H44   H     H_    0.562289 0.889558 0.799414 0.107686
H45   H     H_    0.507822 0.583016 0.826738 0.100361
H46   H     H_    0.614150 0.625292 0.767834 0.107026
H47   H     H_    0.505123 0.658835 0.636932 0.100666
H48   H     H_    0.510565 0.708111 0.569250 0.117556
H49   H     H_    0.698865 0.918694 0.849908 0.106073
H50   H     H_    0.752557 0.022761 0.618152 0.118796
H51   H     H_    0.663676 0.488683 0.315098 0.104088
H52   H     H_    0.673215 0.505566 0.242837 0.127546
H53   H     H_    0.543590 0.347668 0.349155 0.104608
O1    O     O_R   0.318160 0.824460 0.443680 -0.521750
O2    O     O_R   0.645130 0.163230 0.552140 -0.501267
O3    O     O_R   0.498360 0.178430 0.555780 -0.519980
O4    O     O_R   0.328690 0.978040 0.538950 -0.502564
O5    O     O_3   0.499990 0.999990 0.500010 -0.233972
O6    O     O_R   0.828710 0.851830 0.052170 -0.505674
O7    O     O_R   0.005980 0.823990 0.047210 -0.462927
O8    O     O_R   0.031900 0.688850 0.050170 -0.531616
O9    O     O_R   0.830940 0.518420 0.048680 -0.499342
O10   O     O_R   0.668160 0.499860 0.053480 -0.519692
O11   O     O_R   0.689170 0.693840 0.050110 -0.503050
O12   O     O_R   0.525040 0.857250 0.449830 -0.503696
O13   O     O_R   0.803860 0.812940 0.962540 -0.510852
O14   O     O_R   0.982950 0.787950 0.964120 -0.461948
O15   O     O_R   0.007050 0.649970 0.960540 -0.534339
O16   O     O_R   0.807910 0.482370 0.965590 -0.502217
O17   O     O_R   0.643310 0.460980 0.963840 -0.522080
O18   O     O_R   0.666140 0.657800 0.967020 -0.504587
O19   O     O_3   0.830520 0.660760 0.007110 -0.241191
O20   O     O_R   0.684760 0.998800 0.456360 -0.517859
O21   O     O_R   0.647540 0.166310 0.470260 -0.501638
O22   O     O_R   0.500960 0.181750 0.467450 -0.521136
O23   O     O_R   0.331100 0.981120 0.457080 -0.501558
O24   O     O_R   0.315560 0.821140 0.532010 -0.516843
O25   O     O_R   0.522630 0.854180 0.531710 -0.498138
O26   O     O_R   0.682160 0.995480 0.544690 -0.521607
N1    N     N_2   0.085448 0.982830 0.110623 -0.487748
H54   H     H_    0.056461 0.020253 0.131080 0.230021
C109  C     C_3   0.164149 0.053668 0.086988 -0.291965
H55   H     H_    0.237021 0.111087 0.107062 0.119969
H56   H     H_    0.130453 0.096301 0.072632 0.134308
H57   H     H_    0.186293 0.010464 0.062382 0.150176
N2    N     N_2   0.803220 0.258036 0.698052 -0.516505
H58   H     H_    0.820942 0.203988 0.682211 0.238632
C110  C     C_3   0.898510 0.355159 0.713478 -0.310304
H59   H     H_    0.939141 0.395270 0.687800 0.135548
H60   H     H_    0.954302 0.339099 0.730636 0.133847
H61   H     H_    0.878549 0.407240 0.734520 0.159172
N3    N     N_2   0.514308 0.350297 0.701333 -0.518621
H62   H     H_    0.541071 0.382907 0.731419 0.248448
C111  C     C_3   0.468972 0.403220 0.681441 -0.321752
H63   H     H_    0.434686 0.438553 0.704276 0.134851
H64   H     H_    0.402919 0.346913 0.658378 0.148151
H65   H     H_    0.531603 0.466171 0.666942 0.138151
N4    N     N_2   0.132298 0.943671 0.927229 -0.497663
H66   H     H_    0.132678 0.003833 0.914771 0.237843
C112  C     C_3   0.222529 0.979754 0.956865 -0.299965
H67   H     H_    0.228028 0.045366 0.979284 0.127961
H68   H     H_    0.297818 0.007385 0.941420 0.134820
H69   H     H_    0.212996 0.916661 0.973765 0.148458
H70   H     H_    0.559877 0.576312 0.896166 0.125450
H71   H     H_    0.627691 0.653837 0.696755 0.104339
N5    N     N_2   0.533625 0.340954 0.179760 -0.527917
H72   H     H_    0.481123 0.361885 0.168085 0.238471
C113  C     C_3   0.482628 0.230855 0.182045 -0.301738
H73   H     H_    0.460720 0.184411 0.150872 0.135286
H74   H     H_    0.408740 0.208404 0.198081 0.139574
H75   H     H_    0.536329 0.212466 0.199321 0.169660

loop_
_geom_bond_atom_site_label_1
_geom_bond_atom_site_label_2
_ccdc_geom_bond_type
C65   C92   S    
N1    C109  S    
C21   C26   S    
C78   C79   A    
C101  C102  A    
C98   N5    S    
C10   O17   A    
C73   C74   A    
C54   O3    A    
Cr4   O7    S    
C95   C96   A    
C100  C105  A    
C55   C56   T    
C2    C12   A    
C49   C50   A    
C23   H4    S    
N5    C113  S    
C81   C82   A    
C18   H52   S    
C28   H9    S    
C78   H38   S    
C82   C91   S    
Cr5   O16   S    
C77   C78   A    
C27   C33   A    
C44   H17   S    
C12   C13   A    
C108  H50   S    
Cr2   O21   S    
C45   H20   S    
C80   C85   A    
Cr6   O18   S    
C110  H60   S    
C65   O4    A    
C95   H45   S    
C36   C37   A    
C37   C38   A    
C34   C35   A    
C86   C91   A    
C86   H36   S    
Cr4   O19   S    
C38   C39   S    
N3    C111  S    
C66   H21   S    
C106  H47   S    
C79   H28   S    
C6    O8    A    
Cr1   O25   S    
C15   C16   A    
C94   H70   S    
C7    O10   A    
C18   C19   A    
C109  H55   S    
C23   C26   A    
C49   H14   S    
C104  C105  A    
C9    O15   A    
C68   C69   A    
C21   O22   A    
C66   C72   A    
C88   C92   A    
N2    H58   S    
Cr6   O11   S    
C6    C41   S    
C4    C102  S    
C23   C24   A    
C13   C76   A    
C70   C71   T    
C51   C57   A    
C93   C99   A    
C87   H1    S    
C90   H29   S    
Cr1   O5    S    
Cr5   O8    S    
C87   C98   A    
C13   H11   S    
C84   H35   S    
C61   C71   S    
C22   H2    S    
N1    H54   S    
C27   C32   S    
C101  H43   S    
C59   C60   A    
C34   C38   A    
C29   H12   S    
C14   H40   S    
C10   O16   A    
C54   O2    A    
C48   H16   S    
C36   C41   A    
C69   C70   S    
C1    O20   A    
C42   C44   A    
C104  H46   S    
C109  H57   S    
N5    H72   S    
C97   C99   A    
C64   H23   S    
C53   C55   S    
C34   H6    S    
Cr2   O20   S    
C74   C75   A    
C32   O23   A    
C67   C68   A    
C52   H18   S    
C47   C48   A    
C65   O24   A    
C67   C72   A    
C24   C25   A    
C31   H7    S    
C109  H56   S    
C110  H59   S    
C111  H63   S    
C39   C40   T    
C60   N3    S    
N3    H62   S    
C16   C17   A    
C6    O7    A    
C113  H75   S    
C75   H33   S    
C58   C59   A    
C45   C46   A    
C4    C106  A    
C110  H61   S    
Cr3   O5    S    
C83   H34   S    
C74   N4    S    
C60   C61   A    
C64   C66   A    
C96   C97   A    
C29   C30   A    
C1    O12   A    
Cr1   O1    S    
C8    O11   A    
C8    C57   S    
C37   H10   S    
C97   H49   S    
Cr1   O12   S    
C89   H39   S    
C83   C84   A    
C107  H48   S    
C59   H25   S    
Cr6   O10   S    
C7    O9    A    
C62   C63   A    
C31   C33   A    
C17   C18   A    
C73   C79   A    
C30   C40   S    
C94   C95   A    
C93   C94   A    
C42   C48   A    
C64   C69   A    
C84   C85   A    
C89   C92   A    
C113  H74   S    
C75   C77   A    
C76   C87   A    
Cr4   O14   S    
Cr5   O9    S    
C15   H30   S    
C111  H64   S    
C47   H15   S    
C43   O25   A    
Cr3   O22   S    
C81   H31   S    
C32   O1    A    
C22   C26   A    
C33   H8    S    
C54   C58   S    
C88   H37   S    
C99   H41   S    
C68   H26   S    
C10   C72   S    
C3    C4    A    
C67   H27   S    
Cr5   O15   S    
C103  C104  A    
C52   C53   A    
C96   C105  S    
C5    C107  A    
Cr2   O26   S    
C16   C25   S    
C20   H53   S    
C46   C47   A    
C28   C29   A    
C35   H5    S    
C2    C19   S    
C112  H67   S    
C50   C57   A    
C14   C19   A    
C9    C73   S    
C44   C45   A    
C58   C63   A    
C20   C22   A    
C80   C81   A    
C112  H69   S    
C24   H22   S    
C7    C76   S    
C11   O13   A    
C3    C108  A    
Cr6   O19   S    
Cr4   O13   S    
C43   O26   A    
Cr3   O3    S    
C61   C62   A    
C106  C107  A    
C112  H68   S    
C62   N2    S    
C51   C52   A    
C17   H51   S    
C51   H19   S    
C11   C93   S    
C90   C91   A    
C30   C31   A    
Cr1   O24   S    
C111  H65   S    
Cr6   O17   S    
Cr5   O19   S    
C80   H32   S    
C100  C101  A    
C63   H24   S    
C11   O18   A    
Cr4   O6    S    
C86   C88   A    
C5    C43   S    
C102  C103  A    
C35   C41   A    
C36   N1    S    
C21   O21   A    
C49   C53   A    
C9    O14   A    
N4    C112  S    
C77   C85   S    
C12   H3    S    
Cr2   O2    S    
C100  H44   S    
C1    C42   S    
C3    H42   S    
N4    H66   S    
C2    C98   A    
Cr3   O23   S    
N2    C110  S    
C82   C83   A    
C20   C25   A    
C46   C56   S    
C27   C28   A    
C14   C15   A    
C50   H13   S    
C8    O6    A    
C89   C90   A    
C113  H73   S    
C5    C108  A    
C103  H71   S    
Cr3   O4    S    
Cr2   O5    S    
