data_mof_unit_59691.cif
_audit_creation_date              2012-12-10T17:16:42-0500
_audit_creation_method            fapswitch 2.2
_symmetry_space_group_name_H-M    P1
_symmetry_Int_Tables_number       1
_space_group_crystal_system       triclinic
_cell_length_a                    10.165947
_cell_length_b                    10.596127
_cell_length_c                    10.684063
_cell_angle_alpha                 89.650296
_cell_angle_beta                  92.964475
_cell_angle_gamma                 79.889691
_cell_volume                      1131.361201

loop_
_atom_site_label
_atom_site_type_symbol
_atom_type_description
_atom_site_fract_x
_atom_site_fract_y
_atom_site_fract_z
_atom_type_partial_charge
C1    C     C_R   0.447181 0.516559 0.266217 0.825571
C2    C     C_R   0.495681 0.743356 0.491282 0.871949
C3    C     C_R   0.764521 0.068651 0.527869 0.638161
C4    C     C_R   0.251349 0.938943 0.558933 0.636238
C5    C     C_R   0.861962 0.999328 0.456064 -0.248640
C6    C     C_R   0.164007 0.008689 0.640593 -0.245436
C7    C     C_R   0.831068 0.901506 0.380484 0.204816
C8    C     C_R   0.198727 0.113901 0.702380 0.173468
C9    C     C_R   0.706022 0.865139 0.386214 -0.143686
C10   C     C_R   0.318657 0.152817 0.678204 -0.179841
C11   C     C_R   0.609086 0.928607 0.465537 -0.032662
C12   C     C_R   0.553420 0.494196 0.733101 0.814894
C13   C     C_R   0.408889 0.081438 0.597991 -0.024634
C14   C     C_R   0.632913 0.041574 0.521644 -0.039786
C15   C     C_R   0.383230 0.965040 0.548579 -0.033845
C16   C     C_R   0.489636 0.883019 0.490069 -0.118353
C17   C     C_R   0.522876 0.126912 0.563425 -0.111667
C18   C     C_2   0.425192 0.546317 0.132814 0.443552
C19   C     C_2   0.578246 0.496638 0.865991 0.464193
C20   C     C_2   0.523731 0.580478 0.066368 0.035910
C21   C     C_2   0.508303 0.589792 0.932250 0.045844
C22   C     C_2   0.070350 0.509130 0.475213 0.573318
C23   C     C_2   0.921773 0.521780 0.498443 0.558967
C24   C     C_R   0.508225 0.262256 0.527582 0.901419
F1    F     F_    0.799578 0.159659 0.605541 -0.635131
F2    F     F_    0.198428 0.859804 0.479416 -0.643049
F3    F     F_    0.661946 0.395818 0.923032 -0.606495
F4    F     F_    0.304685 0.536929 0.075300 -0.586560
F5    F     F_    0.864906 0.620271 0.569317 -0.641546
F6    F     F_    0.114375 0.459246 0.365360 -0.603861
H1    H     H_    0.960050 0.024917 0.455087 0.201185
H2    H     H_    0.067206 0.982942 0.653347 0.204696
H3    H     H_    0.683931 0.789493 0.326724 0.177894
H4    H     H_    0.342211 0.238000 0.723381 0.177049
I1    I     I_    0.064723 0.220841 0.822746 -0.055453
I2    I     I_    0.975329 0.808960 0.260694 -0.063089
I3    I     I_    0.402969 0.766794 0.855308 -0.229282
I4    I     I_    0.718894 0.609246 0.129903 -0.152055
I5    I     I_    0.908851 0.297554 0.330828 -0.050331
I6    I     I_    0.109397 0.607074 0.732494 -0.009346
N1    N     N_2   0.157300 0.551390 0.551120 -0.067331
N2    N     N_2   0.842700 0.448610 0.448880 -0.061076
O1    O     O_R   0.568940 0.489660 0.307530 -0.635449
O2    O     O_R   0.431060 0.510340 0.692470 -0.643181
O3    O     O_R   0.348880 0.522640 0.340350 -0.487322
O4    O     O_R   0.651120 0.477360 0.659650 -0.527396
O5    O     O_R   0.610030 0.300280 0.483580 -0.563605
O6    O     O_R   0.389970 0.699720 0.516420 -0.547635
O7    O     O_R   0.389970 0.333270 0.516400 -0.605404
O8    O     O_R   0.610030 0.666730 0.483600 -0.579674
Zn1   Zn    Zn3+2 0.646940 0.477980 0.478080 1.110596
Zn2   Zn    Zn3+2 0.353060 0.522020 0.521920 1.113100

loop_
_geom_bond_atom_site_label_1
_geom_bond_atom_site_label_2
_ccdc_geom_bond_type
C20   I4    S    
C4    F2    S    
C10   C13   A    
C2    C16   S    
C11   C16   A    
N1    Zn2   S    
C6    H2    S    
C13   C17   A    
N2    Zn1   S    
C3    C5    A    
O7    Zn2   S    
O1    Zn1   S    
O2    Zn2   S    
C4    C15   A    
O8    Zn1   S    
C21   I3    S    
C10   H4    S    
C22   F6    S    
C9    H3    S    
C9    C11   A    
C14   C17   A    
C1    O3    A    
C1    C18   S    
C3    C14   A    
C23   F5    S    
C12   C19   S    
C4    C6    A    
I6    N1    S    
C19   C21   D    
I5    N2    S    
C18   C20   D    
C13   C15   A    
C11   C14   A    
C22   N1    D    
C15   C16   A    
C17   C24   S    
C7    C9    A    
C3    F1    S    
C18   F4    S    
C20   C21   S    
C12   O4    A    
C7    I2    S    
C24   O7    A    
C5    C7    A    
C22   C23   S    
C12   O2    A    
C6    C8    A    
C2    O8    A    
O3    Zn2   S    
C2    O6    A    
O6    Zn2   S    
C24   O5    A    
O4    Zn1   S    
C1    O1    A    
C8    C10   A    
O5    Zn1   S    
C23   N2    D    
C19   F3    S    
C5    H1    S    
C8    I1    S    
