data_mof_unit_28032.cif
_audit_creation_date              2012-12-11T15:08:47-0500
_audit_creation_method            fapswitch 2.2
_symmetry_space_group_name_H-M    P1
_symmetry_Int_Tables_number       1
_space_group_crystal_system       triclinic
_cell_length_a                    19.391733
_cell_length_b                    11.324844
_cell_length_c                    18.701996
_cell_angle_alpha                 89.950344
_cell_angle_beta                  90.094108
_cell_angle_gamma                 90.013967
_cell_volume                      4107.10730102

loop_
_atom_site_label
_atom_site_type_symbol
_atom_type_description
_atom_site_fract_x
_atom_site_fract_y
_atom_site_fract_z
_atom_type_partial_charge
C1    C     C_R   0.271471 0.045005 0.853357 0.531631
C2    C     C_3   0.683104 0.539721 0.954136 -0.237343
C3    C     C_R   0.227258 0.544810 0.353646 0.541534
C4    C     C_R   0.468410 0.822524 0.645307 0.541890
C5    C     C_R   0.531578 0.822464 0.354675 0.542510
C6    C     C_R   0.968410 0.322524 0.645307 0.541890
C7    C     C_R   0.031578 0.322464 0.354674 0.542510
C8    C     C_R   0.260594 0.639892 0.643740 0.557341
C9    C     C_R   0.739420 0.639784 0.356244 0.558736
C10   C     C_R   0.760594 0.139892 0.643740 0.557341
C11   C     C_R   0.239420 0.139784 0.356244 0.558737
C12   C     C_3   0.489271 0.923945 0.032719 -0.112544
C13   C     C_3   0.809272 0.015099 0.040595 -0.233424
C14   C     C_3   0.527987 0.910447 0.960752 -0.110563
C15   C     C_3   0.989271 0.423945 0.032719 -0.112543
C16   C     C_3   0.027987 0.410447 0.960752 -0.110563
C17   C     C_3   0.434574 0.834364 0.007685 -0.162656
C18   C     C_3   0.570672 0.807515 0.992453 -0.160854
C19   C     C_3   0.934574 0.334364 0.007685 -0.162656
C20   C     C_3   0.070672 0.307514 0.992453 -0.160854
C21   C     C_3   0.473436 0.821666 0.936254 0.059438
C22   C     C_3   0.531377 0.821753 0.063447 0.053806
C23   C     C_3   0.973436 0.321666 0.936254 0.059438
C24   C     C_3   0.183104 0.039721 0.954136 -0.237342
C25   C     C_3   0.031377 0.321753 0.063447 0.053806
C26   C     C_3   0.078790 0.737850 0.576789 -0.024222
C27   C     C_3   0.019563 0.711225 0.627507 -0.353053
C28   C     C_3   0.921360 0.737665 0.423218 -0.024277
C29   C     C_3   0.980425 0.711262 0.372291 -0.352692
C30   C     C_3   0.578788 0.237846 0.576785 -0.024223
C31   C     C_3   0.519563 0.211225 0.627506 -0.353052
C32   C     C_3   0.421357 0.237668 0.423211 -0.024277
C33   C     C_3   0.480423 0.211258 0.372287 -0.352695
C34   C     C_3   0.313561 0.523417 0.958249 -0.240704
C35   C     C_3   0.675808 0.558547 0.035657 -0.232210
C36   C     C_3   0.813560 0.023417 0.958249 -0.240704
C37   C     C_3   0.175808 0.058547 0.035657 -0.232210
C38   C     C_3   0.176632 0.530173 0.025830 -0.209125
C39   C     C_3   0.813288 0.513186 0.973583 -0.211992
C40   C     C_3   0.676632 0.030173 0.025830 -0.209125
C41   C     C_R   0.727290 0.042180 0.145104 0.531990
C42   C     C_3   0.313288 0.013186 0.973583 -0.211992
C43   C     C_3   0.247556 0.703411 0.055113 -0.253491
C44   C     C_3   0.764389 0.707519 0.943847 -0.255546
C45   C     C_3   0.747556 0.203411 0.055113 -0.253491
C46   C     C_3   0.264389 0.207519 0.943847 -0.255547
C47   C     C_3   0.241165 0.571496 0.068860 0.063578
C48   C     C_3   0.756587 0.575924 0.928963 0.066144
C49   C     C_3   0.741165 0.071497 0.068860 0.063578
C50   C     C_3   0.256587 0.075924 0.928963 0.066144
C51   C     C_3   0.254808 0.604385 0.930406 0.059326
C52   C     C_R   0.771471 0.545005 0.853357 0.531631
C53   C     C_3   0.743563 0.610585 0.067358 0.055479
C54   C     C_3   0.754808 0.104385 0.930406 0.059326
C55   C     C_3   0.243563 0.110585 0.067358 0.055479
C56   C     C_3   0.185721 0.544253 0.944940 -0.246755
C57   C     C_3   0.800548 0.520486 0.054722 -0.256578
C58   C     C_3   0.685721 0.044253 0.944940 -0.246755
C59   C     C_3   0.300548 0.020486 0.054722 -0.256578
C60   C     C_3   0.259161 0.720263 0.974007 -0.222156
C61   C     C_3   0.763863 0.724353 0.025572 -0.223657
C62   C     C_3   0.759161 0.220263 0.974007 -0.222156
C63   C     C_R   0.227290 0.542180 0.145104 0.531991
C64   C     C_3   0.263863 0.224353 0.025572 -0.223657
C65   C     C_3   0.504453 0.697819 0.460311 -0.224090
C66   C     C_3   0.495519 0.697865 0.539779 -0.223800
C67   C     C_3   0.004453 0.197819 0.460311 -0.224089
C68   C     C_3   0.995520 0.197865 0.539779 -0.223800
C69   C     C_R   0.445173 0.817441 0.862537 0.540621
C70   C     C_R   0.557446 0.817227 0.137781 0.539362
C71   C     C_R   0.945173 0.317441 0.862537 0.540621
C72   C     C_R   0.057446 0.317227 0.137781 0.539362
C73   C     C_3   0.564377 0.901319 0.474080 -0.211129
C74   C     C_3   0.515830 0.718986 0.967055 -0.110640
C75   C     C_3   0.435622 0.901385 0.525785 -0.211208
C76   C     C_3   0.064376 0.401319 0.474080 -0.211129
C77   C     C_3   0.935622 0.401385 0.525785 -0.211208
C78   C     C_3   0.440806 0.881418 0.444180 -0.261616
C79   C     C_3   0.559179 0.881485 0.555714 -0.261862
C80   C     C_3   0.940806 0.381417 0.444180 -0.261617
C81   C     C_3   0.059179 0.381486 0.555714 -0.261861
C82   C     C_3   0.510860 0.825950 0.430945 0.046356
C83   C     C_3   0.489117 0.826041 0.569016 0.046467
C84   C     C_3   0.010859 0.325951 0.430945 0.046356
C85   C     C_3   0.477390 0.732357 0.038287 -0.109534
C86   C     C_3   0.989117 0.326041 0.569016 0.046467
C87   C     C_3   0.178137 0.647611 0.458361 -0.186851
C88   C     C_3   0.821896 0.647705 0.541591 -0.186872
C89   C     C_3   0.678137 0.147610 0.458361 -0.186854
C90   C     C_3   0.321896 0.147705 0.541591 -0.186869
C91   C     C_3   0.186119 0.670536 0.536967 0.165075
C92   C     C_3   0.813918 0.670514 0.462955 0.165008
C93   C     C_3   0.686119 0.170536 0.536967 0.165075
C94   C     C_3   0.313918 0.170514 0.462955 0.165008
C95   C     C_3   0.250679 0.459305 0.472295 -0.232033
C96   C     C_3   0.015830 0.218986 0.967055 -0.110640
C97   C     C_3   0.749329 0.459369 0.527921 -0.231775
C98   C     C_3   0.750679 0.959305 0.472295 -0.232032
C99   C     C_3   0.249329 0.959370 0.527921 -0.231775
C100  C     C_3   0.303909 0.651250 0.442773 -0.286743
C101  C     C_3   0.696102 0.651326 0.557145 -0.286901
C102  C     C_3   0.803909 0.151250 0.442773 -0.286743
C103  C     C_3   0.196102 0.151327 0.557145 -0.286901
C104  C     C_3   0.240018 0.575724 0.429363 0.036815
C105  C     C_3   0.759993 0.575850 0.570665 0.037298
C106  C     C_3   0.740018 0.075724 0.429363 0.036816
C107  C     C_3   0.977390 0.232357 0.038287 -0.109534
C108  C     C_3   0.259994 0.075851 0.570665 0.037298
C109  C     C_3   0.251538 0.607671 0.567397 0.078235
C110  C     C_3   0.748469 0.607592 0.432611 0.077841
C111  C     C_3   0.751538 0.107670 0.567397 0.078235
C112  C     C_3   0.248469 0.107593 0.432611 0.077841
C113  C     C_3   0.243107 0.476092 0.553702 -0.258822
C114  C     C_3   0.756880 0.476034 0.446489 -0.259025
C115  C     C_3   0.743107 0.976091 0.553702 -0.258821
C116  C     C_3   0.256880 0.976035 0.446489 -0.259024
C117  C     C_R   0.261360 0.638244 0.853639 0.533943
C118  C     C_3   0.309272 0.515099 0.040595 -0.233424
C119  C     C_R   0.737529 0.642441 0.144720 0.535851
C120  C     C_R   0.761360 0.138244 0.853639 0.533943
C121  C     C_R   0.237529 0.142441 0.144720 0.535851
C122  C     C_3   0.316999 0.648193 0.524623 -0.269979
C123  C     C_3   0.683003 0.648130 0.475306 -0.270005
C124  C     C_3   0.816999 0.148193 0.524623 -0.269979
C125  C     C_3   0.183003 0.148130 0.475306 -0.270005
C126  C     C_R   0.272722 0.044928 0.646388 0.540203
C127  C     C_R   0.727258 0.044809 0.353646 0.541534
C128  C     C_R   0.772722 0.544928 0.646388 0.540203
Cr1   Cr    Cr6+3 0.229620 0.836040 0.749110 0.992524
Cr2   Cr    Cr6+3 0.613980 0.676590 0.250790 0.989332
Cr3   Cr    Cr6+3 0.886020 0.176590 0.749210 0.988856
Cr4   Cr    Cr6+3 0.113980 0.176590 0.250790 0.989332
Cr5   Cr    Cr6+3 0.770380 0.836040 0.250890 0.992558
Cr6   Cr    Cr6+3 0.729620 0.336040 0.749110 0.992526
Cr7   Cr    Cr6+3 0.270380 0.336040 0.250890 0.992554
Cr8   Cr    Cr6+3 0.387630 0.990680 0.750730 0.986858
Cr9   Cr    Cr6+3 0.612370 0.990680 0.249270 0.986466
Cr10  Cr    Cr6+3 0.887630 0.490680 0.750730 0.986858
Cr11  Cr    Cr6+3 0.112370 0.490680 0.249270 0.986468
Cr12  Cr    Cr6+3 0.386020 0.676590 0.749210 0.988857
H1    H     H_    0.382515 0.838774 0.029153 0.097362
H2    H     H_    0.722592 0.758411 0.917511 0.103257
H3    H     H_    0.194604 0.936403 0.537429 0.111027
H4    H     H_    0.283264 0.424869 0.582670 0.095692
H5    H     H_    0.716701 0.424775 0.417613 0.095797
H6    H     H_    0.783264 0.924868 0.582670 0.095691
H7    H     H_    0.216701 0.924775 0.417613 0.095796
H8    H     H_    0.316481 0.424981 0.058956 0.132661
H9    H     H_    0.670359 0.447563 0.940594 0.127565
H10   H     H_    0.816481 0.924981 0.058956 0.132661
H11   H     H_    0.170359 0.947564 0.940594 0.127564
H12   H     H_    0.353765 0.562766 0.064276 0.107805
H13   H     H_    0.791601 0.238971 0.086401 0.101087
H14   H     H_    0.644374 0.594121 0.925320 0.112278
H15   H     H_    0.853765 0.062766 0.064276 0.107805
H16   H     H_    0.144374 0.094121 0.925320 0.112278
H17   H     H_    0.365106 0.559152 0.943515 0.138910
H18   H     H_    0.631656 0.617335 0.047015 0.137218
H19   H     H_    0.865106 0.059152 0.943515 0.138910
H20   H     H_    0.131656 0.117336 0.047015 0.137217
H21   H     H_    0.309192 0.435254 0.933637 0.112532
H22   H     H_    0.663802 0.472649 0.061766 0.116867
H23   H     H_    0.809192 0.935255 0.933637 0.112532
H24   H     H_    0.222593 0.258411 0.917511 0.103257
H25   H     H_    0.163801 0.972650 0.061766 0.116867
H26   H     H_    0.663885 0.940031 0.040856 0.100890
H27   H     H_    0.316570 0.923685 0.954482 0.100508
H28   H     H_    0.163885 0.440031 0.040856 0.100890
H29   H     H_    0.816570 0.423685 0.954482 0.100509
H30   H     H_    0.683467 0.957067 0.917942 0.106504
H31   H     H_    0.284741 0.934127 0.076647 0.109376
H32   H     H_    0.183466 0.457067 0.917942 0.106504
H33   H     H_    0.784742 0.434127 0.076647 0.109376
H34   H     H_    0.057894 0.755203 0.522435 0.103454
H35   H     H_    0.312240 0.748356 0.965069 0.102540
H36   H     H_    0.104215 0.819322 0.597242 0.139055
H37   H     H_    0.039848 0.692968 0.681975 0.168197
H38   H     H_    0.984193 0.788228 0.629954 0.081435
H39   H     H_    0.990019 0.633806 0.608783 0.148412
H40   H     H_    0.942415 0.754522 0.477545 0.103612
H41   H     H_    0.896011 0.819391 0.402980 0.138641
H42   H     H_    0.959977 0.693514 0.317841 0.168684
H43   H     H_    0.015894 0.788180 0.369895 0.081624
H44   H     H_    0.009915 0.633599 0.390782 0.148584
H45   H     H_    0.557890 0.255187 0.522430 0.103458
H46   H     H_    0.729542 0.796579 0.040543 0.109468
H47   H     H_    0.604210 0.319324 0.597232 0.139044
H48   H     H_    0.539849 0.192982 0.681975 0.168194
H49   H     H_    0.484190 0.288224 0.629948 0.081434
H50   H     H_    0.490021 0.133798 0.608789 0.148420
H51   H     H_    0.442412 0.254538 0.477537 0.103608
H52   H     H_    0.396005 0.319387 0.402967 0.138654
H53   H     H_    0.459976 0.193485 0.317840 0.168693
H54   H     H_    0.515887 0.288184 0.369880 0.081627
H55   H     H_    0.509920 0.133609 0.390789 0.148571
H56   H     H_    0.812240 0.248357 0.965069 0.102540
H57   H     H_    0.229542 0.296579 0.040543 0.109468
H58   H     H_    0.222545 0.786304 0.953634 0.137417
H59   H     H_    0.817646 0.745814 0.041323 0.131644
H60   H     H_    0.722545 0.286304 0.953634 0.137417
H61   H     H_    0.625548 0.790937 0.982227 0.092447
H62   H     H_    0.317647 0.245814 0.041323 0.131644
H63   H     H_    0.630516 0.082739 0.041570 0.139108
H64   H     H_    0.364702 0.053124 0.962392 0.140731
H65   H     H_    0.130516 0.582739 0.041570 0.139108
H66   H     H_    0.864702 0.553125 0.962392 0.140731
H67   H     H_    0.143014 0.599448 0.923445 0.130244
H68   H     H_    0.848954 0.546892 0.082494 0.125264
H69   H     H_    0.643014 0.099448 0.923445 0.130244
H70   H     H_    0.348954 0.046891 0.082494 0.125264
H71   H     H_    0.548354 0.642659 0.446720 0.135558
H72   H     H_    0.882515 0.338774 0.029153 0.097362
H73   H     H_    0.451627 0.642660 0.553440 0.135701
H74   H     H_    0.048354 0.142659 0.446720 0.135558
H75   H     H_    0.951627 0.142659 0.553441 0.135701
H76   H     H_    0.460265 0.651711 0.434923 0.113009
H77   H     H_    0.539706 0.651798 0.565223 0.113003
H78   H     H_    0.960265 0.151711 0.434924 0.113010
H79   H     H_    0.039707 0.151798 0.565223 0.113003
H80   H     H_    0.616030 0.894067 0.453554 0.113727
H81   H     H_    0.383971 0.894167 0.546328 0.113692
H82   H     H_    0.116030 0.394068 0.453554 0.113728
H83   H     H_    0.125548 0.290937 0.982227 0.092447
H84   H     H_    0.883971 0.394167 0.546328 0.113692
H85   H     H_    0.600727 0.823561 0.575431 0.107495
H86   H     H_    0.399244 0.823466 0.424563 0.107643
H87   H     H_    0.100727 0.323563 0.575431 0.107495
H88   H     H_    0.899244 0.323464 0.424564 0.107643
H89   H     H_    0.478624 0.009288 0.059674 0.114103
H90   H     H_    0.546326 0.984358 0.927071 0.115265
H91   H     H_    0.978624 0.509288 0.059674 0.114103
H92   H     H_    0.046326 0.484358 0.927071 0.115265
H93   H     H_    0.436973 0.965073 0.414321 0.188844
H94   H     H_    0.200226 0.751195 0.072226 0.125454
H95   H     H_    0.563009 0.965185 0.585436 0.188786
H96   H     H_    0.936972 0.465072 0.414320 0.188842
H97   H     H_    0.063008 0.465186 0.585435 0.188787
H98   H     H_    0.450452 0.994007 0.534394 0.130227
H99   H     H_    0.549550 0.993909 0.465317 0.130151
H100  H     H_    0.950452 0.494007 0.534393 0.130226
H101  H     H_    0.049550 0.493909 0.465317 0.130151
H102  H     H_    0.129587 0.603098 0.448389 0.154299
H103  H     H_    0.870436 0.603166 0.551638 0.154345
H104  H     H_    0.629587 0.103098 0.448389 0.154297
H105  H     H_    0.814128 0.740192 0.921912 0.129702
H106  H     H_    0.370437 0.103167 0.551638 0.154348
H107  H     H_    0.173442 0.733113 0.429323 0.078735
H108  H     H_    0.826600 0.733249 0.570497 0.078467
H109  H     H_    0.673442 0.233113 0.429324 0.078735
H110  H     H_    0.326600 0.233249 0.570497 0.078467
H111  H     H_    0.197392 0.762101 0.542336 0.107731
H112  H     H_    0.802668 0.762083 0.457395 0.107982
H113  H     H_    0.697392 0.262101 0.542337 0.107733
H114  H     H_    0.302668 0.262084 0.457395 0.107979
H115  H     H_    0.720022 0.886611 0.451949 0.103003
H116  H     H_    0.700226 0.251195 0.072226 0.125454
H117  H     H_    0.279980 0.886716 0.548403 0.103299
H118  H     H_    0.220022 0.386612 0.451949 0.103004
H119  H     H_    0.779980 0.386715 0.548403 0.103299
H120  H     H_    0.692289 0.945732 0.572546 0.153691
H121  H     H_    0.307688 0.945658 0.427684 0.153891
H122  H     H_    0.192289 0.445732 0.572546 0.153691
H123  H     H_    0.807688 0.445658 0.427684 0.153890
H124  H     H_    0.348751 0.615034 0.413237 0.117628
H125  H     H_    0.651257 0.615131 0.586741 0.117433
H126  H     H_    0.848751 0.115034 0.413237 0.117629
H127  H     H_    0.314128 0.240191 0.921912 0.129703
H128  H     H_    0.151257 0.115131 0.586741 0.117432
H129  H     H_    0.294855 0.742427 0.423811 0.109224
H130  H     H_    0.705160 0.742536 0.575950 0.109049
H131  H     H_    0.794855 0.242427 0.423811 0.109224
H132  H     H_    0.205160 0.242536 0.575950 0.109049
H133  H     H_    0.525651 0.632805 0.940818 0.120275
H134  H     H_    0.457101 0.657576 0.070168 0.123559
H135  H     H_    0.025651 0.132805 0.940818 0.120275
H136  H     H_    0.957101 0.157576 0.070168 0.123559
H137  H     H_    0.338272 0.730387 0.544412 0.115437
H138  H     H_    0.291601 0.738971 0.086401 0.101087
H139  H     H_    0.661714 0.730260 0.455360 0.115456
H140  H     H_    0.838272 0.230387 0.544412 0.115438
H141  H     H_    0.161714 0.230261 0.455360 0.115455
H142  H     H_    0.356304 0.579420 0.534175 0.124656
H143  H     H_    0.643695 0.579310 0.465860 0.124576
H144  H     H_    0.856304 0.079420 0.534175 0.124656
H145  H     H_    0.143695 0.079310 0.465860 0.124576
H146  H     H_    0.305405 0.436343 0.462871 0.110891
H147  H     H_    0.694604 0.436402 0.537428 0.111027
H148  H     H_    0.805405 0.936343 0.462871 0.110892
O1    O     O_R   0.214130 0.708570 0.829890 -0.530915
O2    O     O_R   0.542830 0.717300 0.331620 -0.528912
O3    O     O_R   0.957170 0.217300 0.668380 -0.529131
O4    O     O_R   0.042830 0.217300 0.331620 -0.528911
O5    O     O_R   0.320870 0.624890 0.673130 -0.521871
O6    O     O_R   0.679130 0.624890 0.326870 -0.521014
O7    O     O_R   0.820870 0.124890 0.673130 -0.521871
O8    O     O_R   0.179130 0.124890 0.326870 -0.521014
O9    O     O_3   0.334430 0.834430 0.749680 -0.282737
O10   O     O_3   0.665570 0.834430 0.250320 -0.286874
O11   O     O_3   0.834430 0.334430 0.749680 -0.282738
O12   O     O_R   0.785870 0.708570 0.170110 -0.529723
O13   O     O_3   0.165570 0.334430 0.250320 -0.286873
O14   O     O_R   0.236050 0.959150 0.825270 -0.514878
O15   O     O_R   0.763950 0.959150 0.174730 -0.516326
O16   O     O_R   0.736050 0.459150 0.825270 -0.514878
O17   O     O_R   0.263950 0.459150 0.174730 -0.516326
O18   O     O_R   0.332100 0.076650 0.832310 -0.533324
O19   O     O_R   0.667900 0.076650 0.167690 -0.532856
O20   O     O_R   0.832100 0.576650 0.832310 -0.533324
O21   O     O_R   0.167900 0.576650 0.167690 -0.532856
O22   O     O_R   0.446500 0.918620 0.826240 -0.503556
O23   O     O_R   0.714130 0.208570 0.829890 -0.530915
O24   O     O_R   0.553500 0.918620 0.173760 -0.503485
O25   O     O_R   0.946500 0.418620 0.826240 -0.503556
O26   O     O_R   0.053500 0.418620 0.173760 -0.503484
O27   O     O_R   0.457310 0.715830 0.831280 -0.524117
O28   O     O_R   0.542690 0.715830 0.168720 -0.524487
O29   O     O_R   0.957310 0.215830 0.831280 -0.524117
O30   O     O_R   0.042690 0.215830 0.168720 -0.524487
O31   O     O_R   0.321000 0.623520 0.824130 -0.519718
O32   O     O_R   0.679000 0.623520 0.175870 -0.519702
O33   O     O_R   0.821000 0.123520 0.824130 -0.519719
O34   O     O_R   0.285870 0.208570 0.170110 -0.529724
O35   O     O_R   0.179000 0.123520 0.175870 -0.519701
O36   O     O_R   0.213990 0.710040 0.667000 -0.488556
O37   O     O_R   0.786010 0.710040 0.333000 -0.487760
O38   O     O_R   0.713990 0.210040 0.667000 -0.488552
O39   O     O_R   0.286010 0.210040 0.333000 -0.487766
O40   O     O_R   0.235920 0.960520 0.674260 -0.516655
O41   O     O_R   0.764080 0.960520 0.325740 -0.515798
O42   O     O_R   0.735920 0.460520 0.674260 -0.516653
O43   O     O_R   0.264080 0.460520 0.325740 -0.515800
O44   O     O_R   0.331960 0.078120 0.669410 -0.539282
O45   O     O_R   0.446360 0.919990 0.675230 -0.512827
O46   O     O_R   0.668040 0.078120 0.330590 -0.538511
O47   O     O_R   0.831960 0.578120 0.669410 -0.539282
O48   O     O_R   0.168040 0.578120 0.330590 -0.538511
O49   O     O_3   0.125063 0.640866 0.575016 -0.572378
O50   O     O_3   0.874968 0.640794 0.424953 -0.572246
O51   O     O_3   0.625063 0.140866 0.575017 -0.572377
O52   O     O_3   0.374968 0.140794 0.424953 -0.572250
O53   O     O_R   0.553640 0.919990 0.324770 -0.512592
O54   O     O_R   0.946360 0.419990 0.675230 -0.512826
O55   O     O_R   0.053640 0.419990 0.324770 -0.512593
O56   O     O_R   0.457170 0.717300 0.668380 -0.529131

loop_
_geom_bond_atom_site_label_1
_geom_bond_atom_site_label_2
_ccdc_geom_bond_type
C78   H86   S    
C128  O47   A    
C55   C59   S    
C35   C53   S    
C62   H56   S    
C69   O22   A    
C34   H21   S    
C41   O15   A    
C90   H110  S    
C17   C85   S    
C10   O38   A    
C37   H20   S    
C99   H3    S    
C38   H65   S    
C65   H76   S    
C73   H99   S    
C87   C91   S    
C94   H114  S    
C123  H139  S    
C8    O5    A    
C97   H147  S    
C100  C104  S    
C85   H134  S    
C100  H124  S    
C46   H127  S    
C89   C106  S    
C52   O20   A    
C4    O56   A    
C119  O12   A    
C81   C86   S    
C6    O54   A    
C59   H70   S    
C60   H58   S    
C97   C105  S    
C124  H144  S    
C111  C124  S    
Cr7   O39   S    
C127  O41   A    
C59   H31   S    
C41   C49   S    
C100  H129  S    
C125  H145  S    
Cr1   O14   S    
C40   C58   S    
C102  H131  S    
C19   H72   S    
Cr1   O36   S    
C99   C116  S    
C117  O31   A    
C106  C127  S    
C17   C21   S    
Cr4   O8    S    
C32   H51   S    
Cr11  O55   S    
C15   C19   S    
C24   H11   S    
C110  C123  S    
Cr11  O26   S    
C7    O4    A    
C78   C82   S    
C16   C20   S    
C10   C111  S    
C28   H40   S    
C112  C125  S    
C44   H105  S    
C71   O25   A    
C57   H33   S    
C72   O30   A    
C33   H54   S    
Cr4   O13   S    
C120  O23   A    
Cr12  O56   S    
C42   H27   S    
C25   C107  S    
C30   O51   S    
C11   C112  S    
C67   H78   S    
C7    O55   A    
C43   H94   S    
C116  H7    S    
C37   H25   S    
C87   H107  S    
C9    C110  S    
C95   H146  S    
Cr2   O6    S    
C98   C106  S    
C113  H4    S    
Cr3   O3    S    
C30   H47   S    
C66   H73   S    
C76   H101  S    
C39   H29   S    
C5    C82   S    
C65   C82   S    
C56   H67   S    
Cr1   O9    S    
C16   H92   S    
C18   H61   S    
C32   O52   S    
C14   H90   S    
C14   C21   S    
Cr8   O18   S    
C48   C52   S    
Cr11  O48   S    
C99   H117  S    
Cr10  O54   S    
C75   H98   S    
C108  C126  S    
C43   C47   S    
C24   H16   S    
C34   C118  S    
C55   C121  S    
C80   H96   S    
C42   H64   S    
C27   H38   S    
C61   H59   S    
C88   H103  S    
C124  H140  S    
C12   H89   S    
Cr7   O34   S    
C99   C108  S    
C115  H6    S    
C34   C51   S    
Cr2   O10   S    
C8    O36   A    
C66   H77   S    
Cr5   O41   S    
C15   C25   S    
C40   C49   S    
C12   C22   S    
C45   C62   S    
C22   C85   S    
C68   H75   S    
C53   C61   S    
C36   H23   S    
Cr5   O10   S    
C110  C114  S    
Cr10  O20   S    
C20   C96   S    
C4    O45   A    
C2    H14   S    
C98   H115  S    
C92   H112  S    
C24   C50   S    
Cr2   O28   S    
C29   H42   S    
C30   H45   S    
Cr4   O30   S    
Cr8   O44   S    
Cr12  O5    S    
Cr5   O37   S    
Cr9   O53   S    
Cr12  O27   S    
C21   C69   S    
C88   H108  S    
C26   H36   S    
C24   C37   S    
C73   C79   S    
C118  H12   S    
C42   C50   S    
C63   O21   A    
C125  H141  S    
C16   C23   S    
C1    O14   A    
Cr1   O40   S    
C112  C116  S    
Cr8   O9    S    
C58   H69   S    
C126  O44   A    
C18   C22   S    
C114  H5    S    
C9    O37   A    
C42   C59   S    
C94   O52   S    
Cr12  O9    S    
C44   C61   S    
C6    C86   S    
C90   C108  S    
Cr9   O24   S    
C71   O29   A    
C88   C105  S    
C72   O26   A    
C98   C115  S    
C94   C112  S    
C51   C117  S    
Cr5   O12   S    
C81   H97   S    
C113  H122  S    
C74   C85   S    
C89   C93   S    
Cr8   O45   S    
C103  C125  S    
Cr11  O13   S    
C36   C54   S    
C37   C55   S    
C34   H17   S    
C44   C48   S    
C38   C56   S    
C67   H74   S    
C51   C60   S    
C97   C114  S    
C22   C70   S    
C19   C107  S    
C2    C35   S    
C95   H118  S    
Cr10  O47   S    
C29   H44   S    
C69   O27   A    
C70   O28   A    
C80   C84   S    
C5    O2    A    
C76   C84   S    
C91   H111  S    
C38   H28   S    
C57   H68   S    
C97   H119  S    
C26   C27   S    
C89   H109  S    
C28   C29   S    
C27   H39   S    
C13   H10   S    
C26   O49   S    
C47   C63   S    
C30   C31   S    
C93   H113  S    
C20   C25   S    
C26   H34   S    
C39   H66   S    
C119  O32   A    
C32   H52   S    
C17   H1    S    
C14   C18   S    
C116  H121  S    
C36   H19   S    
C66   C83   S    
C121  O35   A    
C47   C118  S    
C12   C17   S    
C81   H87   S    
C1    C50   S    
Cr9   O19   S    
Cr6   O23   S    
C117  O1    A    
C33   H53   S    
C128  O42   A    
C64   H57   S    
C56   H32   S    
Cr5   O15   S    
Cr3   O11   S    
C102  C124  S    
C70   O24   A    
C90   C94   S    
C67   C68   S    
C23   C71   S    
C68   H79   S    
C53   C57   S    
C87   H102  S    
C54   C62   S    
C2    C48   S    
C73   H80   S    
C93   O51   S    
C114  H123  S    
C77   H84   S    
C120  O33   A    
Cr11  O21   S    
C45   C49   S    
C89   H104  S    
C103  H128  S    
C80   H88   S    
C107  H136  S    
C122  H142  S    
C93   C111  S    
C96   C107  S    
Cr2   O32   S    
Cr6   O42   S    
Cr3   O29   S    
C45   H13   S    
C73   C82   S    
Cr10  O25   S    
C6    O3    A    
C1    O18   A    
C77   C80   S    
Cr12  O31   S    
C101  H125  S    
C27   H37   S    
C3    O43   A    
C31   H49   S    
C74   H133  S    
C115  H120  S    
C32   C33   S    
C118  H8    S    
C35   H18   S    
C62   H60   S    
C79   C83   S    
C75   C83   S    
C4    C83   S    
C90   H106  S    
C31   H50   S    
C20   H83   S    
Cr6   O11   S    
C45   H116  S    
C28   O50   S    
C87   C104  S    
C33   H55   S    
C44   H2    S    
C126  O40   A    
Cr6   O38   S    
C60   H35   S    
Cr10  O11   S    
C39   C48   S    
C3    C104  S    
Cr4   O35   S    
C54   C120  S    
C68   C86   S    
C52   O16   A    
C19   C23   S    
C63   O17   A    
C92   C110  S    
C101  C123  S    
C58   H30   S    
Cr9   O46   S    
C109  C122  S    
C15   C16   S    
C39   C57   S    
C23   C96   S    
C51   C56   S    
C15   H91   S    
C13   H15   S    
C88   C92   S    
C31   H48   S    
Cr4   O4    S    
C103  C108  S    
C40   H26   S    
C109  C113  S    
C2    H9    S    
C7    C84   S    
Cr1   O1    S    
C67   C84   S    
C18   C74   S    
C46   H24   S    
Cr9   O10   S    
Cr6   O16   S    
Cr7   O13   S    
C9    O6    A    
C98   H148  S    
C101  C105  S    
C11   O8    A    
C35   H22   S    
C13   C36   S    
C76   H82   S    
C21   C74   S    
C41   O19   A    
C46   C64   S    
C28   H41   S    
C77   H100  S    
C40   H63   S    
C55   C64   S    
Cr2   O2    S    
Cr3   O7    S    
C25   C72   S    
C38   C47   S    
Cr3   O33   S    
C43   C60   S    
C13   C49   S    
C12   C14   S    
C77   C86   S    
C11   O39   A    
C122  H137  S    
C95   C104  S    
Cr7   O17   S    
C54   C58   S    
Cr8   O22   S    
C64   H62   S    
Cr7   O43   S    
C29   H43   S    
C105  C128  S    
C92   O50   S    
C76   C81   S    
C53   C119  S    
C101  H130  S    
C46   C50   S    
C91   O49   S    
C5    O53   A    
C103  H132  S    
C91   C109  S    
C123  H143  S    
C8    C109  S    
C43   H138  S    
C95   C113  S    
C78   H93   S    
C3    O48   A    
C61   H46   S    
C127  O46   A    
C102  C106  S    
C100  C122  S    
C75   C78   S    
C65   H71   S    
C121  O34   A    
C75   H81   S    
C65   C66   S    
C102  H126  S    
C96   H135  S    
C111  C115  S    
C79   H85   S    
C79   H95   S    
C10   O7    A    
