data_mof_unit_13506.cif
_audit_creation_date              2013-03-05T15:50:46-0500
_audit_creation_method            fapswitch 2.2
_symmetry_space_group_name_H-M    P1
_symmetry_Int_Tables_number       1
_space_group_crystal_system       triclinic
_cell_length_a                    14.336633
_cell_length_b                    14.749377
_cell_length_c                    33.259613
_cell_angle_alpha                 97.962535
_cell_angle_beta                  90.305771
_cell_angle_gamma                 118.90648
_cell_volume                      6076.1255495

loop_
_atom_site_label
_atom_site_type_symbol
_atom_site_description
_atom_site_fract_x
_atom_site_fract_y
_atom_site_fract_z
_atom_type_partial_charge
O1    O     O_R   0.318160 0.824460 0.443680 -0.524791
O2    O     O_R   0.525040 0.857250 0.449830 -0.517397
C1    C     C_R   0.616519 0.910230 0.436848 0.536818
O3    O     O_R   0.684760 0.998800 0.456360 -0.516787
O4    O     O_R   0.647540 0.166310 0.470260 -0.503884
C2    C     C_R   0.594042 0.205411 0.456634 0.528953
O5    O     O_R   0.500960 0.181750 0.467450 -0.532114
O6    O     O_R   0.331100 0.981120 0.457080 -0.493921
C3    C     C_R   0.337529 0.910232 0.431092 0.552799
O7    O     O_R   0.315560 0.821140 0.532010 -0.511624
O8    O     O_R   0.522630 0.854180 0.531710 -0.496285
C4    C     C_R   0.614040 0.904567 0.551358 0.551175
O9    O     O_R   0.682160 0.995480 0.544690 -0.526467
O10   O     O_R   0.645130 0.163230 0.552140 -0.501778
C5    C     C_R   0.590526 0.201029 0.571021 0.546087
O11   O     O_R   0.498360 0.178430 0.555780 -0.519622
O12   O     O_R   0.328690 0.978040 0.538950 -0.496272
C6    C     C_R   0.289494 0.887085 0.548697 0.557706
Cr1   Cr    Cr6+3 0.424820 0.846020 0.489780 1.004495
Cr2   Cr    Cr6+3 0.657880 0.078580 0.505700 0.996514
Cr3   Cr    Cr6+3 0.417280 0.075360 0.504550 1.007951
O13   O     O_3   0.499990 0.999990 0.500010 -0.246538
C7    C     C_R   0.737168 0.449169 0.105468 0.037379
C8    C     C_R   0.669405 0.464146 0.132783 -0.123337
C9    C     C_R   0.671960 0.447751 0.172704 -0.077456
C10   C     C_R   0.742116 0.415871 0.186259 0.052521
C11   C     C_R   0.804971 0.393691 0.158905 -0.081613
C12   C     C_R   0.803697 0.410181 0.118395 -0.004786
C13   C     C_R   0.718853 0.304429 0.238051 -0.143382
C14   C     C_R   0.705624 0.284487 0.278062 0.004036
C15   C     C_R   0.722284 0.366790 0.309549 -0.008948
C16   C     C_R   0.754584 0.467411 0.300963 -0.118545
C17   C     C_R   0.769076 0.487900 0.260979 0.214218
C18   C     C_R   0.747552 0.404247 0.229157 -0.007814
C19   C     C_R   0.602805 0.333082 0.365460 -0.122667
C20   C     C_R   0.571215 0.294215 0.401786 -0.139180
C21   C     C_R   0.737524 0.290772 0.410994 -0.127540
C22   C     C_R   0.768975 0.329802 0.374771 -0.120141
C23   C     C_R   0.699776 0.346901 0.351200 0.032898
C24   C     C_R   0.636304 0.268265 0.423870 0.019835
H1    H     H_    0.617459 0.493498 0.123915 0.134476
H2    H     H_    0.844401 0.341020 0.363953 0.108699
H3    H     H_    0.701937 0.240867 0.213383 0.114899
H4    H     H_    0.620925 0.462456 0.193417 0.127477
H5    H     H_    0.768386 0.529941 0.325622 0.153928
H6    H     H_    0.549026 0.346443 0.347281 0.113057
H7    H     H_    0.493251 0.278408 0.411149 0.124168
H8    H     H_    0.857157 0.366445 0.169597 0.106620
H9    H     H_    0.789924 0.272636 0.427631 0.125404
H10   H     H_    0.196228 0.736790 0.097242 0.124565
H11   H     H_    0.273712 0.791653 0.167848 0.106031
H12   H     H_    0.191821 0.745417 0.296031 0.122746
C25   C     C_R   0.308211 0.905698 0.387491 0.030410
C26   C     C_R   0.345585 0.002250 0.373326 -0.145856
C27   C     C_R   0.328907 0.006280 0.332385 -0.125917
C28   C     C_R   0.273869 0.913604 0.304640 0.026440
C29   C     C_R   0.234917 0.816812 0.317968 -0.080319
C30   C     C_R   0.251365 0.811036 0.359069 -0.005324
C31   C     C_R   0.229564 0.826962 0.156848 -0.107138
C32   C     C_R   0.185259 0.795788 0.116564 -0.119380
C33   C     C_R   0.109019 0.911385 0.128281 -0.122730
C34   C     C_R   0.152825 0.941917 0.168797 -0.100526
C35   C     C_R   0.210468 0.897298 0.183427 0.045229
C36   C     C_1   0.237862 0.911785 0.226406 -0.014867
C37   C     C_1   0.256228 0.916115 0.262249 -0.020057
C38   C     C_R   0.121181 0.834686 0.102275 0.023343
H13   H     H_    0.389990 0.075494 0.393994 0.133735
H14   H     H_    0.136941 0.995928 0.189187 0.111277
H15   H     H_    0.059550 0.942161 0.118215 0.118730
H16   H     H_    0.359625 0.081759 0.322377 0.112259
H17   H     H_    0.881270 0.938558 0.125592 0.122196
H18   H     H_    0.853252 0.963630 0.197547 0.116572
H19   H     H_    0.820846 0.979026 0.326570 0.114304
H20   H     H_    0.802311 0.000036 0.399854 0.128547
C39   C     C_R   0.635460 0.879362 0.394921 0.019484
C40   C     C_R   0.549407 0.802077 0.367768 -0.129621
C41   C     C_R   0.560230 0.791117 0.325960 -0.106760
C42   C     C_R   0.657237 0.856516 0.311026 0.053392
C43   C     C_R   0.745287 0.928520 0.337963 -0.100689
C44   C     C_R   0.734641 0.939851 0.379732 -0.122935
C45   C     C_R   0.785300 0.911070 0.175938 -0.109832
C46   C     C_R   0.800775 0.896960 0.134768 -0.133095
C47   C     C_R   0.611172 0.770297 0.119707 -0.008869
C48   C     C_R   0.596947 0.785744 0.161334 -0.091205
C49   C     C_R   0.684396 0.852564 0.189362 0.028794
C50   C     C_1   0.672765 0.854330 0.232131 -0.014095
C51   C     C_1   0.665012 0.854563 0.268070 -0.005002
C52   C     C_R   0.715737 0.822832 0.106497 0.036427
H21   H     H_    0.471901 0.754774 0.378480 0.120941
H22   H     H_    0.518562 0.742206 0.172175 0.105393
H23   H     H_    0.491781 0.734864 0.305222 0.109424
H24   H     H_    0.846014 0.391042 0.904834 0.131761
H25   H     H_    0.792677 0.281394 0.694521 0.121516
C53   C     C_R   0.625973 0.256387 0.614195 0.041215
C54   C     C_R   0.561602 0.291237 0.636992 -0.017374
C55   C     C_R   0.576352 0.311711 0.679627 -0.099346
C56   C     C_R   0.655463 0.302250 0.699861 0.014136
C57   C     C_R   0.728311 0.283356 0.678059 -0.080870
C58   C     C_R   0.716512 0.262539 0.635402 -0.015233
C59   C     C_R   0.762545 0.342550 0.845328 0.011196
C60   C     C_R   0.771319 0.368567 0.887852 -0.104132
C61   C     C_R   0.591965 0.345556 0.885545 -0.109075
C62   C     C_R   0.582250 0.318791 0.843313 -0.085253
C63   C     C_R   0.668513 0.321518 0.823035 0.052745
C64   C     C_1   0.663119 0.312965 0.779513 0.005705
C65   C     C_1   0.659966 0.308673 0.743201 -0.005768
C66   C     C_R   0.688607 0.375945 0.907992 -0.002374
H26   H     H_    0.509567 0.302075 0.826261 0.176304
H27   H     H_    0.526789 0.350309 0.900158 0.166890
H28   H     H_    0.523617 0.331805 0.697269 0.129015
C67   C     C_R   0.074941 0.757664 0.909947 -0.021343
C68   C     C_R   0.113259 0.858205 0.899875 -0.121896
C69   C     C_R   0.149185 0.879190 0.861416 0.211345
C70   C     C_R   0.142288 0.796052 0.832283 0.013362
C71   C     C_R   0.110862 0.697737 0.843554 -0.157764
C72   C     C_R   0.078128 0.678838 0.882182 -0.129275
C73   C     C_R   0.213832 0.771255 0.766008 -0.069338
C74   C     C_R   0.217286 0.774049 0.724110 0.013931
C75   C     C_R   0.155251 0.809815 0.705051 0.037269
C76   C     C_R   0.092194 0.842220 0.728071 -0.122096
C77   C     C_R   0.089880 0.839239 0.769558 -0.070790
C78   C     C_R   0.150997 0.804507 0.788810 0.052414
C79   C     C_R   0.211314 0.928075 0.653660 -0.109106
C80   C     C_R   0.242666 0.947347 0.614859 -0.123225
C81   C     C_R   0.172530 0.760678 0.592488 -0.125176
C82   C     C_R   0.139826 0.741406 0.631194 -0.126157
C83   C     C_R   0.165061 0.825680 0.662433 0.025901
C84   C     C_R   0.228981 0.864285 0.584725 0.023623
H29   H     H_    0.113860 0.920035 0.921849 0.160745
H30   H     H_    0.048575 0.600504 0.889293 0.142400
H31   H     H_    0.101126 0.661647 0.637440 0.108359
H32   H     H_    0.260687 0.744072 0.781065 0.130772
H33   H     H_    0.045669 0.871057 0.713896 0.109868
H34   H     H_    0.040573 0.864385 0.786783 0.123006
H35   H     H_    0.230206 0.993742 0.677561 0.132623
H36   H     H_    0.285745 0.027884 0.609578 0.126905
H37   H     H_    0.104783 0.633270 0.821536 0.122785
H38   H     H_    0.159719 0.695326 0.569435 0.124136
C85   C     C_R   0.711191 0.707256 0.901500 -0.039137
C86   C     C_R   0.611488 0.630050 0.882179 -0.120692
C87   C     C_R   0.584338 0.626963 0.841093 0.205775
C88   C     C_R   0.660310 0.702558 0.819258 0.019270
C89   C     C_R   0.763223 0.775783 0.838120 -0.035299
C90   C     C_R   0.787622 0.776521 0.878757 -0.112789
C91   C     C_R   0.615533 0.792454 0.771588 -0.079332
C92   C     C_R   0.614140 0.818152 0.732713 0.208640
C93   C     C_R   0.631816 0.759018 0.699233 0.000276
C94   C     C_R   0.644087 0.672744 0.705086 -0.165413
C95   C     C_R   0.646311 0.649055 0.744120 -0.096273
C96   C     C_R   0.634555 0.710541 0.777497 0.040992
C97   C     C_R   0.562835 0.721739 0.627012 -0.106456
C98   C     C_R   0.559088 0.757392 0.590731 -0.119616
C99   C     C_R   0.718157 0.923048 0.615496 -0.109031
C100  C     C_R   0.721699 0.887237 0.651895 -0.065996
C101  C     C_R   0.641137 0.788312 0.658405 0.062229
C102  C     C_R   0.633811 0.860144 0.585383 0.025058
H39   H     H_    0.553382 0.574317 0.899430 0.170199
H40   H     H_    0.866522 0.833313 0.893091 0.150468
H41   H     H_    0.783409 0.938858 0.675920 0.119015
H42   H     H_    0.606203 0.839075 0.797793 0.158390
H43   H     H_    0.656802 0.626725 0.679604 0.116094
H44   H     H_    0.662274 0.586287 0.748568 0.123980
H45   H     H_    0.500759 0.644886 0.631583 0.109013
H46   H     H_    0.493961 0.706476 0.567805 0.122461
H47   H     H_    0.777366 0.001954 0.612045 0.114421
O14   O     O_R   0.828710 0.851830 0.052170 -0.514361
O15   O     O_R   0.005980 0.823990 0.047210 -0.499112
C103  C     C_R   0.053349 0.782116 0.063545 0.548358
O16   O     O_R   0.031900 0.688850 0.050170 -0.514095
O17   O     O_R   0.830940 0.518420 0.048680 -0.496120
C104  C     C_R   0.743745 0.486084 0.066013 0.549333
O18   O     O_R   0.668160 0.499860 0.053480 -0.519062
O19   O     O_R   0.689170 0.693840 0.050110 -0.494061
C105  C     C_R   0.742335 0.789878 0.066175 0.553561
O20   O     O_R   0.803860 0.812940 0.962540 -0.501979
O21   O     O_R   0.982950 0.787950 0.964120 -0.521324
C106  C     C_R   0.021859 0.732162 0.947493 0.539087
O22   O     O_R   0.007050 0.649970 0.960540 -0.512469
O23   O     O_R   0.807910 0.482370 0.965590 -0.506447
C107  C     C_R   0.712020 0.437068 0.949351 0.532490
O24   O     O_R   0.643310 0.460980 0.963840 -0.518012
O25   O     O_R   0.666140 0.657800 0.967020 -0.496679
C108  C     C_R   0.739566 0.717716 0.945179 0.560651
Cr4   Cr    Cr6+3 0.903360 0.812540 0.006510 1.021686
Cr5   Cr    Cr6+3 0.914630 0.587050 0.006280 1.008071
Cr6   Cr    Cr6+3 0.673560 0.582680 0.008540 1.019392
O26   O     O_3   0.830520 0.660760 0.007110 -0.258792
C109  C     C_3   0.206027 0.703704 0.371143 -0.377566
H48   H     H_    0.271733 0.690771 0.381504 0.143179
H49   H     H_    0.151671 0.696029 0.395671 0.162696
H50   H     H_    0.158801 0.640276 0.345235 0.111563
C110  C     C_3   0.873443 0.385950 0.090154 -0.379597
H51   H     H_    0.941808 0.459868 0.083619 0.165072
H52   H     H_    0.906804 0.342041 0.103842 0.112107
H53   H     H_    0.825904 0.336687 0.061324 0.136449
C111  C     C_3   0.514884 0.696242 0.090584 -0.384024
H54   H     H_    0.515773 0.732011 0.063224 0.140778
H55   H     H_    0.514502 0.620808 0.081405 0.157941
H56   H     H_    0.439250 0.678786 0.104787 0.109922
C112  C     C_3   0.855691 0.343833 0.824104 -0.388047
H57   H     H_    0.922932 0.361288 0.846161 0.131444
H58   H     H_    0.829913 0.266023 0.805313 0.169270
H59   H     H_    0.885420 0.404908 0.804105 0.127037
C113  C     C_3   0.801122 0.245899 0.614219 -0.376509
H60   H     H_    0.872903 0.271583 0.635270 0.105566
H61   H     H_    0.769564 0.161488 0.602513 0.178197
H62   H     H_    0.828160 0.292779 0.589064 0.134338
C114  C     C_3   0.476040 0.306581 0.617430 -0.381449
H63   H     H_    0.451886 0.354427 0.639092 0.115666
H64   H     H_    0.506535 0.349238 0.591279 0.143519
H65   H     H_    0.403505 0.229663 0.607353 0.156344
C115  C     C_3   0.668832 0.174674 0.286378 -0.385800
H66   H     H_    0.655516 0.119178 0.257929 0.124083
H67   H     H_    0.730144 0.174372 0.306781 0.134909
H68   H     H_    0.592382 0.145566 0.301082 0.144334
C116  C     C_3   0.289824 0.742432 0.700878 -0.355422
H69   H     H_    0.341282 0.804368 0.683119 0.202896
H70   H     H_    0.342801 0.730737 0.721581 0.163804
H71   H     H_    0.241465 0.667628 0.679827 0.111386
N1    N     N_R   0.191038 0.983935 0.852292 0.068807
O27   O     O_R   0.161849 0.047803 0.871677 -0.347218
O28   O     O_R   0.266721 0.019681 0.827804 -0.308957
N2    N     N_R   0.597035 0.905013 0.728138 0.067028
O29   O     O_R   0.549598 0.905739 0.694832 -0.352854
O30   O     O_R   0.620061 0.979642 0.758793 -0.343001
N3    N     N_R   0.479742 0.548287 0.822686 0.077166
O31   O     O_R   0.427051 0.461330 0.837353 -0.344195
O32   O     O_R   0.432830 0.565466 0.793380 -0.335941
C117  C     C_3   0.847435 0.855013 0.815505 -0.393042
H72   H     H_    0.925747 0.900402 0.833857 0.158540
H73   H     H_    0.858488 0.814097 0.786872 0.124532
H74   H     H_    0.822502 0.911590 0.808032 0.156470
N4    N     N_R   0.805388 0.593090 0.253232 0.072176
O33   O     O_R   0.867705 0.628614 0.224316 -0.329393
O34   O     O_R   0.785926 0.657566 0.277816 -0.350154

loop_
_geom_bond_atom_site_label_1
_geom_bond_atom_site_label_2
_geom_bond_distance
_ccdc_geom_bond_type
C11   H8    1.084042 S    
C42   C51   1.431011 S    
C104  O18   1.273108 A    
C39   C40   1.407240 A    
C60   C66   1.407030 A    
C82   C83   1.399592 A    
C58   C113  1.508994 S    
C16   H5    1.083827 S    
C54   C55   1.401136 A    
C116  H71   1.108825 S    
C27   C28   1.393786 A    
C5    C53   1.501035 S    
N1    O28   1.301533 A    
C45   C46   1.391547 A    
C17   N4    1.440788 S    
C79   C80   1.390180 A    
O4    Cr2   1.921413 S    
C41   C42   1.398049 A    
C76   C77   1.386676 A    
C4    O9    1.272662 A    
O8    Cr1   1.922274 S    
C10   C11   1.399311 A    
C117  H72   1.110890 S    
C109  H50   1.110956 S    
O4    C2    1.273803 A    
C94   H43   1.083555 S    
C82   H31   1.082978 S    
C103  O16   1.266817 A    
C21   C22   1.390372 A    
C116  H70   1.111167 S    
C22   H2    1.083442 S    
C117  H74   1.109414 S    
C112  H59   1.110596 S    
C14   C115  1.509241 S    
C22   C23   1.396716 A    
C66   C107  1.475333 S    
Cr5   O26   1.973890 S    
O17   C104  1.276712 A    
C89   C90   1.391549 A    
C59   C63   1.408790 A    
C52   C105  1.477915 S    
C28   C29   1.397758 A    
O17   Cr5   1.921540 S    
C20   H7    1.082847 S    
C109  H49   1.110265 S    
C76   H33   1.083757 S    
O25   Cr6   1.918901 S    
C47   C111  1.507257 S    
C73   H32   1.084043 S    
O25   C108  1.305178 A    
N1    O27   1.301500 A    
C69   C70   1.415946 A    
C6    C84   1.463637 S    
C74   C75   1.418203 A    
O22   Cr5   2.038397 S    
C95   C96   1.397852 A    
C33   C38   1.406941 A    
C10   C18   1.466518 S    
C88   C89   1.413780 A    
C93   C94   1.404554 A    
O18   Cr6   2.036640 S    
C112  H57   1.110835 S    
C81   C84   1.404557 A    
C7    C8    1.406868 A    
C115  H68   1.110730 S    
C8    C9    1.385538 A    
C62   H26   1.083894 S    
C97   C101  1.397262 A    
C77   H34   1.079072 S    
C93   C101  1.468725 S    
N4    O33   1.301504 A    
C69   N1    1.440323 S    
H18   C45   1.083807 S    
O9    Cr2   2.037921 S    
C40   H21   1.082581 S    
C80   C84   1.403299 A    
H17   C46   1.082812 S    
C47   C52   1.420961 A    
C97   C98   1.392104 A    
C32   C38   1.406909 A    
C31   C32   1.395678 A    
C115  H66   1.110947 S    
H20   C44   1.083056 S    
Cr3   O13   1.973438 S    
C13   H3    1.084370 S    
C8    H1    1.083413 S    
C61   C62   1.392614 A    
C48   H22   1.084451 S    
C4    C102  1.473715 S    
C111  H56   1.111073 S    
C12   C110  1.507424 S    
C9    H4    1.083682 S    
C63   C64   1.433868 S    
C56   C57   1.388436 A    
H11   C31   1.083815 S    
C40   C41   1.395741 A    
O19   Cr6   1.914083 S    
O1    Cr1   2.039635 S    
O14   C105  1.271037 A    
C80   H36   1.083052 S    
C30   C109  1.507998 S    
C110  H53   1.110474 S    
C98   C102  1.408270 A    
C20   C24   1.404520 A    
Cr1   O13   1.962246 S    
O1    C3    1.288878 A    
C86   C87   1.407417 A    
N2    O29   1.300790 A    
C111  H55   1.109556 S    
C114  H63   1.111322 S    
O15   C103  1.277621 A    
C91   H42   1.083737 S    
C50   C51   1.200762 T    
O6    C3    1.300940 A    
C26   H13   1.081470 S    
C9    C10   1.395392 A    
C25   C26   1.409954 A    
C55   H28   1.084853 S    
C13   C18   1.400232 A    
O12   Cr3   1.921086 S    
C43   C44   1.394191 A    
C79   H35   1.083583 S    
C109  H48   1.109485 S    
C99   C102  1.403979 A    
C19   C20   1.392904 A    
C110  H52   1.110958 S    
C19   C23   1.399683 A    
C73   C78   1.399475 A    
C71   H37   1.083642 S    
C13   C14   1.396636 A    
O10   Cr2   1.915032 S    
C86   H39   1.082892 S    
C21   H9    1.083023 S    
C85   C90   1.399026 A    
C79   C83   1.400599 A    
C47   C48   1.403889 A    
C113  H62   1.110398 S    
O7    Cr1   2.042467 S    
C85   C86   1.402409 A    
C116  H69   1.109182 S    
C55   C56   1.389106 A    
O24   Cr6   2.030164 S    
C34   C35   1.401084 A    
N2    O30   1.301648 A    
O12   C6    1.270515 A    
H19   C43   1.083698 S    
O14   Cr4   2.039752 S    
C61   C66   1.404920 A    
N3    O31   1.301613 A    
C7    C12   1.421141 A    
C48   C49   1.396618 A    
C75   C76   1.398447 A    
N4    O34   1.301649 A    
C100  C101  1.403842 A    
C49   C50   1.431226 S    
C98   H46   1.083070 S    
O23   C107  1.277549 A    
H24   C60   1.083592 S    
Cr6   O26   1.975659 S    
C56   C65   1.430452 S    
C59   C112  1.507072 S    
C114  H64   1.110508 S    
O21   C106  1.270832 A    
C113  H61   1.107062 S    
C57   C58   1.400806 A    
C53   C54   1.431385 A    
C97   H45   1.083493 S    
C81   C82   1.391688 A    
C68   H29   1.083308 S    
C2    C24   1.468990 S    
C3    C25   1.491143 S    
C28   C37   1.439767 S    
C90   H40   1.084457 S    
C1    O3    1.267927 A    
C91   C92   1.399501 A    
C62   C63   1.397964 A    
C85   C108  1.473298 S    
C107  O24   1.273128 A    
O20   C108  1.293725 A    
C92   C93   1.418648 A    
C39   C44   1.406820 A    
C33   H15   1.082561 S    
C54   C114  1.509928 S    
O21   Cr4   1.922728 S    
C26   C27   1.395534 A    
C41   H23   1.083620 S    
C67   C106  1.464118 S    
C67   C68   1.401809 A    
C99   H47   1.082208 S    
O2    Cr1   1.925787 S    
C42   C43   1.397252 A    
C15   C16   1.397472 A    
C91   C96   1.398717 A    
Cr2   O13   1.975189 S    
C111  H54   1.110503 S    
O6    Cr3   1.913686 S    
C25   C30   1.425907 A    
C77   C78   1.399642 A    
O11   Cr3   2.029372 S    
C70   C71   1.402516 A    
C2    O5    1.273468 A    
O23   Cr5   1.916113 S    
O3    Cr2   2.033784 S    
C34   H14   1.083404 S    
C81   H38   1.083214 S    
C21   C24   1.407032 A    
C64   C65   1.200048 T    
C31   C35   1.398467 A    
Cr4   O26   1.963424 S    
C38   C103  1.478911 S    
C87   N3    1.442620 S    
C67   C72   1.400328 A    
H10   C32   1.083224 S    
C16   C17   1.398776 A    
C88   C96   1.470118 S    
O2    C1    1.275075 A    
C1    C39   1.474198 S    
O16   Cr5   2.034226 S    
C100  H41   1.083338 S    
C117  H73   1.109532 S    
O5    Cr3   2.038738 S    
C87   C88   1.419731 A    
C110  H51   1.109680 S    
C92   N2    1.442895 S    
C29   C30   1.407043 A    
C14   C15   1.411454 A    
C53   C58   1.431516 A    
O7    C6    1.264035 A    
C114  H65   1.109591 S    
C46   C52   1.407178 A    
C36   C37   1.205756 T    
C59   C60   1.401586 A    
C89   C117  1.509379 S    
C17   C18   1.415756 A    
C68   C69   1.399940 A    
C94   C95   1.394496 A    
C33   C34   1.400910 A    
C27   H16   1.083680 S    
H12   C29   1.084570 S    
C115  H67   1.109676 S    
O19   C105  1.270876 A    
C35   C36   1.439265 S    
C70   C78   1.469222 S    
C72   H30   1.083454 S    
C113  H60   1.111160 S    
C112  H58   1.110434 S    
C106  O22   1.265262 A    
C11   C12   1.403452 A    
C15   C23   1.461175 S    
O10   C5    1.283817 A    
C61   H27   1.083047 S    
C74   C116  1.507837 S    
C95   H44   1.083393 S    
C71   C72   1.388424 A    
C99   C100  1.396271 A    
C73   C74   1.400255 A    
C19   H6    1.083418 S    
H25   C57   1.084881 S    
O15   Cr4   1.923705 S    
C45   C49   1.394106 A    
N3    O32   1.301063 A    
C5    O11   1.278389 A    
O8    C4    1.269462 A    
O20   Cr4   2.040067 S    
C7    C104  1.475457 S    
C75   C83   1.464913 S    
