data_mof_unit_12163.cif
_audit_creation_date              2012-12-10T18:58:13-0500
_audit_creation_method            fapswitch 2.2
_symmetry_space_group_name_H-M    P1
_symmetry_Int_Tables_number       1
_space_group_crystal_system       triclinic
_cell_length_a                    11.058732
_cell_length_b                    10.898183
_cell_length_c                    9.640798
_cell_angle_alpha                 88.962299
_cell_angle_beta                  102.230113
_cell_angle_gamma                 93.462028
_cell_volume                      1133.4507365

loop_
_atom_site_label
_atom_site_type_symbol
_atom_type_description
_atom_site_fract_x
_atom_site_fract_y
_atom_site_fract_z
_atom_type_partial_charge
C1    C     C_R   0.500419 0.262360 0.501198 0.845701
C2    C     C_R   0.506803 0.128925 0.502699 -0.096498
C3    C     C_R   0.520104 0.067242 0.379010 -0.127889
C4    C     C_R   0.521894 0.938488 0.376675 -0.186150
C5    C     C_R   0.518739 0.869538 0.500860 -0.077585
C6    C     C_R   0.522958 0.934014 0.624052 0.103473
C7    C     C_3   0.516920 0.912612 0.774862 -0.547022
C8    C     C_3   0.491257 0.050092 0.776014 -0.109927
C9    C     C_R   0.579345 0.578227 0.090721 0.228289
C10   C     C_R   0.412363 0.432304 0.055260 0.033975
C11   C     C_R   0.407708 0.437736 0.905821 0.010139
C12   C     C_R   0.263187 0.504660 0.442134 0.827152
C13   C     C_R   0.580349 0.576963 0.944464 0.221388
C14   C     C_3   0.717843 0.581066 0.971459 -0.448032
C15   C     C_3   0.717199 0.581208 0.128448 -0.496301
C16   C     C_R   0.506720 0.736897 0.500406 0.797770
C17   C     C_R   0.736964 0.502879 0.557927 0.838741
C18   C     C_2   0.128183 0.514626 0.408702 -0.173607
C19   C     C_2   0.068531 0.528454 0.514865 -0.222835
C20   C     C_2   0.872171 0.507967 0.591369 -0.316995
C21   C     C_2   0.934298 0.535925 0.489675 -0.111120
C22   C     C_R   0.506295 0.056209 0.623687 0.067290
Cu1   Cu    Cu3+1 0.499990 0.499980 0.640670 0.994419
Cu2   Cu    Cu3+1 0.500010 0.500020 0.359330 0.999543
H1    H     H_    0.753734 0.496058 0.937288 0.220446
H2    H     H_    0.757346 0.668517 0.933786 0.206605
H3    H     H_    0.119613 0.534560 0.623719 0.214520
H4    H     H_    0.528197 0.117298 0.283415 0.231408
H5    H     H_    0.437932 0.847615 0.786200 0.210838
H6    H     H_    0.607944 0.887967 0.839807 0.211224
N1    N     N_R   0.500780 0.500930 0.148120 -0.242870
N2    N     N_R   0.500790 0.500890 0.852210 -0.227420
O1    O     O_R   0.500000 0.319640 0.618810 -0.541450
O2    O     O_R   0.500010 0.319680 0.381230 -0.577464
O3    O     O_R   0.320680 0.500000 0.575130 -0.574497
O4    O     O_R   0.320690 0.500040 0.337550 -0.550540
O5    O     O_R   0.499990 0.680320 0.618770 -0.587137
O6    O     O_R   0.500000 0.680360 0.381190 -0.585631
O7    O     O_R   0.679310 0.499960 0.662450 -0.585909
O8    O     O_R   0.679320 0.500000 0.424870 -0.586542
H7    H     H_    0.885018 0.560937 0.384933 0.178145
C23   C     C_2   0.590114 0.127905 0.874848 0.872618
O9    O     O_2   0.698781 0.125143 0.866374 -0.591669
O10   O     O_R   0.557951 0.203280 0.975376 -0.733841
H8    H     H_    0.632148 0.251363 0.033831 0.328276
C24   C     C_2   0.330365 0.339759 0.109385 0.944607
O11   O     O_2   0.365243 0.236618 0.138170 -0.569679
O12   O     O_R   0.209125 0.365278 0.112803 -0.706174
H9    H     H_    0.161183 0.291920 0.145271 0.339315
C25   C     C_2   0.298030 0.376051 0.812423 0.875167
O13   O     O_2   0.310007 0.304786 0.721668 -0.544352
O14   O     O_R   0.179265 0.396497 0.832131 -0.762755
H10   H     H_    0.112160 0.344530 0.767212 0.338242
H11   H     H_    0.750221 0.495045 0.182520 0.238249
H12   H     H_    0.758120 0.668001 0.182278 0.200022
H13   H     H_    0.920795 0.486577 0.698515 0.178860
C26   C     C_2   0.061074 0.507646 0.258518 0.904240
O15   O     O_2   0.088017 0.582061 0.171917 -0.541069
O16   O     O_R   0.969927 0.413500 0.215884 -0.766095
H14   H     H_    0.935234 0.414478 0.109784 0.339013
H15   H     H_    0.524874 0.893754 0.278134 0.181403
C27   C     C_2   0.359513 0.060748 0.794082 0.921612
O17   O     O_2   0.274099 0.063324 0.690088 -0.556757
O18   O     O_R   0.334207 0.055322 0.930046 -0.704861
H16   H     H_    0.242648 0.059739 0.928709 0.347981

loop_
_geom_bond_atom_site_label_1
_geom_bond_atom_site_label_2
_ccdc_geom_bond_type
C2    C22   A    
C8    C22   S    
Cu1   Cu2   S    
C10   C24   S    
C27   O17   D    
C7    H5    S    
C12   O4    A    
C19   H3    S    
C18   C26   S    
Cu2   O6    S    
C16   O5    A    
C20   H13   S    
O18   H16   S    
C14   H2    S    
C2    C3    A    
C9    C15   S    
Cu2   N1    S    
C1    O1    A    
O16   H14   S    
C7    H6    S    
Cu1   O5    S    
C13   C14   S    
O14   H10   S    
C12   O3    A    
C26   O15   D    
Cu2   O4    S    
C23   O10   S    
C21   H7    S    
C4    H15   S    
O12   H9    S    
Cu2   O8    S    
C8    C23   S    
C1    O2    A    
C25   O13   D    
C6    C7    S    
Cu1   O3    S    
C8    C27   S    
C14   H1    S    
C17   O7    A    
C5    C6    A    
C24   O12   S    
C26   O16   S    
C3    H4    S    
C23   O9    D    
C9    N1    A    
C3    C4    A    
C6    C22   A    
C15   H11   S    
C7    C8    S    
C17   C20   S    
C20   C21   D    
Cu1   O1    S    
C1    C2    S    
C10   C11   A    
C12   C18   S    
C25   O14   S    
C11   C25   S    
C9    C13   A    
C24   O11   D    
C18   C19   D    
C5    C16   S    
C27   O18   S    
C13   N2    A    
C19   C21   S    
C14   C15   S    
C10   N1    A    
Cu1   O7    S    
Cu2   O2    S    
O10   H8    S    
Cu1   N2    S    
C16   O6    A    
C4    C5    A    
C11   N2    A    
C17   O8    A    
C15   H12   S    
