data_mof_unit_45424.cif
_audit_creation_date              2013-03-05T16:33:13-0500
_audit_creation_method            fapswitch 2.2
_symmetry_space_group_name_H-M    P1
_symmetry_Int_Tables_number       1
_space_group_crystal_system       triclinic
_cell_length_a                    27.814385
_cell_length_b                    10.833777
_cell_length_c                    9.532366
_cell_angle_alpha                 89.974152
_cell_angle_beta                  90.025084
_cell_angle_gamma                 90.492743
_cell_volume                      2872.32724179

loop_
_atom_site_label
_atom_site_type_symbol
_atom_site_description
_atom_site_fract_x
_atom_site_fract_y
_atom_site_fract_z
_atom_type_partial_charge
O1    O     O_R   0.500000 0.319640 0.618810 -0.585781
O2    O     O_R   0.500010 0.319680 0.381230 -0.569083
C1    C     C_R   0.501152 0.262426 0.499623 0.807759
O3    O     O_R   0.430260 0.500000 0.618780 -0.530197
O4    O     O_R   0.430270 0.500040 0.381190 -0.606216
C2    C     C_R   0.407327 0.499922 0.499889 0.829968
Cu1   Cu    Cu3+1 0.500000 0.499980 0.640670 0.955844
Cu2   Cu    Cu3+1 0.500000 0.500020 0.359330 0.945756
O5    O     O_R   0.499990 0.680320 0.618770 -0.579468
O6    O     O_R   0.500000 0.680360 0.381190 -0.590302
O7    O     O_R   0.569730 0.499960 0.618810 -0.590128
O8    O     O_R   0.569740 0.500000 0.381220 -0.579142
C3    C     C_R   0.500308 0.737522 0.499686 0.796663
C4    C     C_R   0.592523 0.498641 0.499988 0.801707
C5    C     C_R   0.177682 0.398659 0.453312 0.542647
O9    O     O_2   0.202473 0.293301 0.434976 -0.519369
N1    N     N_R   0.201798 0.506903 0.476347 -0.475813
C6    C     C_R   0.178131 0.615701 0.494568 0.579337
C7    C     C_R   0.280405 0.518306 0.361498 -0.107147
C8    C     C_R   0.330363 0.515927 0.368362 -0.307457
C9    C     C_R   0.326489 0.487800 0.621765 0.377843
C10   C     C_R   0.276012 0.490777 0.613044 -0.206514
C11   C     C_R   0.253207 0.505887 0.483644 0.322910
C12   C     C_R   0.101704 0.506856 0.469616 -0.119713
C13   C     C_R   0.127335 0.396483 0.449367 -0.003790
C14   C     C_R   0.102360 0.285850 0.427413 -0.135168
C15   C     C_R   0.127325 0.618640 0.491364 -0.073060
C16   C     C_R   0.354091 0.501174 0.497799 -0.071440
H1    H     H_    0.254241 0.480538 0.706601 0.130835
H2    H     H_    0.121289 0.199706 0.413524 0.192869
C17   C     C_R   0.645402 0.494374 0.499399 -0.040452
C18   C     C_R   0.974439 0.391426 0.436094 0.040427
C19   C     C_R   0.973974 0.610745 0.505791 0.066646
C20   C     C_R   0.948957 0.499668 0.472822 0.065867
C21   C     C_R   0.947725 0.285744 0.394640 -0.212129
C22   C     C_R   0.897788 0.284610 0.396579 -0.156716
C23   C     C_R   0.872467 0.388622 0.439614 -0.018222
C24   C     C_R   0.897876 0.496609 0.477264 -0.047885
C25   C     C_R   0.872097 0.601469 0.519568 -0.021554
C26   C     C_R   0.821705 0.596056 0.524839 0.548665
N2    N     N_R   0.797838 0.489496 0.489946 -0.467088
C27   C     C_R   0.822054 0.387238 0.445896 0.495530
C28   C     C_R   0.720289 0.485581 0.370462 -0.139470
C29   C     C_R   0.670387 0.489890 0.371777 -0.237448
C30   C     C_R   0.671270 0.493095 0.626000 -0.270683
C31   C     C_R   0.721657 0.488700 0.625917 0.048153
C32   C     C_R   0.746267 0.485983 0.496157 0.329966
O10   O     O_2   0.797399 0.284135 0.410017 -0.553859
C33   C     C_R   0.025498 0.392244 0.441870 0.060291
C34   C     C_R   0.050564 0.504782 0.468753 0.066879
C35   C     C_R   0.024983 0.614887 0.495425 0.000342
C36   C     C_R   0.052529 0.283485 0.423800 -0.209133
H3    H     H_    0.651445 0.489690 0.272562 0.156176
H4    H     H_    0.738999 0.483360 0.271146 0.142285
H5    H     H_    0.879078 0.201114 0.364594 0.186283
H6    H     H_    0.964275 0.202513 0.357272 0.139846
H7    H     H_    0.036290 0.193687 0.410365 0.135253
O11   O     O_2   0.203917 0.719977 0.516428 -0.455887
C37   C     C_R   0.101721 0.729378 0.508551 0.455059
H8    H     H_    0.350423 0.525709 0.271650 0.166304
H9    H     H_    0.262755 0.529628 0.261086 0.144364
C38   C     C_R   0.946911 0.713599 0.550578 -0.206131
C39   C     C_R   0.897041 0.708885 0.556832 -0.152486
O12   O     O_2   0.796690 0.696603 0.563755 -0.543346
C40   C     C_R   0.051306 0.726226 0.509811 -0.307464
H10   H     H_    0.963169 0.798697 0.585713 0.142104
H11   H     H_    0.652321 0.494195 0.725226 0.145523
H12   H     H_    0.878087 0.790184 0.591945 0.186974
H13   H     H_    0.033499 0.813658 0.518775 0.129641
C41   C     C_R   0.478489 0.063754 0.605048 0.097522
C42   C     C_R   0.500847 0.128774 0.496275 -0.131458
C43   C     C_R   0.520493 0.063082 0.381382 -0.021381
C44   C     C_R   0.518324 0.934406 0.381184 -0.258172
H14   H     H_    0.534817 0.884342 0.295730 0.152695
C45   C     C_R   0.499335 0.870575 0.496766 -0.125724
C46   C     C_R   0.478696 0.936209 0.606434 0.059458
C47   C     C_3   0.491283 0.931643 0.759037 -0.187562
C48   C     C_3   0.489136 0.071416 0.758521 -0.490137
H15   H     H_    0.528515 0.898503 0.775284 0.148836
H16   H     H_    0.458633 0.110986 0.818542 0.201062
H17   H     H_    0.524681 0.114960 0.779268 0.189655
C49   C     C_R   0.540770 0.529572 0.073788 0.284844
N3    N     N_R   0.500300 0.500930 0.147930 -0.180836
C50   C     C_R   0.461457 0.457247 0.074373 -0.079777
H18   H     H_    0.430007 0.423911 0.129583 0.144575
C51   C     C_R   0.461519 0.457014 0.925596 -0.067534
H19   H     H_    0.430301 0.422712 0.870435 0.196412
N4    N     N_R   0.500310 0.500890 0.852020 -0.189338
C52   C     C_R   0.540900 0.528768 0.926466 0.237902
C53   C     C_3   0.568965 0.646251 0.920482 -0.498540
C54   C     C_3   0.568438 0.647672 0.079714 -0.502613
H20   H     H_    0.605472 0.633323 0.875959 0.185079
H21   H     H_    0.548141 0.721889 0.873142 0.214020
H22   H     H_    0.604677 0.635860 0.126571 0.189942
H23   H     H_    0.547147 0.724503 0.124140 0.208505
O13   O     O_3   0.349067 0.470292 0.749116 -0.756464
H24   H     H_    0.324506 0.462618 0.824079 0.311931
O14   O     O_3   0.126272 0.840224 0.523540 -0.661360
H25   H     H_    0.103097 0.908539 0.534871 0.314073
C55   C     C_R   0.747758 0.487905 0.761685 0.114174
C56   C     C_R   0.738595 0.579175 0.862811 -0.111208
C57   C     C_R   0.763623 0.579756 0.990077 -0.153136
C58   C     C_R   0.797722 0.488965 0.017901 -0.102724
C59   C     C_R   0.806593 0.396919 0.918881 -0.117994
C60   C     C_R   0.781655 0.395974 0.791471 -0.156756
H26   H     H_    0.712535 0.650710 0.842399 0.132096
H27   H     H_    0.756617 0.650725 0.067121 0.139043
H28   H     H_    0.817099 0.489586 0.116445 0.134217
H29   H     H_    0.832729 0.326066 0.940990 0.141386
H30   H     H_    0.788492 0.322984 0.716835 0.155766
C61   C     C_R   0.550125 0.124632 0.272897 0.130876
C62   C     C_R   0.529949 0.159498 0.144073 -0.108408
C63   C     C_R   0.557743 0.224646 0.046267 -0.151969
C64   C     C_R   0.605829 0.253206 0.075174 -0.126305
C65   C     C_R   0.626224 0.217244 0.202582 -0.119960
C66   C     C_R   0.598417 0.153792 0.301675 -0.144796
H31   H     H_    0.492513 0.139671 0.121441 0.122310
H32   H     H_    0.541782 0.255616 0.949304 0.127857
H33   H     H_    0.627119 0.304225 0.999417 0.124411
H34   H     H_    0.663421 0.239678 0.225181 0.152916
H35   H     H_    0.614314 0.128271 0.401193 0.129187
C67   C     C_R   0.454912 0.869965 0.855081 0.162038
C68   C     C_R   0.463942 0.870120 0.000113 -0.191405
C69   C     C_R   0.432299 0.810982 0.092630 -0.108570
C70   C     C_R   0.391319 0.750938 0.041301 -0.116855
C71   C     C_R   0.381974 0.749685 0.897357 -0.113946
C72   C     C_R   0.413620 0.808187 0.804247 -0.065532
H36   H     H_    0.495837 0.915161 0.041276 0.127766
H37   H     H_    0.439525 0.811710 0.204136 0.155083
H38   H     H_    0.366775 0.705513 0.113028 0.128002
H39   H     H_    0.350117 0.703454 0.857841 0.159819
H40   H     H_    0.405663 0.804590 0.693207 0.120023

loop_
_geom_bond_atom_site_label_1
_geom_bond_atom_site_label_2
_geom_bond_distance
_ccdc_geom_bond_type
C60   H30   1.082058 S    
C56   C57   1.398424 A    
C10   H1    1.083315 S    
C41   C48   1.494708 S    
Cu2   N3    2.015183 S    
N2    C27   1.367775 A    
C1    C42   1.448271 S    
C61   C62   1.402921 A    
C12   C15   1.415162 A    
C4    C17   1.471937 S    
C28   C29   1.389255 A    
C64   C65   1.396912 A    
C68   H36   1.082354 S    
C68   C69   1.397621 A    
C30   C31   1.402719 A    
Cu1   O7    1.950751 S    
C55   C60   1.406099 A    
N1    C11   1.431726 S    
C49   C52   1.404364 A    
C22   C23   1.395839 A    
C23   C24   1.408154 A    
C50   C51   1.418197 A    
C35   C40   1.412341 A    
O4    C2    1.299260 A    
O7    C4    1.298393 A    
C48   H16   1.112596 S    
C5    C13   1.400866 A    
C65   C66   1.397823 A    
O14   H25   0.991605 S    
C67   C72   1.410115 A    
C5    N1    1.363795 A    
C44   H14   1.083134 S    
C23   C27   1.403456 A    
Cu1   N4    2.014709 S    
O5    C3    1.293049 A    
C72   H40   1.081924 S    
C62   C63   1.398441 A    
C47   C67   1.515495 S    
C31   C32   1.414389 A    
C29   H3    1.082403 S    
C6    O11   1.349155 S    
C2    C16   1.481050 S    
C3    C45   1.442216 S    
C19   C38   1.416228 A    
C30   H11   1.083098 S    
C58   H28   1.082782 S    
C8    H8    1.082485 S    
C64   H33   1.082608 S    
C43   C61   1.477844 S    
O1    Cu1   1.964937 S    
C9    C10   1.407052 A    
C44   C45   1.401641 A    
O3    Cu1   1.950880 S    
C70   H38   1.081695 S    
C59   C60   1.398368 A    
C34   C35   1.417338 A    
C46   C47   1.496951 S    
C47   H15   1.109732 S    
C12   C34   1.422432 A    
C17   C29   1.402374 A    
C38   H10   1.076841 S    
C18   C21   1.415857 A    
Cu1   Cu2   2.681835 S    
C12   C13   1.410782 A    
O3    C2    1.300235 A    
C66   H35   1.083223 S    
C25   C26   1.403252 A    
C51   H19   1.078309 S    
C8    C16   1.408687 A    
C13   C14   1.395958 A    
C47   C48   1.515960 S    
C49   C54   1.488488 S    
O1    C1    1.295012 A    
C21   C22   1.389052 A    
C18   C20   1.419480 A    
C7    C11   1.394608 A    
C45   C46   1.391483 A    
C38   C39   1.388918 A    
C14   C36   1.386448 A    
C28   H4    1.080906 S    
C53   H20   1.110727 S    
N3    C50   1.368846 A    
Cu2   O8    1.950874 S    
C33   C36   1.413786 A    
O13   H24   0.991787 S    
N1    C6    1.366176 A    
N2    C32   1.435842 S    
C57   H27   1.082447 S    
C27   O10   1.349769 S    
C50   H18   1.080453 S    
C61   C66   1.404182 A    
C26   N2    1.367862 A    
C9    C16   1.416160 A    
O8    C4    1.297322 A    
C33   C34   1.422584 A    
C41   C46   1.381911 A    
C70   C71   1.396472 A    
C41   C42   1.396562 A    
C53   H21   1.103716 S    
C63   C64   1.397570 A    
C56   H26   1.083184 S    
Cu1   O5    1.964792 S    
C31   C55   1.483693 S    
C39   H12   1.083575 S    
C21   H6    1.076777 S    
C20   C24   1.421564 A    
C10   C11   1.396984 A    
O2    Cu2   1.964794 S    
C6    C15   1.414078 A    
C43   C44   1.394841 A    
O6    C3    1.288402 A    
O4    Cu2   1.950754 S    
C65   H34   1.082323 S    
C14   H2    1.083676 S    
C9    O13   1.380290 S    
C19   C35   1.422571 A    
C25   C39   1.395734 A    
C26   O12   1.349788 S    
C62   H31   1.083017 S    
C7    C8    1.391524 A    
O2    C1    1.288053 A    
C52   C53   1.488442 S    
C42   C43   1.418619 A    
C22   H5    1.083541 S    
C15   C37   1.410069 A    
C37   C40   1.402438 A    
C54   H22   1.110683 S    
C48   H17   1.109498 S    
C53   C54   1.518020 S    
C24   C25   1.407823 A    
C71   H39   1.081726 S    
C7    H9    1.082921 S    
C71   C72   1.398143 A    
C40   H13   1.076119 S    
C55   C56   1.406174 A    
C19   C20   1.420150 A    
C69   H37   1.081679 S    
C51   N4    1.368763 A    
C57   C58   1.397475 A    
C18   C33   1.421178 A    
C36   H7    1.076744 S    
C54   H23   1.109899 S    
C63   H32   1.079751 S    
N4    C52   1.364946 A    
Cu2   O6    1.964936 S    
C49   N3    1.362840 A    
C17   C30   1.404863 A    
C58   C59   1.396962 A    
C37   O14   1.383776 S    
C59   H29   1.082324 S    
C67   C68   1.405022 A    
C28   C32   1.398893 A    
C5    O9    1.350066 S    
C69   C70   1.395996 A    
