data_mof_unit_64711.cif
_audit_creation_date              2012-12-10T20:11:08-0500
_audit_creation_method            fapswitch 2.2
_symmetry_space_group_name_H-M    P1
_symmetry_Int_Tables_number       1
_space_group_crystal_system       triclinic
_cell_length_a                    15.94353
_cell_length_b                    15.943481
_cell_length_c                    51.42481
_cell_angle_alpha                 90.000079
_cell_angle_beta                  90.00008
_cell_angle_gamma                 89.999984
_cell_volume                      13071.9484831

loop_
_atom_site_label
_atom_site_type_symbol
_atom_type_description
_atom_site_fract_x
_atom_site_fract_y
_atom_site_fract_z
_atom_type_partial_charge
C1    C     C_R   0.924072 0.499594 0.637013 -0.260131
C2    C     C_R   0.424074 0.000557 0.862986 -0.260166
C3    C     C_1   0.276578 0.223422 0.250000 -0.153611
C4    C     C_1   0.223422 0.723422 0.750000 -0.153602
C5    C     C_1   0.776578 0.276578 0.250000 -0.153602
C6    C     C_1   0.276578 0.223422 0.750000 -0.153611
C7    C     C_1   0.723422 0.776578 0.250000 -0.153611
C8    C     C_1   0.776578 0.723423 0.250000 -0.153612
C9    C     C_1   0.223422 0.276577 0.750000 -0.153612
C10   C     C_1   0.723422 0.223422 0.250000 -0.153603
C11   C     C_1   0.276578 0.776577 0.750000 -0.153603
C12   C     C_1   0.223422 0.276577 0.250000 -0.153612
C13   C     C_R   0.000536 0.424073 0.137014 -0.260159
C14   C     C_1   0.776578 0.723422 0.750000 -0.153613
C15   C     C_1   0.276577 0.776578 0.250000 -0.153603
C16   C     C_1   0.723422 0.223422 0.750000 -0.153603
C17   C     C_R   0.513309 0.073718 0.945143 0.538845
C18   C     C_R   0.486691 0.926282 0.054857 0.538846
C19   C     C_R   0.926270 0.486760 0.945142 0.538842
C20   C     C_R   0.073730 0.513240 0.054857 0.538843
C21   C     C_R   0.486691 0.926282 0.945142 0.538845
C22   C     C_R   0.513309 0.073718 0.054857 0.538845
C23   C     C_R   0.073730 0.513241 0.945143 0.538843
C24   C     C_R   0.000536 0.424073 0.862986 -0.260158
C25   C     C_R   0.926270 0.486759 0.054857 0.538843
C26   C     C_R   0.987063 0.573784 0.445142 0.538836
C27   C     C_R   0.012937 0.426216 0.554858 0.538837
C28   C     C_R   0.426272 0.013253 0.445142 0.538847
C29   C     C_R   0.573728 0.986747 0.554857 0.538846
C30   C     C_R   0.012938 0.426216 0.445142 0.538836
C31   C     C_R   0.987062 0.573784 0.554858 0.538837
C32   C     C_R   0.573728 0.986747 0.445142 0.538847
C33   C     C_R   0.426272 0.013252 0.554857 0.538847
C34   C     C_R   0.486334 0.924768 0.972503 -0.027817
C35   C     C_R   0.575926 0.999447 0.137014 -0.260166
C36   C     C_R   0.513666 0.075232 0.027497 -0.027816
C37   C     C_R   0.075244 0.513595 0.972503 -0.027816
C38   C     C_R   0.924756 0.486405 0.027497 -0.027817
C39   C     C_R   0.513666 0.075232 0.972503 -0.027817
C40   C     C_R   0.486334 0.924768 0.027497 -0.027816
C41   C     C_R   0.924756 0.486405 0.972503 -0.027817
C42   C     C_R   0.075244 0.513595 0.027497 -0.027816
C43   C     C_R   0.013285 0.424699 0.472503 -0.027817
C44   C     C_R   0.986715 0.575301 0.527497 -0.027816
C45   C     C_R   0.575242 0.986392 0.472503 -0.027820
C46   C     C_R   0.575927 0.999443 0.862986 -0.260165
C47   C     C_R   0.424758 0.013608 0.527497 -0.027820
C48   C     C_R   0.986716 0.575301 0.472503 -0.027816
C49   C     C_R   0.013284 0.424699 0.527497 -0.027816
C50   C     C_R   0.424758 0.013608 0.472503 -0.027820
C51   C     C_R   0.575242 0.986392 0.527497 -0.027820
C52   C     C_R   0.999464 0.575927 0.137014 -0.260159
C53   C     C_R   0.999464 0.575927 0.862986 -0.260159
C54   C     C_R   0.500000 1.000000 0.986236 -0.014634
C55   C     C_R   0.500000 1.000000 0.013764 -0.014635
C56   C     C_R   0.000000 0.500000 0.986236 -0.014633
C57   C     C_R   0.924072 0.499592 0.362987 -0.260131
C58   C     C_R   0.000000 0.500000 0.013764 -0.014633
C59   C     C_R   0.000000 0.500000 0.486236 -0.014630
C60   C     C_R   1.000000 0.500000 0.513764 -0.014631
C61   C     C_R   0.500000 0.000000 0.486236 -0.014632
C62   C     C_R   0.500000 1.000000 0.513764 -0.014633
C63   C     C_R   0.472762 0.850088 0.986412 -0.151265
C64   C     C_R   0.527238 0.149912 0.013588 -0.151265
C65   C     C_R   0.149937 0.527096 0.986412 -0.151267
C66   C     C_R   0.850062 0.472904 0.013588 -0.151266
C67   C     C_R   0.527238 0.149912 0.986412 -0.151265
C68   C     C_R   0.499468 0.924072 0.637014 -0.260160
C69   C     C_R   0.472762 0.850088 0.013588 -0.151265
C70   C     C_R   0.850063 0.472904 0.986412 -0.151266
C71   C     C_R   0.149937 0.527096 0.013588 -0.151267
C72   C     C_R   0.026475 0.349950 0.486412 -0.151263
C73   C     C_R   0.973524 0.650050 0.513588 -0.151263
C74   C     C_R   0.649933 0.972878 0.486412 -0.151257
C75   C     C_R   0.350067 0.027122 0.513588 -0.151257
C76   C     C_R   0.973525 0.650050 0.486412 -0.151264
C77   C     C_R   0.026475 0.349950 0.513588 -0.151263
C78   C     C_R   0.350067 0.027122 0.486412 -0.151257
C79   C     C_R   0.499462 0.924073 0.362986 -0.260159
C80   C     C_R   0.649933 0.972878 0.513588 -0.151257
C81   C     C_R   0.923767 0.499557 0.609710 0.104756
C82   C     C_R   0.923768 0.499555 0.390290 0.104756
C83   C     C_R   0.499427 0.923767 0.609711 0.104799
C84   C     C_R   0.499421 0.923768 0.390289 0.104798
C85   C     C_R   0.076232 0.500442 0.609710 0.104756
C86   C     C_R   0.076233 0.500445 0.390290 0.104756
C87   C     C_R   0.500572 0.076232 0.609711 0.104799
C88   C     C_R   0.500579 0.076233 0.390289 0.104798
C89   C     C_R   0.423767 0.000594 0.109711 0.104806
C90   C     C_R   0.075927 0.500406 0.637013 -0.260132
C91   C     C_R   0.423768 0.000599 0.890289 0.104805
C92   C     C_R   0.000576 0.423767 0.109711 0.104794
C93   C     C_R   0.000577 0.423768 0.890289 0.104794
C94   C     C_R   0.576232 0.999406 0.109711 0.104806
C95   C     C_R   0.576233 0.999401 0.890289 0.104805
C96   C     C_R   0.999424 0.576232 0.109711 0.104794
C97   C     C_R   0.999423 0.576233 0.890289 0.104794
C98   C     C_R   1.000000 0.500000 0.595974 0.344242
C99   C     C_R   0.000000 0.500000 0.404026 0.344244
C100  C     C_R   0.500000 1.000000 0.595974 0.344148
C101  C     C_R   0.075928 0.500408 0.362987 -0.260131
C102  C     C_R   0.500000 0.000000 0.404026 0.344151
C103  C     C_R   0.499999 1.000000 0.095974 0.344127
C104  C     C_R   0.500000 1.000000 0.904026 0.344130
C105  C     C_R   0.000000 0.500000 0.095974 0.344155
C106  C     C_R   1.000000 0.500000 0.904026 0.344155
C107  C     C_R   0.000000 0.500000 0.820253 0.815025
C108  C     C_R   1.000000 0.500000 0.179746 0.815025
C109  C     C_R   0.500000 0.000000 0.820253 0.815025
C110  C     C_R   0.500000 1.000000 0.179746 0.815024
C111  C     C_R   0.500000 0.000000 0.320254 0.815027
C112  C     C_R   0.500532 0.075927 0.637014 -0.260160
C113  C     C_R   0.500000 1.000000 0.679746 0.815028
C114  C     C_R   0.000000 0.500000 0.320254 0.815019
C115  C     C_R   1.000000 0.500000 0.679746 0.815018
C116  C     C_R   0.839677 0.660323 0.750000 0.856073
C117  C     C_R   0.160323 0.339677 0.250000 0.856073
C118  C     C_R   0.339677 0.839677 0.750000 0.856076
C119  C     C_R   0.660323 0.160323 0.250000 0.856077
C120  C     C_R   0.160323 0.339677 0.750000 0.856071
C121  C     C_R   0.839677 0.660323 0.250000 0.856071
C122  C     C_R   0.660323 0.160323 0.750000 0.856077
C123  C     C_R   0.500538 0.075927 0.362986 -0.260159
C124  C     C_R   0.339677 0.839677 0.250000 0.856076
C125  C     C_R   0.839677 0.339677 0.250000 0.856079
C126  C     C_R   0.160323 0.660323 0.750000 0.856080
C127  C     C_R   0.339677 0.160323 0.250000 0.856075
C128  C     C_R   0.660323 0.839677 0.750000 0.856074
C129  C     C_R   0.160323 0.660323 0.250000 0.856079
C130  C     C_R   0.839677 0.339677 0.750000 0.856079
C131  C     C_R   0.660323 0.839677 0.250000 0.856073
C132  C     C_R   0.339677 0.160323 0.750000 0.856073
C133  C     C_R   1.000000 0.500000 0.650904 -0.044718
C134  C     C_R   0.424073 0.000553 0.137014 -0.260166
C135  C     C_R   0.000000 0.500000 0.349096 -0.044718
C136  C     C_R   0.500000 1.000000 0.650905 -0.044714
C137  C     C_R   0.500000 0.000000 0.349095 -0.044715
C138  C     C_R   0.500000 0.000000 0.150905 -0.044715
C139  C     C_R   0.500000 1.000000 0.849095 -0.044714
C140  C     C_R   0.000000 0.500000 0.150905 -0.044715
C141  C     C_R   0.000000 0.500000 0.849095 -0.044715
C142  C     C_1   0.776578 0.276577 0.750000 -0.153602
C143  C     C_1   0.223422 0.723422 0.250000 -0.153602
C144  C     C_1   0.723422 0.776578 0.750000 -0.153612
H1    H     H_    0.462090 0.791370 0.976352 0.193859
H2    H     H_    0.963153 0.708822 0.523647 0.193864
H3    H     H_    0.708659 0.962251 0.476353 0.193864
H4    H     H_    0.291341 0.037749 0.523647 0.193864
H5    H     H_    0.963153 0.708822 0.476353 0.193864
H6    H     H_    0.036847 0.291178 0.523647 0.193864
H7    H     H_    0.291341 0.037750 0.476352 0.193864
H8    H     H_    0.708659 0.962251 0.523648 0.193864
H9    H     H_    0.864737 0.499201 0.647278 0.172215
H10   H     H_    0.864738 0.499198 0.352722 0.172215
H11   H     H_    0.498974 0.864739 0.647279 0.172216
H12   H     H_    0.537910 0.208630 0.023647 0.193859
H13   H     H_    0.498963 0.864739 0.352721 0.172216
H14   H     H_    0.135262 0.500799 0.647278 0.172215
H15   H     H_    0.135263 0.500802 0.352722 0.172215
H16   H     H_    0.501026 0.135261 0.647279 0.172216
H17   H     H_    0.501037 0.135261 0.352721 0.172216
H18   H     H_    0.364739 0.001064 0.147279 0.172217
H19   H     H_    0.364740 0.001072 0.852721 0.172217
H20   H     H_    0.001033 0.364739 0.147279 0.172216
H21   H     H_    0.001034 0.364739 0.852721 0.172216
H22   H     H_    0.635260 0.998936 0.147279 0.172217
H23   H     H_    0.208666 0.537713 0.976353 0.193859
H24   H     H_    0.635260 0.998928 0.852721 0.172216
H25   H     H_    0.998967 0.635261 0.147279 0.172216
H26   H     H_    0.998966 0.635261 0.852721 0.172216
H27   H     H_    0.811524 0.551417 0.601425 0.204286
H28   H     H_    0.812502 0.445432 0.601531 0.192635
H29   H     H_    0.812504 0.445426 0.398469 0.192636
H30   H     H_    0.811523 0.551412 0.398575 0.204286
H31   H     H_    0.445100 0.812599 0.601534 0.192578
H32   H     H_    0.551084 0.811431 0.601425 0.204354
H33   H     H_    0.551068 0.811427 0.398575 0.204351
H34   H     H_    0.791334 0.462287 0.023647 0.193859
H35   H     H_    0.445084 0.812604 0.398466 0.192581
H36   H     H_    0.188475 0.448583 0.601425 0.204287
H37   H     H_    0.187497 0.554568 0.601531 0.192635
H38   H     H_    0.187497 0.554574 0.398469 0.192636
H39   H     H_    0.188478 0.448588 0.398575 0.204286
H40   H     H_    0.554900 0.187400 0.601534 0.192578
H41   H     H_    0.448916 0.188569 0.601425 0.204353
H42   H     H_    0.448932 0.188574 0.398575 0.204351
H43   H     H_    0.554916 0.187397 0.398466 0.192580
H44   H     H_    0.312615 0.054956 0.101534 0.192549
H45   H     H_    0.537911 0.208630 0.976353 0.193859
H46   H     H_    0.311415 0.948973 0.101425 0.204387
H47   H     H_    0.311413 0.948984 0.898574 0.204385
H48   H     H_    0.312619 0.054967 0.898466 0.192550
H49   H     H_    0.948926 0.311428 0.101425 0.204366
H50   H     H_    0.054910 0.312602 0.101533 0.192566
H51   H     H_    0.054911 0.312603 0.898467 0.192566
H52   H     H_    0.948927 0.311428 0.898575 0.204367
H53   H     H_    0.687384 0.945044 0.101534 0.192549
H54   H     H_    0.688584 0.051028 0.101426 0.204387
H55   H     H_    0.688588 0.051016 0.898575 0.204385
H56   H     H_    0.462089 0.791370 0.023647 0.193859
H57   H     H_    0.687381 0.945033 0.898466 0.192550
H58   H     H_    0.051074 0.688572 0.101425 0.204367
H59   H     H_    0.945090 0.687397 0.101533 0.192566
H60   H     H_    0.945089 0.687398 0.898467 0.192566
H61   H     H_    0.051073 0.688573 0.898575 0.204367
H62   H     H_    0.791334 0.462287 0.976352 0.193859
H63   H     H_    0.208666 0.537713 0.023647 0.193859
H64   H     H_    0.036847 0.291178 0.476352 0.193864
N1    N     N_R   0.500000 1.000000 0.932062 -0.335312
N2    N     N_3   0.846017 0.498675 0.404200 -0.443126
N3    N     N_3   0.498406 0.846017 0.595801 -0.443073
N4    N     N_3   0.498393 0.846018 0.404199 -0.443076
N5    N     N_3   0.153983 0.501321 0.595800 -0.443126
N6    N     N_3   0.153984 0.501325 0.404200 -0.443126
N7    N     N_3   0.501594 0.153982 0.595801 -0.443074
N8    N     N_3   0.501607 0.153983 0.404199 -0.443076
N9    N     N_3   0.346017 0.001640 0.095801 -0.443063
N10   N     N_3   0.346018 0.001649 0.904199 -0.443064
N11   N     N_3   0.001602 0.346017 0.095801 -0.443078
N12   N     N_R   0.500000 1.000000 0.067938 -0.335313
N13   N     N_3   0.001602 0.346018 0.904199 -0.443078
N14   N     N_3   0.653981 0.998360 0.095801 -0.443064
N15   N     N_3   0.653982 0.998351 0.904199 -0.443064
N16   N     N_3   0.998398 0.653982 0.095801 -0.443078
N17   N     N_3   0.998398 0.653983 0.904199 -0.443078
N18   N     N_R   1.000000 0.500000 0.932062 -0.335310
N19   N     N_R   1.000000 0.499999 0.067938 -0.335310
N20   N     N_R   0.000000 0.500000 0.432062 -0.335303
N21   N     N_R   1.000000 0.500000 0.567937 -0.335303
N22   N     N_R   0.500000 0.000000 0.432062 -0.335310
N23   N     N_R   0.500000 1.000000 0.567938 -0.335310
N24   N     N_3   0.846016 0.498679 0.595800 -0.443125
O1    O     O_3   0.000000 0.500000 0.750000 -0.479812
O2    O     O_R   1.000000 0.430630 0.192350 -0.644248
O3    O     O_R   0.430630 1.000000 0.807650 -0.644247
O4    O     O_R   0.569370 0.000000 0.192350 -0.644247
O5    O     O_R   0.500000 0.930630 0.307650 -0.644247
O6    O     O_R   0.500000 0.069370 0.692350 -0.644248
O7    O     O_R   0.069370 0.500000 0.307650 -0.644246
O8    O     O_R   0.930630 0.500000 0.692350 -0.644246
O9    O     O_R   0.500000 0.069370 0.307650 -0.644248
O10   O     O_R   0.500000 0.930630 0.692350 -0.644248
O11   O     O_R   0.930630 0.500000 0.307650 -0.644245
O12   O     O_3   0.000000 0.500000 0.250000 -0.479812
O13   O     O_R   0.069370 0.500000 0.692350 -0.644245
O14   O     O_R   0.902350 0.666510 0.764820 -0.637182
O15   O     O_R   0.097650 0.333490 0.235180 -0.637182
O16   O     O_R   0.333490 0.902350 0.764820 -0.636775
O17   O     O_R   0.666510 0.097650 0.235180 -0.636776
O18   O     O_R   0.097650 0.333490 0.764820 -0.637182
O19   O     O_R   0.902350 0.666510 0.235180 -0.637182
O20   O     O_R   0.666510 0.097650 0.764820 -0.636776
O21   O     O_R   0.333490 0.902350 0.235180 -0.636776
O22   O     O_R   0.902350 0.333490 0.235180 -0.636778
O23   O     O_3   0.500000 0.000000 0.750000 -0.479813
O24   O     O_R   0.097650 0.666510 0.764820 -0.636779
O25   O     O_R   0.333490 0.097650 0.235180 -0.637183
O26   O     O_R   0.666510 0.902350 0.764820 -0.637183
O27   O     O_R   0.097650 0.666510 0.235180 -0.636778
O28   O     O_R   0.902350 0.333490 0.764820 -0.636778
O29   O     O_R   0.666510 0.902350 0.235180 -0.637183
O30   O     O_R   0.333490 0.097650 0.764820 -0.637183
O31   O     O_R   0.402350 0.166510 0.264820 -0.636779
O32   O     O_R   0.597650 0.833490 0.735180 -0.636780
O33   O     O_R   0.833490 0.402350 0.264820 -0.637175
O34   O     O_3   0.500000 0.000000 0.250000 -0.479813
O35   O     O_R   0.166510 0.597650 0.735180 -0.637176
O36   O     O_R   0.597650 0.833490 0.264820 -0.636779
O37   O     O_R   0.402350 0.166510 0.735180 -0.636779
O38   O     O_R   0.166510 0.597650 0.264820 -0.637176
O39   O     O_R   0.833490 0.402350 0.735180 -0.637175
O40   O     O_R   0.402350 0.833490 0.735180 -0.637182
O41   O     O_R   0.597650 0.166510 0.264820 -0.637182
O42   O     O_R   0.833490 0.597650 0.735180 -0.636784
O43   O     O_R   0.166510 0.402350 0.264820 -0.636784
O44   O     O_R   0.597650 0.166510 0.735180 -0.637182
O45   O     O_R   1.000000 0.430630 0.807650 -0.644248
O46   O     O_R   0.402350 0.833490 0.264820 -0.637182
O47   O     O_R   0.166510 0.402350 0.735180 -0.636784
O48   O     O_R   0.833490 0.597650 0.264820 -0.636784
O49   O     O_2   0.525933 0.145304 0.931712 -0.552139
O50   O     O_2   0.474067 0.854696 0.068288 -0.552140
O51   O     O_2   0.854673 0.474201 0.931711 -0.552137
O52   O     O_2   0.145327 0.525799 0.068289 -0.552137
O53   O     O_2   0.474067 0.854696 0.931711 -0.552139
O54   O     O_2   0.525932 0.145304 0.068288 -0.552140
O55   O     O_2   0.145327 0.525800 0.931712 -0.552137
O56   O     O_R   1.000000 0.569370 0.192350 -0.644248
O57   O     O_2   0.854673 0.474200 0.068288 -0.552137
O58   O     O_2   0.974792 0.645431 0.431711 -0.552130
O59   O     O_2   0.025208 0.354569 0.568289 -0.552131
O60   O     O_2   0.354677 0.025824 0.431711 -0.552140
O61   O     O_2   0.645323 0.974176 0.568288 -0.552140
O62   O     O_2   0.025209 0.354569 0.431711 -0.552130
O63   O     O_2   0.974791 0.645431 0.568289 -0.552131
O64   O     O_2   0.645323 0.974177 0.431712 -0.552140
O65   O     O_2   0.354677 0.025823 0.568288 -0.552140
O66   O     O_R   0.569370 1.000000 0.807650 -0.644247
O67   O     O_R   0.430630 0.000000 0.192350 -0.644248
O68   O     O_R   1.000000 0.569370 0.807650 -0.644248
Zn1   Zn    Zn3+2 0.900880 0.500000 0.727850 0.981242
Zn2   Zn    Zn3+2 0.599120 0.000000 0.772150 0.981241
Zn3   Zn    Zn3+2 1.000000 0.400880 0.227850 0.981241
Zn4   Zn    Zn3+2 0.000000 0.599120 0.772150 0.981241
Zn5   Zn    Zn3+2 0.599120 0.000000 0.227850 0.981240
Zn6   Zn    Zn3+2 0.400880 0.000000 0.772150 0.981241
Zn7   Zn    Zn3+2 1.000000 0.599120 0.227850 0.981241
Zn8   Zn    Zn3+2 0.000000 0.400880 0.772150 0.981241
Zn9   Zn    Zn3+2 0.099120 0.500000 0.272150 0.981243
Zn10  Zn    Zn3+2 0.500000 0.900880 0.727850 0.981241
Zn11  Zn    Zn3+2 0.500000 0.099120 0.272150 0.981241
Zn12  Zn    Zn3+2 0.099120 0.500000 0.727850 0.981242
Zn13  Zn    Zn3+2 0.900880 0.500000 0.272150 0.981242
Zn14  Zn    Zn3+2 0.500000 0.099120 0.727850 0.981240
Zn15  Zn    Zn3+2 0.500000 0.900880 0.272150 0.981241
Zn16  Zn    Zn3+2 0.400880 0.000000 0.227850 0.981241

loop_
_geom_bond_atom_site_label_1
_geom_bond_atom_site_label_2
_ccdc_geom_bond_type
C32   C45   A    
H29   N2    S    
C42   C58   A    
H28   N24   S    
O47   Zn12  S    
H44   N9    S    
C111  O5    A    
C20   N19   A    
O28   Zn8   S    
H36   N5    S    
C19   N18   A    
C120  O18   A    
C107  O68   A    
C118  O16   A    
C8    C121  S    
C121  O19   A    
O66   Zn2   S    
C18   C40   A    
C51   C80   A    
C22   O54   S    
C37   C56   A    
C27   N21   A    
O1    Zn4   S    
O2    Zn3   S    
O12   Zn13  S    
C99   N20   S    
C33   O65   S    
C71   H63   S    
C59   C60   A    
O4    Zn5   S    
C32   N22   A    
C30   N20   A    
C74   H3    S    
C110  C138  S    
C28   O60   S    
C6    C132  S    
C40   C69   A    
H51   N13   S    
O23   Zn10  S    
C124  O46   A    
H40   N7    S    
O37   Zn14  S    
C23   C37   A    
C52   H25   S    
C41   C56   A    
C88   C102  A    
C24   C141  A    
C40   C55   A    
C86   C99   A    
C128  C144  S    
C53   H26   S    
C79   C137  A    
C34   C54   A    
C83   C100  A    
C33   C47   A    
C30   C43   A    
O20   Zn2   S    
O39   Zn1   S    
C29   O61   S    
H46   N9    S    
C28   N22   A    
O7    Zn9   S    
C19   O51   S    
C111  C137  S    
O16   Zn6   S    
C112  H16   S    
C125  O33   A    
C68   C83   A    
C26   O58   S    
C124  O21   A    
C77   H6    S    
C130  O28   A    
C85   C90   A    
H50   N11   S    
C75   H4    S    
C22   C36   A    
C57   H10   S    
O34   Zn15  S    
C36   C55   A    
C66   C70   A    
C31   N21   A    
H59   N16   S    
C24   H21   S    
O1    Zn12  S    
O24   Zn4   S    
C122  O20   A    
C12   C117  S    
O19   Zn7   S    
C102  N22   S    
C57   C135  A    
C126  O24   A    
H60   N17   S    
C36   C64   A    
O45   Zn8   S    
C46   C139  A    
C84   C102  A    
C48   C76   A    
O31   Zn11  S    
C117  O43   A    
C18   N12   A    
C47   C62   A    
C7    C8    T    
C72   H64   S    
O26   Zn2   S    
C87   C112  A    
O21   Zn16  S    
C122  O44   A    
C17   C39   A    
C79   C84   A    
C123  H17   S    
C39   C54   A    
C16   C122  S    
C10   C119  S    
O12   Zn3   S    
C63   C69   A    
C127  O31   A    
C37   C65   A    
H31   N3    S    
C107  C141  S    
O41   Zn11  S    
C43   C59   A    
C103  N12   S    
O43   Zn9   S    
C111  O9    A    
O1    Zn1   S    
C89   C103  A    
O29   Zn5   S    
C51   C62   A    
C112  C136  A    
C1    C133  A    
C78   H7    S    
C118  O40   A    
C101  C135  A    
C108  O2    A    
C15   C124  S    
O32   Zn10  S    
O17   Zn5   S    
H35   N4    S    
C25   N19   A    
C95   N15   S    
C45   C74   A    
C92   N11   S    
C86   N6    S    
C108  O56   A    
C25   C38   A    
O67   Zn16  S    
C15   C143  T    
C109  O3    A    
C113  O6    A    
C116  O14   A    
O11   Zn13  S    
H57   N15   S    
O15   Zn3   S    
O23   Zn14  S    
C48   C59   A    
C132  O30   A    
C87   C100  A    
C29   C51   A    
C35   C94   A    
H49   N11   S    
H43   N8    S    
C100  N23   S    
C129  O27   A    
C123  C137  A    
C4    C126  S    
C47   C75   A    
C24   C93   A    
C130  O39   A    
O9    Zn11  S    
C49   C77   A    
O33   Zn13  S    
C105  N19   S    
C125  O22   A    
C130  C142  S    
O22   Zn3   S    
O68   Zn4   S    
C109  O66   A    
C113  O10   A    
C5    C125  S    
C94   N14   S    
C50   C61   A    
C57   C82   A    
C114  O7    A    
H37   N5    S    
C27   O59   S    
C33   N23   A    
C11   C118  S    
C63   H1    S    
C27   C49   A    
C82   N2    S    
C97   N17   S    
C96   C105  A    
C82   C99   A    
C68   H11   S    
O5    Zn15  S    
O18   Zn8   S    
C46   H24   S    
C2    C139  A    
H33   N4    S    
C17   N1    A    
C119  O17   A    
C81   C98   A    
C1    C81   A    
C35   H22   S    
C80   H8    S    
C129  O38   A    
C38   C58   A    
C110  O4    A    
C69   H56   S    
C127  O25   A    
H61   N17   S    
C7    C131  S    
H52   N13   S    
C26   C48   A    
C17   O49   S    
C61   C62   A    
O14   Zn4   S    
C74   C80   A    
C6    C9    T    
C50   C78   A    
H47   N10   S    
C31   O63   S    
C14   C144  T    
C32   O64   S    
C13   C140  A    
H58   N16   S    
C29   N23   A    
O12   Zn7   S    
C132  O37   A    
C90   C133  A    
C120  O47   A    
C131  O36   A    
C115  C133  S    
O10   Zn10  S    
H41   N7    S    
O34   Zn16  S    
C21   C34   A    
C110  O67   A    
O30   Zn6   S    
C4    C11   T    
C1    H9    S    
C97   C106  A    
C94   C103  A    
C13   C92   A    
C73   C76   A    
O25   Zn16  S    
H55   N15   S    
O44   Zn14  S    
O42   Zn1   S    
C23   N18   A    
C30   O62   S    
C13   H20   S    
C22   N12   A    
O6    Zn14  S    
O27   Zn7   S    
C2    H19   S    
C79   H13   S    
C84   N4    S    
C129  C143  S    
C65   H23   S    
H32   N3    S    
C91   N10   S    
O3    Zn6   S    
C44   C60   A    
C45   C61   A    
C42   C71   A    
C52   C140  A    
C21   N1    A    
C53   C141  A    
C128  O32   A    
C44   C73   A    
O40   Zn10  S    
C92   C105  A    
O38   Zn9   S    
C101  H15   S    
C87   N7    S    
C20   O52   S    
O34   Zn5   S    
C21   O53   S    
O35   Zn12  S    
C19   C41   A    
C41   C70   A    
C115  O13   A    
C23   O55   S    
C43   C72   A    
C54   C55   A    
C121  O48   A    
H48   N10   S    
C91   C104  A    
O12   Zn9   S    
O13   Zn12  S    
C20   C42   A    
C66   H34   S    
H54   N14   S    
C35   C138  A    
C115  O8    A    
C3    C127  S    
C3    C12   T    
O36   Zn15  S    
C28   C50   A    
C46   C95   A    
C38   C66   A    
C56   C58   A    
O48   Zn13  S    
C96   N16   S    
C113  C136  S    
H42   N8    S    
C114  C135  S    
C106  N18   S    
C52   C96   A    
C85   C98   A    
H39   N6    S    
C114  O11   A    
O23   Zn6   S    
C2    C91   A    
C104  N1    S    
C88   C123  A    
C117  O15   A    
C31   C44   A    
C64   C67   A    
C68   C136  A    
H53   N14   S    
O46   Zn15  S    
C108  C140  S    
C53   C97   A    
C65   C71   A    
C81   N24   S    
C134  H18   S    
C25   O57   S    
C128  O26   A    
C90   H14   S    
C16   C142  T    
O56   Zn7   S    
C72   C77   A    
C85   N5    S    
C119  O41   A    
C98   N21   S    
C26   N20   A    
C18   O50   S    
C49   C60   A    
C116  O42   A    
O34   Zn11  S    
C93   C106  A    
C126  O35   A    
O1    Zn8   S    
C107  O45   A    
C95   C104  A    
C9    C120  S    
H27   N24   S    
C89   C134  A    
C88   N8    S    
H30   N2    S    
C39   C67   A    
C134  C138  A    
C67   H45   S    
C70   H62   S    
C64   H12   S    
C73   H2    S    
C109  C139  S    
O23   Zn2   S    
C5    C10   T    
C76   H5    S    
C14   C116  S    
C34   C63   A    
O8    Zn1   S    
C75   C78   A    
C89   N9    S    
H38   N6    S    
C93   N13   S    
C131  O29   A    
C86   C101  A    
C83   N3    S    
