data_mof_unit_47646.cif
_audit_creation_date              2012-10-26T19:22:35-0400
_audit_creation_method            fapswitch 2.2
_symmetry_space_group_name_H-M    P1
_symmetry_Int_Tables_number       1
_space_group_crystal_system       triclinic
_cell_length_a                    11.80557
_cell_length_b                    12.973789
_cell_length_c                    13.855375
_cell_angle_alpha                 87.376514
_cell_angle_beta                  92.244977
_cell_angle_gamma                 100.095283
_cell_volume                      2086.03795777

loop_
_atom_site_label
_atom_site_type_symbol
_atom_type_description
_atom_site_fract_x
_atom_site_fract_y
_atom_site_fract_z
_atom_type_partial_charge
C1    C     C_R   0.478640 0.299647 0.502359 0.583670
C2    C     C_R   0.846893 0.445507 0.527386 0.332858
C3    C     C_R   0.031520 0.543965 0.475659 -0.043235
C4    C     C_R   0.968376 0.453204 0.519470 -0.095473
C5    C     C_R   0.519318 0.500638 0.681763 0.538685
C6    C     C_R   0.480800 0.500057 0.318247 0.524638
C7    C     C_1   0.469617 0.506275 0.215421 -0.038017
C8    C     C_1   0.531406 0.498052 0.784616 -0.023504
C9    C     C_2   0.461294 0.522145 0.024417 0.276005
C10   C     C_2   0.543694 0.489243 0.975774 0.278984
C11   C     C_1   0.538631 0.494554 0.871358 -0.002878
C12   C     C_R   0.521095 0.700316 0.496821 0.573031
C13   C     C_1   0.464169 0.513397 0.128731 -0.012595
C14   C     C_R   0.530894 0.813635 0.487935 -0.006969
C15   C     C_R   0.465543 0.185948 0.506752 -0.006557
C16   C     C_R   0.394995 0.021092 0.591225 0.282219
C17   C     C_R   0.572405 0.971279 0.385442 0.290689
C18   C     C_R   0.404872 0.130332 0.583092 0.199876
C19   C     C_R   0.584356 0.866845 0.407142 0.193919
C20   C     C_R   0.518276 0.134257 0.438342 0.185866
C21   C     C_R   0.471674 0.864811 0.551858 0.199557
C22   C     C_3   0.217393 0.920930 0.615174 0.043021
C23   C     C_R   0.517506 0.025684 0.451229 -0.047691
C24   C     C_3   0.130322 0.995859 0.615485 -0.293350
C25   C     C_3   0.012815 0.945019 0.574832 -0.453586
C26   C     C_3   0.522759 0.015029 0.228864 0.040415
C27   C     C_3   0.509578 0.915738 0.170494 -0.295030
C28   C     C_3   0.422526 0.918438 0.086459 -0.470448
C29   C     C_3   0.779612 0.638976 0.278003 0.054470
C30   C     C_3   0.866495 0.710235 0.214427 -0.304494
C31   C     C_3   0.835948 0.695337 0.107253 -0.471554
C32   C     C_3   0.176332 0.325833 0.725533 0.029513
C33   C     C_3   0.180791 0.430635 0.775092 -0.276516
C34   C     C_R   0.460701 0.969917 0.531592 -0.046689
C35   C     C_3   0.146387 0.412050 0.880316 -0.454771
C36   C     C_R   0.030032 0.376161 0.560883 0.202027
C37   C     C_R   0.971169 0.621427 0.434737 0.222236
C38   C     C_R   0.151749 0.399290 0.570627 0.419233
C39   C     C_R   0.848948 0.601690 0.430387 0.358997
C40   C     C_R   0.153422 0.553437 0.470907 0.351641
Cu1   Cu    Cu3+1 0.615220 0.507680 0.492970 1.027434
Cu2   Cu    Cu3+1 0.384780 0.492320 0.507030 1.032377
H1    H     H_    0.682861 0.429029 0.977595 0.322567
H2    H     H_    0.161520 0.067725 0.570762 0.202678
H3    H     H_    0.019679 0.924792 0.498525 0.165046
H4    H     H_    0.951509 0.000657 0.577270 0.182558
H5    H     H_    0.978696 0.872909 0.618211 0.157733
H6    H     H_    0.544831 0.084253 0.178594 0.184326
H7    H     H_    0.438725 0.021789 0.260132 0.124430
H8    H     H_    0.594163 0.908334 0.141563 0.176787
H9    H     H_    0.479480 0.845787 0.217959 0.185339
H10   H     H_    0.336841 0.924635 0.113766 0.153018
H11   H     H_    0.414289 0.845182 0.046335 0.174239
H12   H     H_    0.323599 0.584465 0.022785 0.316817
H13   H     H_    0.451425 0.986118 0.035981 0.163613
H14   H     H_    0.729616 0.389929 0.617311 0.368390
H15   H     H_    0.269781 0.612048 0.381854 0.352923
H16   H     H_    0.692272 0.649070 0.251115 0.197829
H17   H     H_    0.785804 0.555100 0.268222 0.133453
H18   H     H_    0.867663 0.793510 0.230738 0.179916
H19   H     H_    0.953780 0.691370 0.229125 0.195647
H20   H     H_    0.834628 0.612600 0.089098 0.181509
H21   H     H_    0.901287 0.746601 0.063019 0.153683
H22   H     H_    0.750257 0.716572 0.088959 0.161699
H23   H     H_    0.468945 0.756656 0.655562 0.321889
H24   H     H_    0.235382 0.281434 0.767353 0.160390
H25   H     H_    0.089843 0.276770 0.731288 0.185992
H26   H     H_    0.269087 0.476839 0.773070 0.216563
H27   H     H_    0.120842 0.477445 0.737504 0.149150
H28   H     H_    0.058329 0.365191 0.884715 0.149567
H29   H     H_    0.146874 0.488417 0.913489 0.180061
H30   H     H_    0.208103 0.370077 0.921727 0.168832
H31   H     H_    0.915938 0.253894 0.536912 0.372218
H32   H     H_    0.980042 0.768266 0.393080 0.335230
H33   H     H_    0.540206 0.250929 0.343028 0.318119
H34   H     H_    0.689858 0.862482 0.302826 0.352292
H35   H     H_    0.330973 0.138478 0.705900 0.348100
H36   H     H_    0.182784 0.848547 0.658003 0.187263
H37   H     H_    0.226450 0.895925 0.540181 0.161923
H38   H     H_    0.120993 0.018842 0.690684 0.178041
N1    N     N_R   0.788370 0.519230 0.482390 -0.257234
N2    N     N_R   0.211630 0.480770 0.517610 -0.272488
O1    O     O_R   0.581500 0.354430 0.495010 -0.481559
O2    O     O_3   0.375225 0.564419 0.974785 -0.740567
O3    O     O_3   0.427473 0.814773 0.636227 -0.630893
O4    O     O_3   0.576221 0.189272 0.361927 -0.631604
O5    O     O_3   0.642029 0.812692 0.347357 -0.682014
O6    O     O_3   0.359056 0.185540 0.650421 -0.668153
O7    O     O_3   0.323518 0.965889 0.660034 -0.523145
O8    O     O_3   0.614122 0.018505 0.299050 -0.517404
O9    O     O_3   0.790325 0.364333 0.584031 -0.658547
O10   O     O_3   0.212026 0.637588 0.419147 -0.613772
O11   O     O_3   0.790767 0.668762 0.375822 -0.513640
O12   O     O_R   0.418500 0.645570 0.504990 -0.488768
O13   O     O_3   0.213359 0.337011 0.628437 -0.471314
O14   O     O_3   0.975922 0.276510 0.587326 -0.680402
O15   O     O_3   0.032176 0.716228 0.401141 -0.665753
O16   O     O_R   0.386890 0.341450 0.506880 -0.426185
O17   O     O_R   0.613110 0.658550 0.493120 -0.421509
O18   O     O_R   0.611060 0.507430 0.631070 -0.541978
O19   O     O_R   0.388940 0.492570 0.368930 -0.541381
O20   O     O_R   0.416450 0.494450 0.642940 -0.468079
O21   O     O_R   0.583550 0.505550 0.357060 -0.487600
O22   O     O_3   0.630996 0.448801 0.025538 -0.733847

loop_
_geom_bond_atom_site_label_1
_geom_bond_atom_site_label_2
_ccdc_geom_bond_type
C15   C18   A    
C4    C36   A    
H15   O10   S    
Cu1   Cu2   S    
Cu2   N2    S    
C31   H22   S    
H12   O2    S    
C26   C27   S    
C17   C23   A    
C14   C21   A    
C22   H37   S    
C19   O5    S    
Cu2   O16   S    
C30   C31   S    
Cu1   O1    S    
C6    O19   A    
C9    C13   S    
H1    O22   S    
C39   O11   S    
C12   O17   A    
C16   C34   A    
C24   H38   S    
H14   O9    S    
C29   H17   S    
H35   O6    S    
C20   O4    S    
C38   O13   S    
Cu1   O17   S    
C1    C15   S    
C9    C10   D    
C25   H5    S    
C27   H8    S    
C33   H27   S    
C35   H29   S    
C16   O7    S    
C38   N2    A    
C31   H20   S    
C12   O12   A    
Cu2   O20   S    
C37   O15   S    
C28   H13   S    
C27   H9    S    
H32   O15   S    
C15   C20   A    
C21   O3    S    
C31   H21   S    
C24   C25   S    
C22   H36   S    
C26   H7    S    
C17   C19   A    
C21   C34   A    
C20   C23   A    
C18   O6    S    
Cu1   O21   S    
C30   H18   S    
C2    C4    A    
C29   C30   S    
C40   N2    A    
C36   O14   S    
H33   O4    S    
C5    O18   A    
C23   C34   A    
Cu1   N1    S    
Cu1   O18   S    
C6    O21   A    
C40   O10   S    
H34   O5    S    
C39   N1    A    
C32   H25   S    
C12   C14   S    
C35   H30   S    
C35   H28   S    
C24   H2    S    
C22   C24   S    
C26   O8    S    
C3    C4    A    
Cu2   O19   S    
C25   H3    S    
C32   H24   S    
C5    O20   A    
Cu2   O12   S    
C14   C19   A    
C17   O8    S    
C1    O16   A    
C3    C40   A    
C5    C8    S    
C28   H11   S    
H23   O3    S    
C6    C7    S    
C26   H6    S    
C1    O1    A    
C32   C33   S    
C36   C38   A    
C37   C39   A    
C29   O11   S    
C28   H10   S    
C8    C11   T    
C10   O22   S    
C33   C35   S    
C22   O7    S    
C2    O9    S    
C10   C11   S    
C9    O2    S    
C7    C13   T    
C32   O13   S    
C29   H16   S    
C3    C37   A    
C16   C18   A    
C30   H19   S    
C27   C28   S    
C2    N1    A    
H31   O14   S    
C25   H4    S    
C33   H26   S    
