data_mof_unit_34739.cif
_audit_creation_date              2012-12-11T14:23:09-0500
_audit_creation_method            fapswitch 2.2
_symmetry_space_group_name_H-M    P1
_symmetry_Int_Tables_number       1
_space_group_crystal_system       triclinic
_cell_length_a                    10.97131
_cell_length_b                    11.007731
_cell_length_c                    18.840453
_cell_angle_alpha                 90.685813
_cell_angle_beta                  90.144766
_cell_angle_gamma                 60.16623
_cell_volume                      1973.64387511

loop_
_atom_site_label
_atom_site_type_symbol
_atom_type_description
_atom_site_fract_x
_atom_site_fract_y
_atom_site_fract_z
_atom_type_partial_charge
C1    C     C_R   0.232836 0.648128 0.608545 0.522755
C2    C     C_R   0.551003 0.199975 0.717505 -0.149342
C3    C     C_R   0.559029 0.197796 0.790189 0.205783
C4    C     C_R   0.628677 0.588778 0.608829 0.557465
C5    C     C_R   0.929362 0.124618 0.812975 -0.094929
C6    C     C_R   0.043579 0.098728 0.770495 -0.143865
C7    C     C_R   0.035056 0.093819 0.697198 -0.142355
C8    C     C_R   0.913944 0.109795 0.665656 -0.083224
C9    C     C_R   0.665064 0.175662 0.675070 -0.048175
C10   C     C_R   0.170781 0.667325 0.831600 -0.000313
C11   C     C_R   0.160386 0.562196 0.791311 0.034222
C12   C     C_3   0.744778 0.501788 0.802253 -0.232408
C13   C     C_R   0.153846 0.569963 0.715982 0.018279
C14   C     C_R   0.192394 0.767466 0.723106 -0.154022
C15   C     C_R   0.192058 0.764893 0.796064 -0.156898
C16   C     C_R   0.628879 0.227150 0.602371 0.529553
C17   C     C_R   0.153622 0.450771 0.823429 -0.042944
C18   C     C_R   0.122899 0.362604 0.783996 -0.150849
C19   C     C_R   0.104897 0.377656 0.711121 -0.152329
C20   C     C_R   0.120563 0.480041 0.677105 -0.109749
C21   C     C_R   0.179679 0.668208 0.681934 -0.004622
C22   C     C_R   0.650997 0.675471 0.168210 -0.007879
C23   C     C_3   0.688439 0.660061 0.816809 0.057868
C24   C     C_R   0.713448 0.540508 0.196350 0.027622
C25   C     C_R   0.745032 0.524354 0.269241 0.038824
C26   C     C_R   0.590740 0.775317 0.287452 -0.148202
C27   C     C_R   0.594360 0.792271 0.214476 -0.145679
C28   C     C_R   0.219619 0.652195 0.401652 0.544486
C29   C     C_R   0.766160 0.421430 0.151275 -0.081931
C30   C     C_R   0.876131 0.294718 0.173389 -0.113677
C31   C     C_R   0.924089 0.282073 0.242442 -0.149817
C32   C     C_R   0.859587 0.393736 0.290257 -0.091317
C33   C     C_R   0.665637 0.641636 0.316170 0.001005
C34   C     C_3   0.648998 0.617639 0.683821 0.045280
C35   C     C_R   0.656723 0.154321 0.176893 0.001731
C36   C     C_R   0.522677 0.215079 0.207447 0.019435
C37   C     C_R   0.513617 0.200220 0.280601 0.039162
C38   C     C_R   0.765273 0.115655 0.292619 -0.157815
C39   C     C_R   0.777365 0.097777 0.220162 -0.138088
C40   C     C_R   0.643631 0.619377 0.391160 0.553145
C41   C     C_R   0.399186 0.276254 0.165886 -0.086577
C42   C     C_R   0.273974 0.294769 0.193286 -0.121518
C43   C     C_R   0.267020 0.264542 0.263767 -0.144563
C44   C     C_R   0.385262 0.215176 0.306807 -0.085215
C45   C     C_3   0.734702 0.694185 0.688229 -0.224445
C46   C     C_R   0.633903 0.170847 0.323543 0.006401
C47   C     C_R   0.147828 0.670250 0.183705 -0.004197
C48   C     C_R   0.207766 0.744058 0.215415 0.025958
C49   C     C_R   0.182041 0.776157 0.287524 0.041201
C50   C     C_R   0.109708 0.601112 0.299506 -0.150553
C51   C     C_R   0.093075 0.604347 0.226395 -0.140609
C52   C     C_R   0.614847 0.227932 0.395207 0.549663
C53   C     C_R   0.272112 0.804881 0.175280 -0.078512
C54   C     C_R   0.282824 0.916590 0.202967 -0.116497
C55   C     C_R   0.241490 0.960214 0.272414 -0.144177
C56   C     C_3   0.727048 0.476861 0.723570 -0.228603
C57   C     C_R   0.185432 0.895871 0.313257 -0.086691
C58   C     C_R   0.157302 0.684812 0.330862 -0.000211
C59   C     C_R   0.702198 0.103144 0.896268 0.564515
C60   C     C_R   0.719130 0.683772 0.890566 0.535387
C61   C     C_R   0.116855 0.705457 0.904901 0.537502
C62   C     C_R   0.676279 0.106371 0.104018 0.529734
C63   C     C_R   0.694643 0.691229 0.097216 0.528794
C64   C     C_3   0.529594 0.739379 0.800033 -0.244782
C65   C     C_R   0.093848 0.708543 0.112371 0.533279
C66   C     C_3   0.507116 0.708088 0.722391 -0.242752
C67   C     C_R   0.687119 0.160889 0.824172 0.017869
C68   C     C_3   0.762469 0.714136 0.766379 -0.223643
C69   C     C_R   0.804093 0.141530 0.782517 -0.024073
C70   C     C_R   0.794718 0.140970 0.707039 0.000802
Cr1   Cr    Cr6+3 0.392940 0.397950 0.502230 0.998060
Cr2   Cr    Cr6+3 0.398400 0.708500 0.501260 0.998845
Cr3   Cr    Cr6+3 0.708640 0.393530 0.496460 0.989062
Cr4   Cr    Cr6+3 0.937880 0.938320 0.007620 0.989132
Cr5   Cr    Cr6+3 0.625560 0.937220 0.994510 1.019240
Cr6   Cr    Cr6+3 0.938080 0.625010 0.001190 0.994341
H1    H     H_    0.485356 0.854258 0.807376 0.132622
H2    H     H_    0.218585 0.839366 0.698993 0.145018
H3    H     H_    0.472843 0.706185 0.836857 0.114374
H4    H     H_    0.178834 0.424423 0.878516 0.168266
H5    H     H_    0.206431 0.842106 0.825109 0.138014
H6    H     H_    0.114689 0.282258 0.811373 0.103667
H7    H     H_    0.079873 0.309800 0.680419 0.119464
H8    H     H_    0.100271 0.491482 0.620726 0.132235
H9    H     H_    0.535436 0.866613 0.321665 0.124593
H10   H     H_    0.731693 0.429578 0.096711 0.115554
H11   H     H_    0.554811 0.896974 0.194344 0.146287
H12   H     H_    0.831722 0.407749 0.699335 0.156173
H13   H     H_    0.925511 0.206903 0.136680 0.126067
H14   H     H_    0.009678 0.184371 0.259695 0.110936
H15   H     H_    0.452645 0.646405 0.722345 0.130534
H16   H     H_    0.910644 0.376698 0.340963 0.138772
H17   H     H_    0.858103 0.085857 0.324480 0.117363
H18   H     H_    0.400091 0.304580 0.111147 0.130600
H19   H     H_    0.882504 0.040312 0.198133 0.157432
H20   H     H_    0.182492 0.331942 0.159638 0.121535
H21   H     H_    0.169290 0.280079 0.285522 0.095303
H22   H     H_    0.374788 0.181853 0.358948 0.135921
H23   H     H_    0.877128 0.656988 0.776212 0.148216
H24   H     H_    0.082639 0.536793 0.331492 0.122370
H25   H     H_    0.305558 0.772324 0.120937 0.122515
H26   H     H_    0.035865 0.556962 0.203477 0.147500
H27   H     H_    0.442407 0.808512 0.694345 0.131061
H28   H     H_    0.321021 0.970667 0.170194 0.121204
H29   H     H_    0.250706 0.045128 0.295111 0.100126
H30   H     H_    0.141990 0.943627 0.364304 0.128665
H31   H     H_    0.724542 0.827164 0.777065 0.125568
H32   H     H_    0.675807 0.798149 0.662444 0.127748
H33   H     H_    0.857304 0.438194 0.816215 0.151560
H34   H     H_    0.836028 0.633699 0.659450 0.139299
H35   H     H_    0.686806 0.464352 0.835669 0.115171
H36   H     H_    0.665291 0.422202 0.719354 0.122346
H37   H     H_    0.388983 0.189929 0.802528 0.314360
H38   H     H_    0.448922 0.230573 0.694911 0.159116
H39   H     H_    0.940399 0.136500 0.869042 0.141228
H40   H     H_    0.141729 0.076886 0.794664 0.089676
H41   H     H_    0.125099 0.071917 0.664655 0.099484
H42   H     H_    0.916303 0.094842 0.608805 0.133924
O1    O     O_R   0.507340 0.255690 0.581430 -0.524767
O2    O     O_R   0.837290 0.593240 0.915240 -0.534303
O3    O     O_R   0.065320 0.635310 0.931580 -0.519406
O4    O     O_R   0.280360 0.527380 0.578910 -0.509907
O5    O     O_R   0.068470 0.828620 0.091850 -0.529337
O6    O     O_R   0.799150 0.057200 0.079350 -0.518085
O7    O     O_R   0.585220 0.080180 0.076770 -0.527224
O8    O     O_R   0.627170 0.809480 0.067050 -0.510543
O9    O     O_R   0.816200 0.596410 0.076500 -0.522608
O10   O     O_R   0.045770 0.638240 0.081070 -0.508144
O11   O     O_3   0.833840 0.833520 0.001110 -0.243941
O12   O     O_R   0.524510 0.695820 0.424050 -0.487625
O13   O     O_R   0.260600 0.739610 0.584580 -0.540966
O14   O     O_R   0.532370 0.695050 0.573830 -0.508328
O15   O     O_R   0.744850 0.503430 0.576380 -0.531855
O16   O     O_R   0.699080 0.276500 0.571950 -0.526372
O17   O     O_R   0.498860 0.256520 0.419860 -0.536149
O18   O     O_R   0.272490 0.528150 0.429140 -0.494984
O19   O     O_R   0.252110 0.740440 0.423010 -0.532495
O20   O     O_3   0.440660 0.228504 0.828959 -0.693222
O21   O     O_R   0.736370 0.504260 0.414810 -0.536463
O22   O     O_R   0.691220 0.277270 0.422180 -0.499545
O23   O     O_3   0.499990 0.499990 0.499980 -0.256945
O24   O     O_R   0.089570 0.825450 0.930590 -0.524838
O25   O     O_R   0.818700 0.054260 0.929860 -0.531716
O26   O     O_R   0.606310 0.077010 0.915520 -0.452432
O27   O     O_R   0.646730 0.806540 0.917560 -0.508025

loop_
_geom_bond_atom_site_label_1
_geom_bond_atom_site_label_2
_ccdc_geom_bond_type
Cr4   O6    S    
Cr4   O25   S    
C1    C21   S    
C11   C13   A    
C64   H1    S    
C7    H41   S    
Cr1   O4    S    
C19   C20   A    
C16   O16   A    
C34   C66   S    
C62   O6    A    
C8    H42   S    
C7    C8    A    
C4    O14   A    
Cr3   O23   S    
C53   C54   A    
Cr5   O27   S    
C51   H26   S    
C34   C56   S    
C12   C23   S    
C26   C27   A    
Cr6   O2    S    
C55   H29   S    
C42   H20   S    
Cr6   O3    S    
C14   C21   A    
C54   H28   S    
C36   C37   A    
C9    C16   S    
C10   C15   A    
Cr1   O17   S    
C30   C31   A    
C56   H12   S    
C40   O21   A    
C46   C52   S    
C49   C57   A    
C61   O3    A    
C18   C19   A    
C41   C42   A    
C24   C29   A    
C5    C69   A    
C59   C67   S    
C22   C63   S    
C1    O4    A    
C44   H22   S    
C31   C32   A    
C53   H25   S    
C47   C48   A    
C60   O2    A    
C68   H31   S    
H37   O20   S    
C45   H32   S    
Cr1   O23   S    
C25   C32   A    
C65   O5    A    
C57   H30   S    
Cr4   O24   S    
C59   O25   A    
C5    H39   S    
C36   C41   A    
C23   C60   S    
C30   H13   S    
C19   H7    S    
C12   H33   S    
Cr2   O14   S    
Cr2   O19   S    
Cr2   O23   S    
C4    C34   S    
C33   C40   S    
C50   C58   A    
C65   O10   A    
C38   C39   A    
C9    C70   A    
C15   H5    S    
Cr5   O26   S    
C16   O1    A    
Cr1   O18   S    
C3    O20   S    
C45   H34   S    
C47   C51   A    
Cr3   O21   S    
C50   C51   A    
C17   H4    S    
C49   C58   A    
C67   C69   A    
C35   C36   A    
C64   C66   S    
C23   C68   S    
C35   C39   A    
C43   C44   A    
C29   C30   A    
Cr6   O11   S    
C26   C33   A    
C41   H18   S    
C52   O22   A    
C31   H14   S    
C39   H19   S    
C45   C68   S    
C17   C18   A    
C13   C21   A    
C34   C45   S    
C24   C25   A    
C27   H11   S    
C6    H40   S    
C29   H10   S    
C12   C56   S    
C66   H15   S    
C23   C64   S    
Cr3   O15   S    
C59   O26   A    
C22   C27   A    
C20   H8    S    
Cr6   O10   S    
C64   H3    S    
C22   C24   A    
C10   C61   S    
C42   C43   A    
Cr2   O13   S    
C52   O17   A    
C40   O12   A    
C54   C55   A    
C11   C17   A    
C13   C20   A    
C28   O18   A    
C50   H24   S    
C66   H27   S    
C3    C67   A    
C28   O19   A    
C43   H21   S    
C1    O13   A    
C62   O7    A    
Cr2   O12   S    
C6    C7    A    
Cr3   O22   S    
C28   C58   S    
C48   C53   A    
C8    C70   A    
Cr1   O1    S    
Cr5   O8    S    
C37   C44   A    
C55   C57   A    
C2    C3    A    
C68   H23   S    
C2    H38   S    
C5    C6    A    
C26   H9    S    
C48   C49   A    
C38   H17   S    
C18   H6    S    
C47   C65   S    
Cr4   O5    S    
C35   C62   S    
C14   H2    S    
C69   C70   A    
C38   C46   A    
C63   O8    A    
C10   C11   A    
C32   H16   S    
C61   O24   A    
Cr3   O16   S    
C60   O27   A    
Cr4   O11   S    
Cr6   O9    S    
C14   C15   A    
Cr5   O7    S    
C37   C46   A    
C2    C9    A    
C56   H36   S    
C12   H35   S    
C63   O9    A    
Cr5   O11   S    
C25   C33   A    
C4    O15   A    
