data_mof_unit_23741.cif
_audit_creation_date              2013-03-05T15:41:56-0500
_audit_creation_method            fapswitch 2.2
_symmetry_space_group_name_H-M    P1
_symmetry_Int_Tables_number       1
_space_group_crystal_system       triclinic
_cell_length_a                    19.397287
_cell_length_b                    7.248645
_cell_length_c                    17.717751
_cell_angle_alpha                 90.002614
_cell_angle_beta                  107.691328
_cell_angle_gamma                 89.998631
_cell_volume                      2373.37298259

loop_
_atom_site_label
_atom_site_type_symbol
_atom_site_description
_atom_site_fract_x
_atom_site_fract_y
_atom_site_fract_z
_atom_type_partial_charge
O1    O     O_R   0.414820 0.494320 0.416790 -0.557721
O2    O     O_R   0.585180 0.994320 0.583210 -0.557739
O3    O     O_R   0.560270 0.819500 0.430140 -0.562914
O4    O     O_R   0.439730 0.319500 0.569860 -0.563067
C1    C     C_R   0.581550 0.655602 0.415236 0.817383
C2    C     C_R   0.418459 0.155607 0.584776 0.817432
O5    O     O_R   0.413840 0.823740 0.407440 -0.558169
O6    O     O_R   0.586160 0.323740 0.592560 -0.558180
O7    O     O_R   0.437710 0.998590 0.560350 -0.548334
O8    O     O_R   0.562290 0.498590 0.439650 -0.548194
C3    C     C_R   0.387568 0.654938 0.385304 0.828995
C4    C     C_R   0.612432 0.154940 0.614696 0.829095
O9    O     O_3   0.508000 0.662290 0.550200 -0.287121
O10   O     O_3   0.492000 0.162290 0.449800 -0.286947
V1    V     V_3+5 0.498520 0.935380 0.490690 1.141029
V2    V     V_3+5 0.501480 0.435380 0.509310 1.140948
C5    C     C_2   0.785453 0.271764 0.788303 -0.088125
C6    C     C_2   0.214548 0.771765 0.211699 -0.088137
C7    C     C_2   0.820480 0.113492 0.817002 -0.199912
C8    C     C_2   0.179519 0.613496 0.182999 -0.199939
C9    C     C_2   0.717586 0.284557 0.720212 -0.090978
C10   C     C_2   0.282415 0.784555 0.279790 -0.090952
C11   C     C_2   0.679386 0.138509 0.682485 -0.202486
C12   C     C_2   0.320613 0.638506 0.317515 -0.202481
H1    H     H_    0.698416 0.422738 0.701141 0.102017
H2    H     H_    0.301587 0.922735 0.298862 0.102072
C13   C     C_R   0.316951 0.290904 0.625928 -0.097179
C14   C     C_R   0.683102 0.790814 0.374160 -0.096887
C15   C     C_R   0.367856 0.149138 0.632767 -0.115255
C16   C     C_R   0.632155 0.649138 0.367249 -0.115582
C17   C     C_R   0.369599 0.002158 0.684555 -0.059896
C18   C     C_R   0.630346 0.502316 0.315371 -0.059532
C19   C     C_R   0.321887 0.997595 0.730209 0.088652
C20   C     C_R   0.678049 0.497803 0.269710 0.088109
C21   C     C_R   0.270806 0.141381 0.723588 0.038492
C22   C     C_R   0.729143 0.641578 0.276355 0.037993
C23   C     C_R   0.267753 0.289657 0.670745 -0.013618
C24   C     C_R   0.732210 0.789839 0.329226 -0.013405
C25   C     C_R   0.324147 0.849752 0.781894 -0.069539
C26   C     C_R   0.675744 0.350041 0.217969 -0.070085
C27   C     C_R   0.276703 0.843321 0.827204 -0.089752
C28   C     C_R   0.723165 0.343634 0.172636 -0.089779
C29   C     C_R   0.226130 0.984742 0.821791 0.091931
C30   C     C_R   0.773766 0.484991 0.178088 0.092395
C31   C     C_R   0.222533 0.134525 0.769377 0.056169
C32   C     C_R   0.777394 0.634731 0.230541 0.056216
C33   C     C_R   0.170652 0.275744 0.762855 -0.002666
C34   C     C_R   0.829287 0.775902 0.237073 -0.002971
C35   C     C_R   0.165012 0.420426 0.707212 -0.077072
C36   C     C_R   0.834878 0.920719 0.292641 -0.077094
C37   C     C_R   0.214070 0.428518 0.661792 -0.070090
C38   C     C_R   0.785804 0.928943 0.338059 -0.070633
C39   C     C_R   0.178849 0.977235 0.867784 -0.084742
C40   C     C_R   0.821064 0.477415 0.132115 -0.084266
C41   C     C_R   0.129307 0.120006 0.864590 -0.107954
C42   C     C_R   0.870661 0.620067 0.135370 -0.107871
C43   C     C_R   0.126142 0.269106 0.813044 -0.087690
C44   C     C_R   0.873834 0.769161 0.186922 -0.087865
H3    H     H_    0.315334 0.399454 0.583631 0.117756
H4    H     H_    0.684817 0.898987 0.416642 0.118685
H5    H     H_    0.408597 0.891941 0.689825 0.082281
H6    H     H_    0.591316 0.392161 0.310052 0.082622
H7    H     H_    0.279477 0.727114 0.866513 0.055825
H8    H     H_    0.720364 0.227469 0.133295 0.055897
H9    H     H_    0.181737 0.861745 0.907548 0.070189
H10   H     H_    0.818160 0.361945 0.092332 0.070069
H11   H     H_    0.088222 0.378858 0.812374 0.114990
H12   H     H_    0.911793 0.878832 0.187623 0.114794
O11   O     O_R   0.937810 0.773680 0.060480 -0.559460
O12   O     O_R   0.062190 0.273680 0.939520 -0.559455
O13   O     O_R   0.086190 0.439740 0.092580 -0.557998
O14   O     O_R   0.913810 0.939740 0.907420 -0.558010
C45   C     C_R   0.112442 0.608316 0.114781 0.824882
C46   C     C_R   0.887558 0.108314 0.885219 0.824888
O15   O     O_R   0.939760 0.444210 0.069890 -0.555578
O16   O     O_R   0.060240 0.944210 0.930110 -0.555612
O17   O     O_R   0.914790 0.269640 0.916760 -0.557241
O18   O     O_R   0.085210 0.769640 0.083240 -0.557237
C47   C     C_R   0.919311 0.612459 0.085059 0.810818
C48   C     C_R   0.080682 0.112450 0.914931 0.810880
O19   O     O_3   0.992050 0.601530 0.949880 -0.284075
O20   O     O_3   0.007950 0.101530 0.050120 -0.284066
V3    V     V_3+5 0.001480 0.328340 0.009300 1.134005
V4    V     V_3+5 0.998520 0.828340 0.990700 1.133981
H13   H     H_    0.807463 0.401940 0.815452 0.104766
H14   H     H_    0.192540 0.901941 0.184551 0.104789
C49   C     C_2   0.106673 0.561224 0.694590 0.903424
O21   O     O_2   0.121528 0.725512 0.697631 -0.600819
O22   O     O_R   0.034562 0.505067 0.677280 -0.728574
H15   H     H_    0.999884 0.613073 0.669518 0.325197
C50   C     C_2   0.893119 0.061687 0.305062 0.904925
O23   O     O_2   0.878130 0.225895 0.301556 -0.601138
O24   O     O_R   0.965283 0.005801 0.322676 -0.728397
H16   H     H_    0.999876 0.113912 0.330203 0.325373
C51   C     C_2   0.205573 0.576481 0.601472 0.893582
O25   O     O_2   0.255420 0.682784 0.605128 -0.625881
O26   O     O_R   0.139864 0.595094 0.541168 -0.710311
H17   H     H_    0.140340 0.701265 0.504062 0.331656
C52   C     C_2   0.794013 0.077759 0.397996 0.892874
O27   O     O_2   0.743641 0.181901 0.394763 -0.626841
O28   O     O_R   0.860054 0.099885 0.457376 -0.709902
H18   H     H_    0.859314 0.206427 0.494203 0.331803
H19   H     H_    0.800229 0.981910 0.790545 0.074300
H20   H     H_    0.199768 0.481915 0.209455 0.074342
H21   H     H_    0.697115 0.999492 0.700917 0.074654
H22   H     H_    0.302883 0.499489 0.299083 0.074701
H23   H     H_    0.362536 0.738257 0.787028 0.067600
H24   H     H_    0.637338 0.238579 0.212812 0.067936

loop_
_geom_bond_atom_site_label_1
_geom_bond_atom_site_label_2
_geom_bond_distance
_ccdc_geom_bond_type
C49   O21   1.222570 D    
O24   H16   1.013803 S    
C13   C15   1.404599 A    
O14   C46   1.336204 A    
C17   H5    1.084555 S    
C51   O25   1.222626 D    
O1    C3    1.329271 A    
O2    C4    1.329260 A    
O16   V4    2.018024 S    
C2    O7    1.311603 A    
O26   H17   1.014055 S    
C25   C27   1.393772 A    
C25   H23   1.083856 S    
C4    C11   1.481687 S    
C19   C25   1.401669 A    
C42   C47   1.483036 S    
C20   C26   1.401649 A    
C21   C23   1.414809 A    
C23   C37   1.422043 A    
C33   C43   1.416004 A    
O17   V3    2.005301 S    
C11   H21   1.082631 S    
C3    C12   1.481688 S    
C31   C33   1.415360 A    
C35   C49   1.489407 S    
C5    C7    1.351452 D    
C7    H19   1.082505 S    
C29   C39   1.400841 A    
C35   C37   1.421982 A    
C46   O17   1.333930 A    
C36   C38   1.422228 A    
C45   O18   1.333939 A    
C17   C19   1.402453 A    
C22   C32   1.413888 A    
C39   H9    1.084620 S    
C20   C22   1.418221 A    
C26   H24   1.083859 S    
C34   C36   1.420579 A    
O6    V2    2.013962 S    
C27   C29   1.401833 A    
C28   C30   1.401796 A    
C43   H11   1.081087 S    
C5    H13   1.085911 S    
C30   C32   1.416668 A    
O13   V3    2.013844 S    
C39   C41   1.401649 A    
C9    C11   1.347409 D    
C40   C42   1.401577 A    
O12   C48   1.333875 A    
O28   H18   1.013905 S    
C33   C35   1.420671 A    
C50   O23   1.222368 D    
O13   C45   1.336204 A    
O5    V1    2.013939 S    
C5    C9    1.493922 S    
C18   C20   1.402391 A    
O4    V2    2.017987 S    
O5    C3    1.337605 A    
O12   V3    1.989247 S    
O18   V4    2.005316 S    
C50   O24   1.398348 S    
C52   O27   1.222198 D    
C14   C24   1.414981 A    
O6    C4    1.337605 A    
O1    V2    2.005143 S    
C6    H14   1.085911 S    
O2    V1    2.005129 S    
C29   C31   1.416612 A    
O14   V4    2.013866 S    
C14   H4    1.080369 S    
C8    H20   1.082505 S    
O4    C2    1.310629 A    
C52   O28   1.398016 S    
C41   C43   1.404264 A    
C10   C12   1.347414 D    
O11   C47   1.333850 A    
C12   H22   1.082630 S    
C27   H7    1.083863 S    
C22   C24   1.414935 A    
C21   C31   1.413891 A    
C28   H8    1.083863 S    
O19   V4    1.785080 S    
O3    V1    2.017924 S    
C1    C16   1.481847 S    
C44   H12   1.081086 S    
C9    H1    1.085973 S    
C6    C10   1.493922 S    
C7    C46   1.483024 S    
O16   C48   1.334772 A    
O3    C1    1.310628 A    
C51   O26   1.398803 S    
C34   C44   1.416053 A    
C40   H10   1.084612 S    
C38   C52   1.487906 S    
C14   C16   1.404542 A    
O7    V1    2.002326 S    
C18   H6    1.084565 S    
C1    O8    1.311594 A    
C15   C17   1.399786 A    
O11   V4    1.989281 S    
O8    V2    2.002365 S    
C16   C18   1.399660 A    
C41   C48   1.483059 S    
O15   V3    2.017961 S    
C13   C23   1.414867 A    
C26   C28   1.393704 A    
C19   C21   1.418147 A    
C42   C44   1.404210 A    
C8    C45   1.483022 S    
C6    C8    1.351447 D    
C32   C34   1.415261 A    
C30   C40   1.400853 A    
C36   C50   1.489215 S    
C2    C15   1.481868 S    
C24   C38   1.422340 A    
O20   V3    1.785135 S    
C10   H2    1.085972 S    
O9    V2    1.786172 S    
C49   O22   1.398413 S    
O10   V1    1.786228 S    
C13   H3    1.080492 S    
O22   H15   1.013934 S    
O15   C47   1.334798 A    
C37   C51   1.487525 S    
