data_mof_unit_7478.cif
_audit_creation_date              2012-12-11T15:21:33-0500
_audit_creation_method            fapswitch 2.2
_symmetry_space_group_name_H-M    P1
_symmetry_Int_Tables_number       1
_space_group_crystal_system       triclinic
_cell_length_a                    19.012494
_cell_length_b                    7.151143
_cell_length_c                    17.791723
_cell_angle_alpha                 90.014078
_cell_angle_beta                  108.968469
_cell_angle_gamma                 89.978034
_cell_volume                      2287.62488391

loop_
_atom_site_label
_atom_site_type_symbol
_atom_type_description
_atom_site_fract_x
_atom_site_fract_y
_atom_site_fract_z
_atom_type_partial_charge
O1    O     O_R   0.562310 0.505770 0.439670 -0.534700
O2    O     O_R   0.437690 0.005770 0.560330 -0.535497
O3    O     O_R   0.411650 0.169150 0.405330 -0.537178
O4    O     O_R   0.588350 0.669150 0.594670 -0.538160
C1    C     C_R   0.384149 0.345916 0.383314 0.623445
C2    C     C_R   0.615317 0.845543 0.617004 0.625839
O5    O     O_R   0.560140 0.175610 0.430010 -0.537280
O6    O     O_R   0.439860 0.675610 0.569990 -0.537829
O7    O     O_R   0.587240 0.012100 0.585200 -0.539516
O8    O     O_R   0.412760 0.512100 0.414800 -0.540639
C3    C     C_R   0.581260 0.344470 0.415315 0.698457
C4    C     C_R   0.418619 0.844550 0.584541 0.697801
O9    O     O_3   0.508720 0.341420 0.550890 -0.370951
O10   O     O_3   0.491280 0.841420 0.449110 -0.371033
V1    V     V_3+5 0.498380 0.063930 0.490560 1.384103
V2    V     V_3+5 0.501620 0.563930 0.509440 1.383458
C5    C     C_R   0.196078 0.023514 0.884803 0.414819
C6    C     C_R   0.802980 0.520690 0.114032 0.374051
C7    C     C_R   0.130815 0.915129 0.865824 -0.153086
C8    C     C_R   0.869131 0.415210 0.133987 -0.175354
C9    C     C_R   0.115089 0.787501 0.802492 -0.302957
C10   C     C_R   0.885748 0.290592 0.198405 -0.287079
C11   C     C_R   0.162145 0.769959 0.755495 0.077703
C12   C     C_R   0.838452 0.272355 0.245119 0.077862
C13   C     C_R   0.224223 0.891318 0.770903 -0.044553
C14   C     C_R   0.775123 0.390055 0.228220 -0.053254
C15   C     C_R   0.239623 0.022544 0.833743 -0.010907
C16   C     C_R   0.758339 0.516787 0.163673 0.016454
C17   C     C_R   0.148844 0.636366 0.693018 0.159615
C18   C     C_R   0.852392 0.140590 0.308329 0.157684
C19   C     C_R   0.198819 0.622878 0.649650 -0.224154
C20   C     C_R   0.802892 0.128486 0.352307 -0.224319
C21   C     C_R   0.259987 0.743010 0.664677 0.066173
C22   C     C_R   0.740777 0.245830 0.336172 0.068813
C23   C     C_R   0.271846 0.880545 0.724191 0.071191
C24   C     C_R   0.727261 0.378750 0.274678 0.069843
C25   C     C_R   0.331839 0.006801 0.737420 0.112996
C26   C     C_R   0.665276 0.499507 0.259103 0.115131
C27   C     C_R   0.343938 0.142453 0.797003 -0.194931
C28   C     C_R   0.650704 0.627969 0.196527 -0.210905
C29   C     C_R   0.298742 0.149479 0.844975 -0.180025
C30   C     C_R   0.696078 0.634862 0.148701 -0.151680
C31   C     C_R   0.309290 0.728573 0.620592 -0.208924
C32   C     C_R   0.691817 0.232101 0.380692 -0.208434
C33   C     C_R   0.368662 0.854981 0.633192 -0.078060
C34   C     C_R   0.630931 0.354397 0.366322 -0.078131
C35   C     C_R   0.378936 0.995251 0.691006 -0.222897
C36   C     C_R   0.618487 0.488999 0.305947 -0.221099
H1    H     H_    0.066107 0.701233 0.791400 0.148775
H2    H     H_    0.935618 0.207189 0.210566 0.147068
H3    H     H_    0.189599 0.518317 0.603284 0.121791
H4    H     H_    0.812878 0.026179 0.399617 0.121089
H5    H     H_    0.300449 0.622052 0.575057 0.114604
H6    H     H_    0.701992 0.129259 0.427827 0.113538
H7    H     H_    0.424631 0.093112 0.700922 0.121815
H8    H     H_    0.571357 0.582938 0.294397 0.119155
H9    H     H_    0.389176 0.241663 0.807362 0.125075
H10   H     H_    0.603483 0.721726 0.183822 0.124066
H11   H     H_    0.310194 0.255148 0.891009 0.153624
H12   H     H_    0.682681 0.734839 0.100389 0.165094
C37   C     C_3   0.790659 0.700679 0.794249 -0.294211
C38   C     C_3   0.249788 0.333315 0.163098 -0.307865
H13   H     H_    0.836220 0.622137 0.781762 0.136008
H14   H     H_    0.231999 0.196525 0.134062 0.163268
H15   H     H_    0.783211 0.637830 0.848056 0.152334
H16   H     H_    0.260562 0.427985 0.118414 0.138909
C39   C     C_3   0.718216 0.674005 0.723655 -0.336498
C40   C     C_3   0.322591 0.305159 0.234176 -0.349198
H17   H     H_    0.676438 0.599730 0.744348 0.142448
H18   H     H_    0.368219 0.387692 0.223881 0.124636
H19   H     H_    0.729655 0.584580 0.677726 0.137982
H20   H     H_    0.339336 0.155398 0.237934 0.141022
H21   H     H_    0.868370 0.917881 0.719823 0.119817
H22   H     H_    0.155483 0.137885 0.226140 0.145300
H23   H     H_    0.760480 0.881086 0.614097 0.117610
H24   H     H_    0.262894 0.099304 0.330636 0.140528
C41   C     C_3   0.821815 0.990618 0.732717 -0.336458
C42   C     C_3   0.174348 0.276718 0.253547 -0.319187
C43   C     C_3   0.747057 0.016058 0.824965 -0.328598
C44   C     C_3   0.212236 0.602343 0.231964 -0.339619
C45   C     C_3   0.812818 0.911681 0.810144 0.121054
C46   C     C_3   0.186028 0.413290 0.190266 0.115606
H25   H     H_    0.759458 0.168413 0.831998 0.132998
H26   H     H_    0.168428 0.661676 0.253973 0.133967
H27   H     H_    0.740127 0.967620 0.881427 0.135540
H28   H     H_    0.221693 0.704438 0.189188 0.144985
C47   C     C_3   0.687136 0.865283 0.687509 0.126620
C48   C     C_3   0.311686 0.367201 0.312978 0.124131
C49   C     C_3   0.748623 0.964457 0.661416 -0.305951
C50   C     C_3   0.247455 0.250022 0.324817 -0.324332
C51   C     C_3   0.673650 0.985276 0.754727 -0.319801
C52   C     C_3   0.285071 0.576472 0.302345 -0.283920
H29   H     H_    0.631991 0.915153 0.776894 0.122317
H30   H     H_    0.328748 0.666371 0.291789 0.145141
H31   H     H_    0.650227 0.123970 0.730983 0.147532
H32   H     H_    0.276122 0.627222 0.357707 0.129984
H33   H     H_    0.836293 0.141779 0.740286 0.137496
H34   H     H_    0.129837 0.331357 0.275594 0.117527
H35   H     H_    0.728601 0.103993 0.635575 0.139368
H36   H     H_    0.237978 0.292823 0.380884 0.121334
O11   O     O_R   0.087220 0.271820 0.085230 -0.537895
O12   O     O_R   0.912780 0.771820 0.914770 -0.539230
O13   O     O_R   0.939860 0.595540 0.069990 -0.522286
O14   O     O_R   0.060140 0.095540 0.930010 -0.521205
C53   C     C_R   0.918885 0.426353 0.084881 0.727751
C54   C     C_R   0.081022 0.926303 0.914975 0.753189
O15   O     O_R   0.088340 0.601930 0.094680 -0.543113
O16   O     O_R   0.911660 0.101930 0.905320 -0.545072
O17   O     O_R   0.062310 0.765410 0.939660 -0.540925
O18   O     O_R   0.937690 0.265410 0.060340 -0.541695
C55   C     C_R   0.115135 0.431873 0.118731 0.653685
C56   C     C_R   0.884344 0.931574 0.881529 0.644387
O19   O     O_3   0.991270 0.429630 0.949130 -0.375503
O20   O     O_3   0.008730 0.929630 0.050870 -0.375237
V3    V     V_3+5 0.001620 0.707150 0.009440 1.412706
V4    V     V_3+5 0.998380 0.207150 0.990560 1.412828
O21   O     O_3   0.218521 0.123342 0.955411 -0.565498
C57   C     C_3   0.278523 0.028191 0.011498 0.052354
H37   H     H_    0.308242 0.129630 0.058097 0.139338
H38   H     H_    0.321108 0.975753 0.986003 0.121853
C58   C     C_3   0.251315 0.865860 0.050773 -0.779991
H39   H     H_    0.233374 0.747258 0.008589 0.215710
H40   H     H_    0.297240 0.816833 0.103510 0.178012
H41   H     H_    0.203782 0.910283 0.069795 0.222258
O22   O     O_3   0.777413 0.611858 0.041604 -0.560411
C59   C     C_3   0.740063 0.480253 0.982229 0.095941
H42   H     H_    0.723423 0.348069 0.005615 0.108781
H43   H     H_    0.777247 0.440316 0.948012 0.110080
C60   C     C_3   0.669271 0.566996 0.926364 -0.760076
H44   H     H_    0.681840 0.700264 0.901889 0.224481
H45   H     H_    0.643131 0.469639 0.876450 0.176733
H46   H     H_    0.629398 0.594615 0.958859 0.218225
C61   C     C_3   0.082470 0.505651 0.670621 -0.376322
C62   C     C_3   0.096381 0.337417 0.726256 -0.723155
H47   H     H_    0.143235 0.253862 0.719763 0.234343
H48   H     H_    0.109882 0.381932 0.789142 0.238060
H49   H     H_    0.046026 0.247675 0.710382 0.204891
H50   H     H_    0.031198 0.580758 0.670013 0.165157
H51   H     H_    0.071047 0.452660 0.609023 0.172997
C63   C     C_3   0.918309 0.008287 0.330062 -0.377191
C64   C     C_3   0.903814 0.841827 0.273310 -0.719627
H52   H     H_    0.855618 0.760586 0.277824 0.232894
H53   H     H_    0.892048 0.888271 0.210900 0.236812
H54   H     H_    0.953324 0.749013 0.289643 0.205312
H55   H     H_    0.969878 0.082656 0.331242 0.164891
H56   H     H_    0.929400 0.953083 0.391264 0.173333

loop_
_geom_bond_atom_site_label_1
_geom_bond_atom_site_label_2
_ccdc_geom_bond_type
C43   H25   S    
C53   O18   A    
C44   C52   S    
C59   H42   S    
C47   C51   S    
O12   C56   A    
O1    C3    A    
C44   H26   S    
O2    C4    A    
C62   H49   S    
O14   C54   A    
O20   V3    S    
C27   C29   A    
C42   C50   S    
O5    C3    A    
C41   C49   S    
C49   H35   S    
C11   C17   A    
C23   C25   A    
C12   C14   A    
C8    C53   S    
C64   H53   S    
C6    O22   S    
C39   H19   S    
C27   H9    S    
C52   H32   S    
C37   H13   S    
C37   C39   S    
C57   H37   S    
C20   H4    S    
C58   H41   S    
C44   H28   S    
O12   V3    S    
C5    C7    A    
O14   V4    S    
C1    C48   S    
C31   H5    S    
C48   C52   S    
C15   C29   A    
C42   H34   S    
C38   H14   S    
C19   C21   A    
C41   H33   S    
O6    C4    A    
C25   C35   A    
C43   C51   S    
C32   H6    S    
C5    O21   S    
C10   H2    S    
O19   V4    S    
C28   C30   A    
C38   C46   S    
C61   H50   S    
O6    V2    S    
O15   C55   A    
C2    O7    A    
C50   H36   S    
C14   C16   A    
C32   C34   A    
C12   C18   A    
C33   C35   A    
C25   C27   A    
C34   C36   A    
C28   H10   S    
C38   H16   S    
C5    C15   A    
C6    C16   A    
C63   C64   S    
C29   H11   S    
C44   C46   S    
C64   H54   S    
C63   H56   S    
C43   C45   S    
O17   V3    S    
C62   H48   S    
O5    V1    S    
C59   C60   S    
C2    C47   S    
O16   C56   A    
C39   H17   S    
C57   C58   S    
C20   C22   A    
O4    V2    S    
O13   V3    S    
C18   C20   A    
C19   H3    S    
C51   H29   S    
C42   C46   S    
C45   C56   S    
C41   C45   S    
C40   H20   S    
C52   H30   S    
C17   C61   S    
C22   C32   A    
O13   C53   A    
O1    V2    S    
O2    V1    S    
C31   C33   A    
O15   V3    S    
C58   H39   S    
C13   C23   A    
C9    H1    S    
C14   C24   A    
C48   C50   S    
C61   H51   S    
C47   C49   S    
O22   C59   S    
C40   C48   S    
C10   C12   A    
O4    C2    A    
C13   C15   A    
C30   H12   S    
C24   C26   A    
O18   V4    S    
C43   H27   S    
O3    V1    S    
C35   H7    S    
C60   H44   S    
C36   H8    S    
C59   H43   S    
C7    C9    A    
C26   C36   A    
C8    C10   A    
C4    C33   S    
O3    C1    A    
C18   C63   S    
C63   H55   S    
C62   H47   S    
O11   C55   A    
C39   C47   S    
C38   C40   S    
C46   C55   S    
C60   H46   S    
C9    C11   A    
O7    V1    S    
C1    O8    A    
C17   C19   A    
O8    V2    S    
O21   C57   S    
C26   C28   A    
O16   V4    S    
C61   C62   S    
C16   C30   A    
C21   C23   A    
C22   C24   A    
C6    C8    A    
C11   C13   A    
C57   H38   S    
C58   H40   S    
H23   C49   S    
C51   H31   S    
C7    C54   S    
C37   H15   S    
C40   H18   S    
H22   C42   S    
O9    V2    S    
O11   V4    S    
H21   C41   S    
O10   V1    S    
C3    C34   S    
C37   C45   S    
C64   H52   S    
C21   C31   A    
H24   C50   S    
C60   H45   S    
C54   O17   A    
