data_mof_unit_31925.cif
_audit_creation_date              2012-12-10T18:19:11-0500
_audit_creation_method            fapswitch 2.2
_symmetry_space_group_name_H-M    P1
_symmetry_Int_Tables_number       1
_space_group_crystal_system       triclinic
_cell_length_a                    14.988744
_cell_length_b                    14.297464
_cell_length_c                    11.49593
_cell_angle_alpha                 90.023428
_cell_angle_beta                  86.732997
_cell_angle_gamma                 89.70991
_cell_volume                      2459.55366943

loop_
_atom_site_label
_atom_site_type_symbol
_atom_type_description
_atom_site_fract_x
_atom_site_fract_y
_atom_site_fract_z
_atom_type_partial_charge
C1    C     C_R   0.326670 0.500103 0.502236 0.857899
C2    C     C_R   0.442998 0.201001 0.577566 0.200287
C3    C     C_R   0.454337 0.801574 0.588091 0.188969
C4    C     C_R   0.557116 0.200465 0.422542 0.200917
C5    C     C_R   0.442870 0.900450 0.576864 -0.017972
C6    C     C_R   0.560558 0.100317 0.425369 0.018643
C7    C     C_R   0.557648 0.899844 0.422819 -0.014732
C8    C     C_R   0.439474 0.100863 0.574478 0.018069
C9    C     C_R   0.499757 0.950366 0.499277 0.052551
C10   C     C_R   0.499775 0.050800 0.499500 0.033934
C11   C     C_R   0.379246 0.951235 0.646324 -0.213445
C12   C     C_R   0.673081 0.499692 0.501197 0.855412
C13   C     C_R   0.623822 0.047644 0.356463 -0.200556
C14   C     C_R   0.622563 0.950205 0.355663 -0.204565
C15   C     C_R   0.377302 0.048689 0.644941 -0.190888
C16   C     C_R   0.500325 0.499962 0.282361 0.900713
C17   C     C_R   0.499664 0.500000 0.717640 0.897597
C18   C     C_1   0.500328 0.499884 0.161766 -0.202007
C19   C     C_1   0.499663 0.499980 0.838228 -0.197103
C20   C     C_1   0.500154 0.499845 0.059391 -0.006392
C21   C     C_1   0.499837 0.499896 0.940600 -0.006972
C22   C     C_R   0.814918 0.413991 0.503304 -0.228262
C23   C     C_R   0.906677 0.410599 0.516488 0.033057
C24   C     C_R   0.183202 0.582292 0.537790 -0.231829
C25   C     C_R   0.768558 0.498524 0.512039 -0.069807
C26   C     C_R   0.229997 0.499576 0.513457 -0.074572
C27   C     C_R   0.812144 0.581034 0.537030 -0.236027
C28   C     C_R   0.185173 0.415123 0.505032 -0.233335
C29   C     C_R   0.903481 0.580813 0.551618 -0.004688
C30   C     C_R   0.092667 0.411858 0.520064 -0.003566
C31   C     C_R   0.951649 0.495862 0.536333 -0.028035
C32   C     C_R   0.044627 0.496835 0.536571 -0.026898
C33   C     C_3   0.086188 0.760722 0.591626 -0.341587
C34   C     C_R   0.090001 0.583142 0.548324 0.036441
C35   C     C_3   0.106522 0.770009 0.719663 -0.873462
C36   C     C_3   0.907513 0.230779 0.499030 -0.346214
C37   C     C_3   0.892092 0.207702 0.372058 -0.849344
C38   C     C_3   0.579491 0.757708 0.296387 -0.330584
C39   C     C_3   0.669526 0.706885 0.298330 -0.774757
C40   C     C_3   0.385156 0.251985 0.670463 -0.365111
C41   C     C_3   0.421815 0.240828 0.791352 -0.860525
C42   C     C_3   0.432720 0.761980 0.709277 -0.321024
C43   C     C_3   0.342217 0.713653 0.722304 -0.843723
C44   C     C_3   0.615433 0.250954 0.330362 -0.372221
C45   C     C_R   0.947622 0.664811 0.576550 0.376155
C46   C     C_3   0.579922 0.239785 0.208894 -0.857847
C47   C     C_R   0.047539 0.325557 0.513839 0.376725
C48   C     C_R   0.041213 0.667523 0.569749 0.106986
C49   C     C_R   0.954307 0.324599 0.509324 0.105363
C50   C     C_R   0.547589 0.800655 0.412912 0.183539
H1    H     H_    0.778536 0.351581 0.483572 0.166863
H2    H     H_    0.141124 0.243872 0.564089 0.319408
H3    H     H_    0.043232 0.773650 0.774691 0.281079
H4    H     H_    0.146049 0.709101 0.747934 0.257084
H5    H     H_    0.144937 0.835015 0.732741 0.244890
H6    H     H_    0.147212 0.770927 0.534183 0.173760
H7    H     H_    0.042683 0.820325 0.568868 0.257679
H8    H     H_    0.852927 0.263733 0.331420 0.242009
H9    H     H_    0.957211 0.199669 0.321831 0.285704
H10   H     H_    0.854767 0.141023 0.367517 0.241314
H11   H     H_    0.947421 0.173209 0.535347 0.252101
H12   H     H_    0.220808 0.645373 0.547324 0.169511
H13   H     H_    0.843577 0.229376 0.552622 0.176705
H14   H     H_    0.706001 0.726844 0.375931 0.255297
H15   H     H_    0.660515 0.630177 0.295834 0.261710
H16   H     H_    0.712123 0.725626 0.219620 0.215999
H17   H     H_    0.526527 0.718018 0.257024 0.218781
H18   H     H_    0.586762 0.812564 0.228323 0.156921
H19   H     H_    0.492106 0.265097 0.790464 0.278102
H20   H     H_    0.381093 0.283496 0.855519 0.247503
H21   H     H_    0.419667 0.166982 0.820648 0.251406
H22   H     H_    0.379246 0.326196 0.653931 0.266055
H23   H     H_    0.774447 0.645730 0.542385 0.175791
H24   H     H_    0.314753 0.228520 0.670665 0.158888
H25   H     H_    0.346607 0.639523 0.696358 0.281985
H26   H     H_    0.317011 0.715494 0.815027 0.230450
H27   H     H_    0.293452 0.750447 0.669439 0.246551
H28   H     H_    0.488834 0.721619 0.741302 0.220661
H29   H     H_    0.431017 0.819114 0.774883 0.164624
H30   H     H_    0.509607 0.264587 0.208674 0.279765
H31   H     H_    0.621074 0.282008 0.145218 0.245300
H32   H     H_    0.582591 0.165842 0.179818 0.252226
H33   H     H_    0.620832 0.325151 0.346935 0.265680
H34   H     H_    0.223104 0.352261 0.483601 0.180688
H35   H     H_    0.685822 0.227044 0.331184 0.163401
H36   H     H_    0.329678 0.916005 0.702418 0.159165
H37   H     H_    0.675626 0.079860 0.301470 0.153666
H38   H     H_    0.674410 0.914840 0.302799 0.161452
H39   H     H_    0.326403 0.081316 0.701531 0.154946
H40   H     H_    0.849302 0.728558 0.659914 0.328321
N1    N     N_R   0.500000 0.750030 0.500000 -0.118136
N2    N     N_R   0.500000 0.249970 0.500000 -0.141887
O1    O     O_R   0.367850 0.580280 0.500030 -0.613450
O2    O     O_3   0.093107 0.241267 0.508414 -0.781242
O3    O     O_R   0.632150 0.419720 0.499970 -0.648684
O4    O     O_R   0.632150 0.580280 0.499970 -0.613643
O5    O     O_R   0.367850 0.419720 0.500030 -0.646995
O6    O     O_R   0.500010 0.580270 0.334450 -0.618178
O7    O     O_R   0.499990 0.419730 0.665550 -0.617404
O8    O     O_R   0.499990 0.580270 0.665550 -0.620426
O9    O     O_R   0.500010 0.419730 0.334450 -0.614987
O10   O     O_3   0.900943 0.745688 0.606683 -0.786009
Zn1   Zn    Zn3+2 0.500000 0.607200 0.500000 0.940236
Zn2   Zn    Zn3+2 0.500000 0.392800 0.500000 0.922153

loop_
_geom_bond_atom_site_label_1
_geom_bond_atom_site_label_2
_ccdc_geom_bond_type
C30   C32   A    
C3    C42   S    
C35   H3    S    
C44   H33   S    
O1    Zn1   S    
C47   C49   A    
C39   H14   S    
C36   C37   S    
C19   C21   T    
C24   C26   A    
C5    C11   A    
C38   C39   S    
C23   C49   A    
C27   C29   A    
C11   H36   S    
O6    Zn1   S    
C3    N1    A    
H40   O10   S    
C17   C19   S    
C46   H32   S    
C11   C15   A    
C7    C14   A    
C22   C25   A    
C24   H12   S    
C12   O3    A    
H2    O2    S    
C36   H13   S    
C9    C10   A    
C37   H8    S    
C41   H21   S    
C33   H6    S    
O7    Zn2   S    
C42   H29   S    
C13   C14   A    
C35   H4    S    
C39   H15   S    
C44   C46   S    
C43   H25   S    
C35   H5    S    
C37   H10   S    
C30   C47   A    
C4    C6    A    
C1    O5    A    
C4    C44   S    
O8    Zn1   S    
C24   C34   A    
C29   C45   A    
C32   C34   A    
C5    C9    A    
C15   H39   S    
C46   H31   S    
C16   O9    A    
C31   C32   A    
C13   H37   S    
C16   C18   S    
C38   H17   S    
C2    N2    A    
C17   O7    A    
C37   H9    S    
C1    O1    A    
C40   C41   S    
C38   H18   S    
C42   H28   S    
C8    C15   A    
C1    C26   S    
C39   H16   S    
C34   C48   A    
C42   C43   S    
C44   H35   S    
O3    Zn2   S    
C41   H19   S    
C45   C48   A    
C43   H26   S    
C7    C9    A    
C33   H7    S    
C40   H22   S    
C2    C8    A    
C7    C50   A    
N1    Zn1   S    
C3    C5    A    
C6    C10   A    
C38   C50   S    
C43   H27   S    
C26   C28   A    
C12   C25   S    
C28   C30   A    
C28   H34   S    
C14   H38   S    
C29   C31   A    
C6    C13   A    
C46   H30   S    
C16   O6    A    
C33   C35   S    
C47   O2    S    
C40   H24   S    
C18   C20   T    
C22   H1    S    
C17   O8    A    
O5    Zn2   S    
C45   O10   S    
N2    Zn2   S    
C2    C40   S    
C50   N1    A    
C20   C21   S    
C8    C10   A    
O4    Zn1   S    
C33   C48   S    
C22   C23   A    
C12   O4    A    
O9    Zn2   S    
C27   H23   S    
C36   C49   S    
C36   H11   S    
C23   C31   A    
C41   H20   S    
C4    N2    A    
C25   C27   A    
