data_mof_unit_29484.cif
_audit_creation_date              2013-03-05T15:46:57-0500
_audit_creation_method            fapswitch 2.2
_symmetry_space_group_name_H-M    P1
_symmetry_Int_Tables_number       1
_space_group_crystal_system       triclinic
_cell_length_a                    10.172224
_cell_length_b                    10.830512
_cell_length_c                    14.930574
_cell_angle_alpha                 90.312189
_cell_angle_beta                  81.376981
_cell_angle_gamma                 96.639789
_cell_volume                      1615.28704868

loop_
_atom_site_label
_atom_site_type_symbol
_atom_site_description
_atom_site_fract_x
_atom_site_fract_y
_atom_site_fract_z
_atom_type_partial_charge
O1    O     O_R   0.431060 0.692470 0.507460 -0.635222
O2    O     O_R   0.568940 0.307530 0.492540 -0.630305
O3    O     O_R   0.651120 0.659650 0.483670 -0.532593
O4    O     O_R   0.348880 0.340350 0.516330 -0.537151
C1    C     C_R   0.557807 0.732690 0.494358 0.825901
C2    C     C_R   0.442203 0.267341 0.505773 0.824177
O5    O     O_R   0.389960 0.516440 0.644050 -0.609475
O6    O     O_R   0.610040 0.483560 0.355950 -0.614191
O7    O     O_R   0.610030 0.483620 0.620260 -0.566309
O8    O     O_R   0.389970 0.516380 0.379740 -0.565052
C3    C     C_R   0.500070 0.498557 0.672423 0.874252
C4    C     C_R   0.499958 0.501474 0.327573 0.877197
Zn1   Zn    Zn3+2 0.353060 0.521920 0.515880 1.069271
Zn2   Zn    Zn3+2 0.646940 0.478080 0.484120 1.069976
C5    C     C_R   0.483197 0.393337 0.189607 -0.194811
C6    C     C_R   0.516814 0.606753 0.810378 -0.192500
C7    C     C_R   0.500249 0.505734 0.232291 -0.070123
C8    C     C_R   0.499902 0.494343 0.767687 -0.065248
C9    C     C_R   0.516107 0.619186 0.185786 -0.073108
C10   C     C_R   0.484704 0.380906 0.814142 -0.070401
C11   C     C_R   0.526767 0.618932 0.090209 0.030587
C12   C     C_R   0.473975 0.381156 0.909708 0.030784
C13   C     C_R   0.500945 0.502185 0.046834 0.035158
C14   C     C_R   0.499641 0.497904 0.953098 0.036317
C15   C     C_R   0.476790 0.389319 0.097528 0.071466
C16   C     C_R   0.523612 0.610768 0.902412 0.073483
C17   C     C_R   0.562395 0.729346 0.036512 -0.072079
C18   C     C_R   0.438380 0.270724 0.963366 -0.072089
C19   C     C_R   0.556385 0.725335 0.943514 -0.056196
C20   C     C_R   0.444174 0.274735 0.056387 -0.055595
H1    H     H_    0.470240 0.309031 0.230425 0.150648
H2    H     H_    0.529452 0.691065 0.769593 0.149287
H3    H     H_    0.595137 0.104465 0.444499 0.212896
H4    H     H_    0.403854 0.895139 0.554728 0.212799
C21   C     C_2   0.594270 0.865896 0.487339 0.138041
C22   C     C_2   0.405729 0.134238 0.513334 0.136357
C23   C     C_2   0.496285 0.936214 0.514593 -0.207069
C24   C     C_2   0.503234 0.063686 0.485435 -0.204939
N1    N     N_2   0.842700 0.448880 0.462930 -0.221826
N2    N     N_2   0.157300 0.551120 0.537070 -0.220964
C25   C     C_2   0.925939 0.504694 0.511788 0.257853
C26   C     C_2   0.069805 0.481598 0.498923 0.250606
H5    H     H_    0.126354 0.625103 0.574891 0.210599
H6    H     H_    0.878069 0.388869 0.413801 0.205393
C27   C     C_1   0.511000 0.731922 0.238858 0.213863
N3    N     N_1   0.505902 0.821056 0.281776 -0.148732
C28   C     C_1   0.490756 0.268237 0.761062 0.221356
N4    N     N_1   0.496648 0.179151 0.718152 -0.144772
C29   C     C_1   0.616834 0.845973 0.072726 0.221764
N5    N     N_1   0.661112 0.939218 0.100470 -0.145304
C30   C     C_1   0.384015 0.154121 0.927074 0.220959
N6    N     N_1   0.339794 0.060907 0.899254 -0.144338
C31   C     C_1   0.588874 0.839701 0.889749 0.210533
N7    N     N_1   0.614952 0.930502 0.847047 -0.141331
C32   C     C_1   0.411692 0.160339 0.110117 0.209102
N8    N     N_1   0.385626 0.069511 0.152789 -0.144057
N9    N     N_R   0.274653 0.083653 0.556983 0.235470
O9    O     O_R   0.213434 0.141404 0.624610 -0.317302
O10   O     O_R   0.208888 0.990618 0.521181 -0.300202
N10   N     N_R   0.726257 0.916916 0.445538 0.233630
O11   O     O_R   0.790667 0.858488 0.379655 -0.323680
O12   O     O_R   0.789520 0.011169 0.481709 -0.294597
N11   N     N_R   0.110879 0.379910 0.444244 0.213852
O13   O     O_R   0.077522 0.267161 0.475905 -0.290111
O14   O     O_R   0.145860 0.396969 0.357371 -0.382079
N12   N     N_R   0.879627 0.589630 0.579890 0.212956
O15   O     O_R   0.872485 0.559259 0.664805 -0.378074
O16   O     O_R   0.881209 0.705916 0.558077 -0.314710

loop_
_geom_bond_atom_site_label_1
_geom_bond_atom_site_label_2
_geom_bond_distance
_ccdc_geom_bond_type
C4    C7    1.423162 S    
N12   O16   1.300280 A    
O7    Zn2   2.012775 S    
C9    C27   1.453675 S    
C3    C8    1.423059 S    
C5    H1    1.084724 S    
C23   C24   1.440587 S    
C17   C19   1.399212 A    
H4    C23   1.085474 S    
C20   C32   1.457544 S    
C28   N4    1.157625 T    
O6    C4    1.290145 A    
C13   C14   1.402033 A    
N11   O14   1.300824 A    
O3    C1    1.295786 A    
C32   N8    1.157486 T    
C18   C20   1.399146 A    
N12   O15   1.300877 A    
C11   C17   1.423812 A    
C30   N6    1.157816 T    
N1    C25   1.294819 D    
C12   C18   1.423635 A    
C31   N7    1.157485 T    
N11   O13   1.300818 A    
N10   O12   1.301588 A    
O5    C3    1.290296 A    
O7    C3    1.289617 A    
N9    O9    1.301220 A    
C25   N12   1.431220 S    
O3    Zn2   1.962059 S    
O8    C4    1.289794 A    
O1    C1    1.298357 A    
C1    C21   1.447813 S    
N2    C26   1.294545 D    
C9    C11   1.414840 A    
C14   C16   1.418513 A    
C29   N5    1.157819 T    
C8    C10   1.395567 A    
C13   C15   1.418584 A    
C11   C13   1.432644 A    
C6    C16   1.386367 A    
O2    Zn2   1.921193 S    
C18   C30   1.454351 S    
C12   C14   1.432528 A    
C5    C15   1.386284 A    
O4    C2    1.295618 A    
O1    Zn1   1.921191 S    
Zn1   N2    2.030042 S    
N1    H6    1.029416 S    
C22   C24   1.337547 D    
C10   C28   1.453661 S    
C17   C29   1.454327 S    
O5    Zn1   2.007053 S    
C10   C12   1.414633 A    
N9    O10   1.301549 A    
C16   C19   1.408819 A    
C6    C8    1.376247 A    
C22   N9    1.441202 S    
C25   C26   1.496978 S    
C15   C20   1.408913 A    
C5    C7    1.376206 A    
C21   N10   1.441654 S    
C6    H2    1.084721 S    
C7    C9    1.395651 A    
H3    C24   1.085689 S    
O6    Zn2   2.007051 S    
C21   C23   1.337752 D    
Zn2   N1    2.030042 S    
C27   N3    1.157633 T    
C26   N11   1.431197 S    
N2    H5    1.029618 S    
O2    C2    1.298195 A    
O4    Zn1   1.962062 S    
C2    C22   1.447094 S    
N10   O11   1.301217 A    
C19   C31   1.457553 S    
O8    Zn1   2.012773 S    
