data_mof_unit_20640.cif
_audit_creation_date              2012-12-11T14:35:54-0500
_audit_creation_method            fapswitch 2.2
_symmetry_space_group_name_H-M    P1
_symmetry_Int_Tables_number       1
_space_group_crystal_system       triclinic
_cell_length_a                    13.522917
_cell_length_b                    13.475916
_cell_length_c                    27.47431
_cell_angle_alpha                 90.889665
_cell_angle_beta                  90.034093
_cell_angle_gamma                 60.026352
_cell_volume                      4336.44815937

loop_
_atom_site_label
_atom_site_type_symbol
_atom_type_description
_atom_site_fract_x
_atom_site_fract_y
_atom_site_fract_z
_atom_type_partial_charge
C1    C     C_R   0.619628 0.101084 0.570422 0.545264
C2    C     C_1   0.644931 0.715631 0.660668 0.002453
C3    C     C_3   0.120695 0.154030 0.738339 0.144261
C4    C     C_R   0.598715 0.781197 0.569332 0.543898
C5    C     C_3   0.181724 0.061242 0.777126 -0.077879
C6    C     C_1   0.105928 0.196020 0.903650 0.006691
C7    C     C_1   0.293646 0.111079 0.625002 0.015611
C8    C     C_3   0.117798 0.246186 0.773390 -0.071883
C9    C     C_3   0.180140 0.153078 0.811633 0.029095
C10   C     C_3   0.234853 0.221953 0.753375 -0.130689
C11   C     C_3   0.236684 0.130285 0.718866 0.047521
C12   C     C_1   0.627887 0.738633 0.618036 0.025503
C13   C     C_3   0.296782 0.129140 0.792276 -0.126771
C14   C     C_3   0.298899 0.037192 0.756887 -0.128053
C15   C     C_1   0.143579 0.172139 0.862745 -0.031775
C16   C     C_R   0.328011 0.100307 0.575098 0.547910
C17   C     C_1   0.267624 0.119400 0.667328 -0.016034
C18   C     C_3   0.667311 0.245351 0.740440 -0.066672
C19   C     C_3   0.570755 0.270593 0.777429 -0.090064
C20   C     C_1   0.689507 0.204147 0.903995 0.008729
C21   C     C_1   0.632170 0.129988 0.619451 0.027549
C22   C     C_3   0.755184 0.150582 0.773737 -0.051857
C23   C     C_3   0.713144 0.575349 0.771543 0.128336
C24   C     C_3   0.658455 0.175584 0.810048 0.024733
C25   C     C_3   0.732848 0.061489 0.747737 0.116746
C26   C     C_3   0.645740 0.156035 0.715078 0.046090
C27   C     C_3   0.636957 0.085563 0.784772 -0.113481
C28   C     C_R   0.622654 0.100520 0.431743 0.549936
C29   C     C_3   0.549050 0.180512 0.751261 -0.138267
C30   C     C_1   0.671270 0.189649 0.862279 -0.027367
C31   C     C_1   0.639091 0.144958 0.662308 0.000387
C32   C     C_R   0.717171 0.738744 0.355503 -0.130639
C33   C     C_R   0.726090 0.723989 0.305146 0.014538
C34   C     C_3   0.673286 0.674220 0.808863 0.026901
C35   C     C_R   0.741557 0.695022 0.203692 0.001990
C36   C     C_R   0.817733 0.718993 0.228531 -0.119282
C37   C     C_R   0.806339 0.739055 0.278723 -0.098235
C38   C     C_R   0.755787 0.666869 0.154057 -0.158093
C39   C     C_R   0.673761 0.650772 0.129638 0.006494
C40   C     C_R   0.602230 0.775678 0.430180 0.562998
C41   C     C_R   0.574255 0.678864 0.357770 0.079119
C42   C     C_R   0.571596 0.678922 0.306725 0.017985
C43   C     C_R   0.650029 0.698543 0.280551 0.044666
C44   C     C_R   0.489725 0.664498 0.281128 -0.127765
C45   C     C_3   0.600847 0.644881 0.743554 0.134676
C46   C     C_R   0.484822 0.670743 0.230684 -0.131453
C47   C     C_R   0.567219 0.682638 0.204455 0.022815
C48   C     C_R   0.652853 0.692154 0.229563 0.047082
C49   C     C_R   0.569661 0.679760 0.153663 0.086386
C50   C     C_R   0.637871 0.721552 0.381794 0.007512
C51   C     C_R   0.235175 0.046019 0.355966 -0.127845
C52   C     C_R   0.278091 0.119894 0.431237 0.557078
C53   C     C_R   0.204150 0.062439 0.307144 0.011000
C54   C     C_R   0.158360 0.094637 0.207265 0.025723
C55   C     C_R   0.206657 0.984643 0.226637 -0.096836
C56   C     C_3   0.658052 0.697963 0.713544 0.039276
C57   C     C_R   0.229620 0.968600 0.276297 -0.110880
C58   C     C_R   0.135128 0.111833 0.157521 -0.115771
C59   C     C_R   0.088408 0.222257 0.138800 0.002302
C60   C     C_R   0.157726 0.250625 0.367896 -0.099321
C61   C     C_R   0.126136 0.269423 0.319187 0.024876
C62   C     C_R   0.152774 0.174021 0.288309 0.040905
C63   C     C_R   0.074382 0.380361 0.300054 0.106510
C64   C     C_3   0.770987 0.628137 0.741089 -0.085370
C65   C     C_R   0.054508 0.395070 0.250236 -0.095300
C66   C     C_R   0.084162 0.300466 0.219354 -0.015279
C67   C     C_3   0.560755 0.743750 0.781444 -0.118381
C68   C     C_R   0.131382 0.189712 0.238328 0.054063
C69   C     C_R   0.065090 0.315539 0.169745 -0.120265
C70   C     C_R   0.217293 0.139574 0.385500 -0.011640
C71   C     C_R   0.559363 0.238232 0.363648 -0.098058
C72   C     C_R   0.567675 0.257732 0.314225 0.027371
C73   C     C_R   0.583490 0.283885 0.213530 -0.007864
C74   C     C_R   0.490754 0.367500 0.240502 -0.103202
C75   C     C_R   0.480863 0.353987 0.290254 0.094368
C76   C     C_3   0.731117 0.727217 0.779266 -0.116740
C77   C     C_R   0.593892 0.298087 0.163795 -0.129281
C78   C     C_3   0.618158 0.797497 0.750928 -0.138342
C79   C     C_R   0.686184 0.212321 0.137318 -0.010023
C80   C     C_R   0.744123 0.063928 0.359731 -0.126048
C81   C     C_R   0.752374 0.079215 0.310512 -0.009287
C82   C     C_R   0.663457 0.174958 0.287308 0.036165
C83   C     C_R   0.845946 0.996280 0.283869 -0.105910
C84   C     C_R   0.850728 0.004348 0.233729 0.076456
C85   C     C_R   0.761326 0.098561 0.209943 0.025968
C86   C     C_R   0.669355 0.185866 0.236929 0.037922
C87   C     C_R   0.763862 0.109838 0.160023 -0.104483
C88   C     C_1   0.693498 0.618096 0.902392 0.018901
C89   C     C_1   0.682642 0.650663 0.861100 -0.014007
C90   C     C_R   0.644955 0.138751 0.385663 -0.007112
C91   C     C_R   0.050036 0.235620 0.950003 0.554948
C92   C     C_R   0.710940 0.564695 0.948780 0.554011
C93   C     C_R   0.722070 0.224816 0.951122 0.548952
C94   C     C_R   0.045145 0.247227 0.089252 0.546706
C95   C     C_R   0.705203 0.578854 0.085255 0.554801
C96   C     C_R   0.719279 0.234024 0.089680 0.543098
Cr1   Cr    Cr6+3 0.417550 0.169090 0.500530 1.064552
Cr2   Cr    Cr6+3 0.669180 0.913420 0.499920 1.058414
Cr3   Cr    Cr6+3 0.413260 0.917540 0.499520 1.082109
Cr4   Cr    Cr6+3 0.909170 0.177380 0.020380 1.056737
Cr5   Cr    Cr6+3 0.912710 0.429210 0.018220 1.041604
Cr6   Cr    Cr6+3 0.657170 0.432570 0.019030 1.071510
H1    H     H_    0.369346 0.118558 0.814924 0.116510
H2    H     H_    0.419778 0.659849 0.212588 0.158627
H3    H     H_    0.425674 0.653318 0.299676 0.176101
H4    H     H_    0.151386 0.040344 0.133632 0.150553
H5    H     H_    0.281211 0.959624 0.369796 0.148366
H6    H     H_    0.227830 0.910981 0.203334 0.164636
H7    H     H_    0.268824 0.882699 0.290478 0.133389
H8    H     H_    0.025924 0.401705 0.155682 0.137860
H9    H     H_    0.016248 0.480543 0.235631 0.140365
H10   H     H_    0.533416 0.376989 0.146341 0.143118
H11   H     H_    0.483959 0.296062 0.384507 0.179954
H12   H     H_    0.255694 0.288709 0.742976 0.123072
H13   H     H_    0.832470 0.042002 0.139031 0.180696
H14   H     H_    0.475279 0.790125 0.799102 0.127300
H15   H     H_    0.914652 0.923552 0.301945 0.143772
H16   H     H_    0.159556 0.995359 0.787439 0.142815
H17   H     H_    0.372554 0.951579 0.748246 0.120949
H18   H     H_    0.783885 0.761460 0.794976 0.152472
H19   H     H_    0.503739 0.356899 0.790231 0.156504
H20   H     H_    0.840615 0.137003 0.783648 0.172346
H21   H     H_    0.857158 0.579850 0.724120 0.149596
H22   H     H_    0.768442 0.768966 0.373849 0.155190
H23   H     H_    0.044124 0.333044 0.780556 0.156293
H24   H     H_    0.579702 0.889388 0.741794 0.120984
H25   H     H_    0.143714 0.320813 0.391895 0.182511
H26   H     H_    0.424549 0.442608 0.222692 0.141666
H27   H     H_    0.811077 0.987783 0.376732 0.142948
H28   H     H_    0.679785 0.309717 0.720904 0.193241
H29   H     H_    0.464636 0.192357 0.740944 0.114414
H30   H     H_    0.624545 0.019997 0.803377 0.113048
H31   H     H_    0.832584 0.652028 0.135243 0.132473
H32   H     H_    0.885248 0.722915 0.209117 0.156976
H33   H     H_    0.863302 0.761742 0.297124 0.150169
I1    I     I_    0.863556 0.896397 0.723101 -0.368966
I2    I     I_    0.414385 0.727719 0.114618 -0.383837
I3    I     I_    0.491000 0.606250 0.398451 -0.298558
I4    I     I_    0.026205 0.528894 0.344050 -0.383039
I5    I     I_    0.329919 0.481543 0.325179 -0.336495
I6    I     I_    0.999779 0.873348 0.198003 -0.454175
I7    I     I_    0.494840 0.582077 0.715310 -0.361575
I8    I     I_    0.791821 0.401249 0.793538 -0.436068
I9    I     I_    0.985146 0.169076 0.693269 -0.322837
O1    O     O_R   0.301710 0.195650 0.554160 -0.487848
O2    O     O_R   0.635520 0.542770 0.964420 -0.491442
O3    O     O_R   0.665950 0.325030 0.970100 -0.489046
O4    O     O_R   0.522390 0.158990 0.550460 -0.511515
O5    O     O_R   0.816620 0.158530 0.074540 -0.515503
O6    O     O_R   0.004460 0.188870 0.069750 -0.492500
O7    O     O_R   0.025800 0.341780 0.072300 -0.517887
O8    O     O_R   0.807650 0.528950 0.067500 -0.510970
O9    O     O_R   0.633420 0.550490 0.071810 -0.474402
O10   O     O_R   0.664000 0.332180 0.069640 -0.493470
O11   O     O_3   0.826350 0.346390 0.019210 -0.258565
O12   O     O_R   0.658900 0.818120 0.449760 -0.503398
O13   O     O_R   0.694390 0.003530 0.554040 -0.484694
O14   O     O_R   0.657700 0.819660 0.549320 -0.492628
O15   O     O_R   0.501930 0.803280 0.552920 -0.491322
O16   O     O_R   0.318170 0.023580 0.549580 -0.475943
O17   O     O_R   0.303010 0.193990 0.446760 -0.498588
O18   O     O_R   0.523600 0.157450 0.450900 -0.494695
O19   O     O_R   0.695690 0.001860 0.446640 -0.514319
O20   O     O_R   0.503220 0.801620 0.445520 -0.477646
O21   O     O_R   0.319370 0.022040 0.450020 -0.494775
O22   O     O_3   0.499990 0.000010 0.499990 -0.292208
O23   O     O_R   0.818720 0.150820 0.967160 -0.502556
O24   O     O_R   0.006410 0.181720 0.970200 -0.490112
O25   O     O_R   0.027890 0.334070 0.964920 -0.499872
O26   O     O_R   0.809600 0.521790 0.967960 -0.494160

loop_
_geom_bond_atom_site_label_1
_geom_bond_atom_site_label_2
_ccdc_geom_bond_type
C66   C68   A    
C20   C93   S    
C63   C65   A    
C1    C21   S    
C23   C45   S    
C49   I2    S    
C27   C29   S    
C41   C42   A    
C32   H22   S    
C35   C36   A    
C18   C26   S    
C24   C27   S    
C9    C15   S    
C2    C12   T    
C79   C87   A    
Cr2   O19   S    
C28   O18   A    
C47   C49   A    
C20   C30   T    
C85   C86   A    
C74   H26   S    
C21   C31   T    
C76   H18   S    
Cr4   O23   S    
C36   C37   A    
C76   C78   S    
C40   O20   A    
Cr3   O15   S    
C75   I5    S    
C38   C39   A    
Cr6   O3    S    
C11   C14   S    
C66   C69   A    
C54   C68   A    
Cr5   O11   S    
Cr1   O22   S    
C56   C78   S    
C71   H11   S    
C18   C19   S    
C73   C74   A    
C38   H31   S    
C61   C63   A    
C25   I1    S    
C9    C13   S    
C65   H9    S    
C14   H17   S    
C6    C15   T    
C54   C55   A    
C96   O10   A    
Cr2   O14   S    
C45   C56   S    
C92   O26   A    
C8    C9    S    
C7    C17   T    
C22   C25   S    
C45   C67   S    
C36   H32   S    
C37   H33   S    
Cr5   O25   S    
C59   C94   S    
C4    C12   S    
C43   C48   A    
Cr6   O10   S    
C87   H13   S    
C10   H12   S    
C52   O17   A    
Cr3   O22   S    
C85   C87   A    
C26   C31   S    
C13   C14   S    
C27   H30   S    
C23   I8    S    
C67   C78   S    
C42   C44   A    
C72   C75   A    
C35   C48   A    
C81   C83   A    
C44   C46   A    
C81   C82   A    
Cr2   O12   S    
C77   C79   A    
C4    O14   A    
C74   C75   A    
C91   O25   A    
C92   O2    A    
C33   C43   A    
C88   C92   S    
C91   O24   A    
C35   C38   A    
C3    C11   S    
C84   C85   A    
C3    C8    S    
C78   H24   S    
C53   C57   A    
Cr4   O6    S    
C94   O7    A    
C82   C86   A    
C46   H2    S    
Cr5   O7    S    
C33   C37   A    
C57   H7    S    
C60   C61   A    
C58   H4    S    
C77   H10   S    
C67   H14   S    
C5    C9    S    
C52   O21   A    
C53   C62   A    
C40   O12   A    
C47   C48   A    
Cr2   O13   S    
C60   C70   A    
C23   C34   S    
C39   C95   S    
C56   C64   S    
C64   C76   S    
Cr5   O26   S    
C88   C89   T    
Cr6   O9    S    
C32   C50   A    
C5    C14   S    
Cr2   O22   S    
C59   C69   A    
Cr4   O11   S    
C8    C10   S    
C23   C64   S    
C51   C70   A    
C69   H8    S    
Cr1   O18   S    
Cr1   O17   S    
C55   C57   A    
C45   I7    S    
Cr1   O4    S    
C22   C24   S    
C83   C84   A    
C24   C30   S    
C13   H1    S    
C42   C43   A    
C19   C29   S    
C41   C50   A    
C44   H3    S    
C54   C58   A    
C46   C47   A    
C19   H19   S    
C80   H27   S    
C39   C49   A    
C18   C22   S    
Cr1   O1    S    
C60   H25   S    
C7    C16   S    
C3    I9    S    
C80   C81   A    
C3    C5    S    
C10   C13   S    
C11   C17   S    
C34   C67   S    
C63   I4    S    
Cr4   O5    S    
C94   O6    A    
C64   H21   S    
C5    H16   S    
Cr5   O8    S    
C18   H28   S    
C62   C68   A    
C55   H6    S    
Cr4   O24   S    
C32   C33   A    
C83   H15   S    
C1    O13   A    
C19   C24   S    
C25   C26   S    
C34   C89   S    
C71   C72   A    
C2    C56   S    
Cr6   O2    S    
C29   H29   S    
C71   C90   A    
C95   O9    A    
C84   I6    S    
C40   C50   S    
C96   O5    A    
C93   O3    A    
C80   C90   A    
C61   C62   A    
C58   C59   A    
C73   C86   A    
C52   C70   S    
C10   C11   S    
C51   C53   A    
Cr3   O20   S    
C4    O15   A    
C8    H23   S    
C79   C96   S    
C16   O16   A    
C93   O23   A    
C26   C29   S    
C51   H5    S    
C65   C66   A    
C73   C77   A    
C16   O1    A    
C1    O4    A    
C28   C90   S    
C95   O8    A    
C41   I3    S    
Cr3   O16   S    
Cr6   O11   S    
C72   C82   A    
C6    C91   S    
C28   O19   A    
C34   C76   S    
Cr3   O21   S    
C25   C27   S    
C22   H20   S    
