data_mof_unit_48825.cif
_audit_creation_date              2012-12-11T18:37:33-0500
_audit_creation_method            fapswitch 2.2
_symmetry_space_group_name_H-M    P1
_symmetry_Int_Tables_number       1
_space_group_crystal_system       triclinic
_cell_length_a                    8.474471
_cell_length_b                    14.350274
_cell_length_c                    26.929215
_cell_angle_alpha                 94.019657
_cell_angle_beta                  93.614359
_cell_angle_gamma                 88.765002
_cell_volume                      3259.85146806

loop_
_atom_site_label
_atom_site_type_symbol
_atom_type_description
_atom_site_fract_x
_atom_site_fract_y
_atom_site_fract_z
_atom_type_partial_charge
Ba1   Ba    Ba6+2 0.849670 0.455410 0.524690 1.661829
Ba2   Ba    Ba6+2 0.340150 0.544510 0.475310 1.650327
C1    C     C_3   0.704205 0.107134 0.652962 -0.353364
C2    C     C_3   0.621718 0.200879 0.644411 0.453310
C3    C     C_3   0.701262 0.752940 0.631810 0.260826
C4    C     C_3   0.734414 0.856447 0.644061 -0.133884
C5    C     C_3   0.085833 0.781460 0.330362 0.570112
C6    C     C_3   0.144893 0.832985 0.286876 -0.317491
C7    C     C_3   0.585723 0.794707 0.353177 0.433563
C8    C     C_3   0.627600 0.875166 0.321861 -0.299691
C9    C     C_R   0.000803 0.430826 0.181510 0.590850
C10   C     C_R   0.935732 0.593698 0.178609 0.582866
C11   C     C_2   0.761968 0.546826 0.270054 -0.116484
C12   C     C_3   0.067494 0.260648 0.662090 0.322659
C13   C     C_3   0.715914 0.537456 0.322892 -0.068803
C14   C     C_1   0.982998 0.486742 0.344949 0.081873
C15   C     C_2   0.022379 0.483340 0.297560 -0.121293
C16   C     C_2   0.907763 0.516810 0.257074 0.208798
C17   C     C_R   0.022355 0.506661 0.103526 -0.079740
C18   C     C_R   0.037170 0.426125 0.130695 -0.034903
C19   C     C_R   0.087410 0.342223 0.106467 -0.062430
C20   C     C_R   0.972125 0.591052 0.127906 -0.027095
C21   C     C_2   0.857603 0.535055 0.359504 -0.108194
C22   C     C_2   0.360136 0.493300 0.645836 -0.075074
C23   C     C_3   0.054577 0.233059 0.715065 -0.303558
C24   C     C_R   0.131775 0.411640 0.975560 0.019943
C25   C     C_R   0.083591 0.581564 0.974164 0.020095
C26   C     C_R   0.124732 0.494551 0.949352 0.049091
C27   C     C_R   0.166268 0.326297 0.948489 -0.102408
C28   C     C_R   0.197689 0.322904 0.898295 -0.062066
C29   C     C_R   0.196399 0.404295 0.872452 -0.024296
C30   C     C_R   0.159394 0.490303 0.897747 -0.079833
C31   C     C_R   0.157332 0.571935 0.871443 -0.034148
C32   C     C_R   0.195309 0.566668 0.820662 0.595994
C33   C     C_R   0.231689 0.400853 0.821744 0.569808
C34   C     C_3   0.232205 0.254065 0.381587 0.474081
C35   C     C_2   0.416748 0.436644 0.730106 0.117674
C36   C     C_3   0.435358 0.416343 0.674726 -0.002600
C37   C     C_1   0.215904 0.523043 0.657770 -0.022354
C38   C     C_2   0.167323 0.515926 0.703783 -0.162904
C39   C     C_2   0.276894 0.476732 0.744233 0.200549
C40   C     C_R   0.103083 0.416305 0.027491 0.020408
C41   C     C_R   0.057072 0.502723 0.051931 0.049552
C42   C     C_R   0.044997 0.585170 0.025338 0.019837
C43   C     C_R   0.119740 0.337281 0.056248 -0.100579
C44   C     C_R   0.958100 0.671284 0.101046 -0.062774
C45   C     C_3   0.214513 0.155646 0.398729 -0.315735
C46   C     C_R   0.083183 0.662233 0.946625 -0.099651
C47   C     C_R   0.119267 0.657367 0.896645 -0.062136
C48   C     C_R   0.993633 0.668619 0.051130 -0.101030
C49   C     C_R   0.678632 0.062386 0.474443 -0.042449
C50   C     C_R   0.503907 0.198623 0.498474 0.032509
C51   C     C_R   0.363936 0.230902 0.519487 -0.288276
C52   C     C_R   0.265278 0.169393 0.539774 0.033646
C53   C     C_R   0.310574 0.076849 0.542640 -0.147240
C54   C     C_R   0.453597 0.042394 0.523867 -0.001283
C55   C     C_R   0.546762 0.101758 0.498365 -0.050066
C56   C     C_3   0.203773 0.746038 0.623113 0.224765
C57   C     C_R   0.639842 0.910649 0.508446 -0.010550
C58   C     C_R   0.725085 0.968118 0.478971 -0.006609
C59   C     C_R   0.695048 0.816538 0.513607 -0.005934
C60   C     C_R   0.841508 0.786368 0.494594 -0.102699
C61   C     C_R   0.914616 0.840298 0.462056 0.050575
C62   C     C_R   0.857989 0.931174 0.454683 -0.152520
C63   C     C_R   0.505201 0.950203 0.531849 0.154546
C64   C     C_3   0.254456 0.761509 0.678468 -0.357353
C65   C     C_3   0.680222 0.331431 0.379831 0.333153
C66   C     C_3   0.714627 0.295353 0.326658 -0.092937
H1    H     H_    0.630699 0.212236 0.604191 0.028188
H2    H     H_    0.132592 0.114627 0.372199 0.137459
H3    H     H_    0.331208 0.118900 0.401017 0.061928
H4    H     H_    0.165289 0.159367 0.436039 0.081016
H5    H     H_    0.183095 0.815870 0.608772 0.055506
H6    H     H_    0.294355 0.710720 0.601355 0.094821
H7    H     H_    0.160329 0.799446 0.698799 0.157146
H8    H     H_    0.362973 0.804020 0.682907 0.092471
H9    H     H_    0.792659 0.352555 0.400152 0.048419
H10   H     H_    0.777169 0.349372 0.308522 0.050215
H11   H     H_    0.602356 0.281501 0.304083 0.065401
H12   H     H_    0.645070 0.050919 0.628781 0.052264
H13   H     H_    0.694581 0.719067 0.667425 0.054406
H14   H     H_    0.796844 0.717670 0.612702 0.087505
H15   H     H_    0.631946 0.890653 0.662283 0.095208
H16   H     H_    0.752320 0.890508 0.609216 0.088072
H17   H     H_    0.700778 0.090825 0.692591 0.120775
H18   H     H_    0.273735 0.844417 0.292248 0.113895
H19   H     H_    0.083714 0.902010 0.284850 0.115623
H20   H     H_    0.693171 0.769659 0.373398 0.002625
H21   H     H_    0.715791 0.921032 0.343147 0.089081
H22   H     H_    0.521643 0.918442 0.311969 0.084647
H23   H     H_    0.959394 0.299950 0.650575 0.113264
H24   H     H_    0.675636 0.848168 0.286190 0.138510
H25   H     H_    0.139081 0.458509 0.287919 0.118480
H26   H     H_    0.101894 0.279226 0.126365 0.120749
H27   H     H_    0.167846 0.259838 0.964716 0.067848
H28   H     H_    0.160014 0.270024 0.041344 0.067840
H29   H     H_    0.673608 0.568193 0.241958 0.111949
H30   H     H_    0.918921 0.737267 0.118623 0.119004
H31   H     H_    0.057628 0.731233 0.962731 0.067370
H32   H     H_    0.169259 0.307604 0.661664 -0.023613
H33   H     H_    0.117463 0.721604 0.877716 0.118546
H34   H     H_    0.977043 0.733604 0.033675 0.067743
H35   H     H_    0.746936 0.104398 0.452159 0.104187
H36   H     H_    0.323084 0.289704 0.406996 0.024314
N1    N     N_R   0.950123 0.514083 0.205091 -0.420361
N2    N     N_R   0.233495 0.481643 0.796283 -0.422015
O1    O     O_2   0.918080 0.549800 0.616640 -0.443617
O2    O     O_3   0.608212 0.260557 0.402946 -0.659982
O3    O     O_3   0.087176 0.179858 0.630360 -0.626556
O4    O     O_2   0.271610 0.450170 0.383330 -0.486862
O5    O     O_3   0.039630 0.450200 0.443530 -0.449915
O6    O     O_3   0.531440 0.620360 0.408460 -0.491697
O7    O     O_3   0.084953 0.299896 0.384289 -0.614920
O8    O     O_3   0.643350 0.612530 0.521650 -0.452075
O9    O     O_3   0.127390 0.668260 0.431510 -0.432283
O10   O     O_2   0.231663 0.835804 0.463871 -0.493962
O11   O     O_3   0.114049 0.841236 0.374138 -0.612861
O12   O     O_3   0.150070 0.549720 0.556460 -0.477600
O13   O     O_3   0.546340 0.387390 0.478340 -0.485788
O14   O     O_2   0.398940 0.728800 0.517420 -0.444781
O15   O     O_3   0.556085 0.740648 0.604647 -0.665718
O16   O     O_2   0.397852 0.555409 0.323657 -0.488873
O17   O     O_3   0.512677 0.722922 0.320993 -0.614306
O18   O     O_2   0.011669 0.360207 0.204461 -0.600010
O19   O     O_2   0.261929 0.325440 0.800313 -0.629235
O20   O     O_2   0.891583 0.667300 0.199161 -0.628031
O21   O     O_2   0.196534 0.638046 0.798478 -0.605246
O22   O     O_3   0.658250 0.379560 0.591530 -0.469494
O23   O     O_2   0.767470 0.450092 0.680164 -0.469393
O24   O     O_3   0.061406 0.699050 0.615343 -0.644888
O25   O     O_3   0.698935 0.271562 0.675550 -0.604435
O26   O     O_2   0.790750 0.271170 0.482550 -0.449160
O27   O     O_3   0.062300 0.331660 0.568480 -0.496580
O28   O     O_2   0.934717 0.165471 0.542925 -0.485013
P1    P     P_3+3 0.090020 0.577590 0.608380 0.976463
P2    P     P_3+3 0.614340 0.285150 0.467650 0.973149
P3    P     P_3+3 0.084873 0.211304 0.568631 0.936854
P4    P     P_3+3 0.099670 0.422330 0.391610 1.013429
P5    P     P_3+3 0.092065 0.791723 0.431517 0.941481
P6    P     P_3+3 0.640591 0.382050 0.655939 0.999544
P7    P     P_3+3 0.577100 0.726793 0.540056 0.956229
P8    P     P_3+3 0.545318 0.610853 0.343856 0.909059
H37   H     H_    0.280153 0.694825 0.695694 0.112314
H38   H     H_    0.598906 0.393044 0.378252 -0.013411
H39   H     H_    0.828373 0.108287 0.642762 0.147701
N3    N     N_3   0.813018 0.210529 0.327103 -0.447634
H40   H     H_    0.742639 0.155014 0.334907 0.188735
H41   H     H_    0.849330 0.195299 0.290986 0.198422
N4    N     N_3   0.455795 0.196665 0.656112 -0.477885
H42   H     H_    0.410008 0.131257 0.644111 0.164554
H43   H     H_    0.393327 0.243531 0.634091 0.097832
N5    N     N_3   0.876476 0.867558 0.677216 -0.507286
H44   H     H_    0.850687 0.847975 0.712471 0.181555
H45   H     H_    0.902351 0.938686 0.681401 0.183477
H46   H     H_    0.168769 0.202236 0.729023 0.160131
N6    N     N_3   0.167084 0.691467 0.333704 -0.459443
H47   H     H_    0.191480 0.663347 0.298070 0.183022
H48   H     H_    0.270274 0.701898 0.355695 0.242003
N7    N     N_3   0.918187 0.765250 0.321215 -0.506798
H49   H     H_    0.891753 0.709136 0.341330 0.131358
H50   H     H_    0.894311 0.741002 0.284151 0.206619
H51   H     H_    0.121951 0.792210 0.250607 0.109263
N8    N     N_3   0.483442 0.832216 0.391579 -0.510505
H52   H     H_    0.445995 0.778557 0.411742 0.226429
H53   H     H_    0.385789 0.865889 0.375205 0.208614
N9    N     N_3   0.541801 0.410147 0.765324 -0.467317
H54   H     H_    0.537478 0.338018 0.768138 0.224686
H55   H     H_    0.528967 0.443933 0.800513 0.179024
H56   H     H_    0.223792 0.255402 0.879713 0.120215
H57   H     H_    0.052312 0.543960 0.713294 0.134430
N10   N     N_3   0.852106 0.574847 0.409719 -0.417571
H58   H     H_    0.816054 0.644615 0.409852 0.144844
H59   H     H_    0.772688 0.536928 0.428120 0.207432
N11   N     N_3   0.466539 0.555175 0.626139 -0.462134
H60   H     H_    0.423402 0.573216 0.590997 0.202318
H61   H     H_    0.478292 0.613662 0.651187 0.158952
H62   H     H_    0.329137 0.303847 0.518942 0.077602
H63   H     H_    0.232628 0.033262 0.560756 0.076170
H64   H     H_    0.920350 0.973912 0.430971 0.087008
N12   N     N_3   0.920443 0.700975 0.507931 -0.437313
H65   H     H_    0.037891 0.716702 0.518850 0.192631
H66   H     H_    0.882167 0.680033 0.540871 0.187459
H67   H     H_    0.023613 0.295746 0.739237 0.126522
N13   N     N_3   0.427839 0.900708 0.567408 -0.479154
H68   H     H_    0.427979 0.940736 0.601375 0.140059
H69   H     H_    0.311531 0.888750 0.553886 0.194397
H70   H     H_    0.960979 0.180817 0.716599 0.119280
N14   N     N_3   0.278324 0.247442 0.329971 -0.470758
H71   H     H_    0.380906 0.205966 0.327816 0.150596
H72   H     H_    0.308173 0.313752 0.320321 0.167336

loop_
_geom_bond_atom_site_label_1
_geom_bond_atom_site_label_2
_ccdc_geom_bond_type
C25   C46   A    
C12   O3    S    
N10   H58   S    
O27   P3    S    
C10   C20   A    
C1    H17   S    
C5    O11   S    
C17   C18   A    
C65   H9    S    
Ba1   O22   S    
C53   C54   A    
Ba1   O26   S    
C22   N11   S    
O28   P3    D    
C38   H57   S    
Ba2   O12   S    
C5    C6    S    
C28   H56   S    
C37   P1    S    
C51   C52   A    
C54   C55   A    
C2    N4    S    
N10   H59   S    
Ba2   O6    S    
C35   C36   S    
C11   C16   D    
C3    C4    S    
O3    P3    S    
N6    H47   S    
N8    H53   S    
O2    P2    S    
N4    H43   S    
C7    H20   S    
C60   N12   S    
C28   C29   A    
C65   O2    S    
C52   P3    S    
C10   O20   D    
C19   H26   S    
C65   H38   S    
C31   C47   A    
C54   C63   A    
C3    O15   S    
C22   C37   D    
N13   H68   S    
C34   C45   S    
N14   H72   S    
Ba1   Ba2   S    
Ba1   O13   S    
O6    P8    S    
C7    N8    S    
N11   H60   S    
O1    P1    D    
O25   P6    S    
C23   H70   S    
C33   O19   D    
C25   C42   A    
C56   C64   S    
C5    N6    S    
C9    O18   D    
C8    H21   S    
N12   H66   S    
C32   O21   D    
C9    N1    Am   
C22   C36   S    
N7    H50   S    
C49   C55   A    
Ba1   P2    S    
C7    C8    S    
N3    H41   S    
O10   P5    D    
C4    N5    S    
C66   H11   S    
C13   C21   S    
C44   H30   S    
C8    H24   S    
C57   C58   A    
C12   C23   S    
N9    H55   S    
O11   P5    S    
Ba1   O27   S    
C34   O7    S    
C2    H1    S    
C17   C41   A    
C31   C32   A    
C2    O25   S    
C19   C43   A    
C66   H10   S    
C9    C18   A    
Ba2   O5    S    
C57   C59   A    
C4    H16   S    
C39   N2    S    
C65   C66   S    
Ba2   P4    S    
O8    P7    S    
O15   P7    S    
O4    P4    D    
C17   C20   A    
C37   C38   D    
C27   H27   S    
C62   H64   S    
Ba2   O14   S    
C14   C15   D    
C64   H37   S    
N14   H71   S    
C34   N14   S    
C40   C43   A    
C32   N2    Am   
C41   C42   A    
C45   H2    S    
C60   C61   A    
C13   P8    S    
C3    H13   S    
Ba2   O9    S    
C56   H5    S    
N7    H49   S    
C26   C30   A    
O26   P2    D    
C64   H8    S    
C15   C16   S    
C21   N10   S    
C11   H29   S    
C18   C19   A    
C48   H34   S    
C45   H3    S    
Ba1   O1    S    
C59   P7    S    
C46   C47   A    
C20   C44   A    
O24   P1    S    
N5    H45   S    
C1    H39   S    
C14   C21   D    
C11   C13   S    
N9    H54   S    
C50   P2    S    
C53   H63   S    
C29   C33   A    
C12   H23   S    
C15   H25   S    
C40   C41   A    
O16   P8    D    
C1    C2    S    
C66   N3    S    
C50   C51   A    
C56   H6    S    
N3    H40   S    
C42   C48   A    
C46   H31   S    
C52   C53   A    
Ba2   O4    S    
C4    H15   S    
C61   P5    S    
C29   C30   A    
C14   P4    S    
O14   P7    D    
O9    P5    S    
C51   H62   S    
Ba2   O13   S    
C12   H32   S    
C35   N9    S    
C44   C48   A    
C24   C26   A    
O13   P2    S    
C34   H36   S    
C58   C62   A    
C6    H19   S    
C30   C31   A    
N6    H48   S    
O22   P6    S    
C16   N1    S    
C33   N2    Am   
C6    H51   S    
N4    H42   S    
C57   C63   A    
C47   H33   S    
C3    H14   S    
Ba2   O8    S    
C10   N1    Am   
O23   P6    D    
C56   O24   S    
C64   H7    S    
O17   P8    S    
C1    H12   S    
C7    O17   S    
N13   H69   S    
C6    H18   S    
Ba1   O12   S    
C24   C40   A    
C35   C39   D    
C59   C60   A    
N11   H61   S    
C45   H4    S    
N8    H52   S    
C50   C55   A    
O12   P1    S    
C27   C28   A    
C61   C62   A    
C23   H46   S    
C5    N7    S    
N5    H44   S    
C8    H22   S    
C24   C27   A    
Ba1   O8    S    
C25   C26   A    
C36   P6    S    
O7    P4    S    
C38   C39   S    
C49   C58   A    
Ba1   P1    S    
C43   H28   S    
C49   H35   S    
Ba1   O5    S    
N12   H65   S    
C23   H67   S    
O5    P4    S    
C63   N13   S    
