data_mof_unit_30262.cif
_audit_creation_date              2012-12-10T19:59:27-0500
_audit_creation_method            fapswitch 2.2
_symmetry_space_group_name_H-M    P1
_symmetry_Int_Tables_number       1
_space_group_crystal_system       triclinic
_cell_length_a                    15.152303
_cell_length_b                    14.122209
_cell_length_c                    10.696036
_cell_angle_alpha                 90.108692
_cell_angle_beta                  89.746405
_cell_angle_gamma                 90.10187
_cell_volume                      2288.75033776

loop_
_atom_site_label
_atom_site_type_symbol
_atom_type_description
_atom_site_fract_x
_atom_site_fract_y
_atom_site_fract_z
_atom_type_partial_charge
C1    C     C_R   0.327417 0.500017 0.500389 0.921665
C2    C     C_R   0.450019 0.104926 0.587275 -0.342596
C3    C     C_R   0.549732 0.204591 0.414289 0.017480
C4    C     C_R   0.450906 0.204406 0.586050 0.018728
C5    C     C_R   0.502570 0.053650 0.502295 0.181444
C6    C     C_R   0.531395 0.894220 0.607882 0.081803
C7    C     C_R   0.477005 0.896064 0.394224 0.114795
C8    C     C_R   0.529011 0.794451 0.603122 0.011369
C9    C     C_R   0.475533 0.796315 0.396417 -0.100834
C10   C     C_R   0.502850 0.947053 0.502432 0.006345
C11   C     C_R   0.501070 0.499983 0.259950 0.852824
C12   C     C_R   0.672493 0.500090 0.502947 0.929341
C13   C     C_R   0.500948 0.500184 0.740085 0.869946
C14   C     C_R   0.487420 0.583462 0.063838 -0.003026
C15   C     C_R   0.489479 0.584273 0.936445 0.012136
C16   C     C_R   0.507912 0.500898 0.128260 -0.062945
C17   C     C_R   0.509283 0.501538 0.871538 -0.087133
C18   C     C_R   0.540695 0.421695 0.064183 -0.208160
C19   C     C_R   0.541121 0.421887 0.934858 -0.213211
C20   C     C_3   0.410744 0.648057 0.927858 0.030633
C21   C     C_3   0.408641 0.647960 0.070642 -0.039585
C22   C     C_R   0.092758 0.583508 0.490152 -0.321054
C23   C     C_R   0.185207 0.416781 0.539556 0.419582
C24   C     C_R   0.904407 0.584995 0.552453 -0.310446
C25   C     C_R   0.184500 0.585914 0.488526 0.421825
C26   C     C_R   0.813855 0.586811 0.533216 0.422633
C27   C     C_R   0.231289 0.500582 0.507959 -0.255516
C28   C     C_R   0.768353 0.500366 0.514486 -0.259595
C29   C     C_3   0.658874 0.927731 0.736798 -0.815315
C30   C     C_3   0.364682 0.975945 0.274732 -0.808368
C31   C     C_3   0.361997 0.806860 0.869823 -0.820469
C32   C     C_3   0.251468 0.659506 0.118671 -0.752440
C33   C     C_3   0.202056 0.742830 0.541828 0.111588
C34   C     C_R   0.815477 0.414092 0.510128 0.418861
C35   C     C_3   0.274048 0.817463 0.548418 -0.822873
C36   C     C_3   0.798468 0.732247 0.440806 0.114267
C37   C     C_3   0.726101 0.802509 0.409028 -0.815190
C38   C     C_3   0.192189 0.265874 0.462318 0.121253
C39   C     C_3   0.253935 0.182391 0.444958 -0.833810
C40   C     C_3   0.791450 0.271318 0.605459 0.116981
C41   C     C_3   0.724898 0.191010 0.615285 -0.818788
C42   C     C_R   0.095294 0.422154 0.564309 -0.310960
C43   C     C_R   0.906977 0.416911 0.509146 -0.310761
C44   C     C_R   0.048022 0.503119 0.532267 0.067349
C45   C     C_R   0.951756 0.501432 0.533711 0.063676
C46   C     C_R   0.552376 0.105089 0.414351 -0.236966
H1    H     H_    0.562247 0.358879 0.113325 0.159366
H2    H     H_    0.942306 0.352210 0.488641 0.143601
H3    H     H_    0.593454 0.068560 0.346730 0.143196
H4    H     H_    0.408598 0.068168 0.654264 0.140358
H5    H     H_    0.588624 0.243692 0.346789 0.143258
H6    H     H_    0.411098 0.243295 0.652734 0.162654
H7    H     H_    0.544240 0.006668 0.735159 0.240123
H8    H     H_    0.677578 0.959923 0.827719 0.237360
H9    H     H_    0.696038 0.964175 0.661071 0.240393
H10   H     H_    0.677342 0.851685 0.739022 0.259398
H11   H     H_    0.474607 0.909037 0.201808 0.216565
H12   H     H_    0.562547 0.359027 0.885113 0.162485
H13   H     H_    0.357882 0.026238 0.195753 0.244624
H14   H     H_    0.344860 0.012738 0.362195 0.261423
H15   H     H_    0.320189 0.914666 0.257965 0.225378
H16   H     H_    0.491582 0.769118 0.909509 0.235321
H17   H     H_    0.383010 0.869461 0.814484 0.247679
H18   H     H_    0.343246 0.830653 0.965362 0.240387
H19   H     H_    0.303847 0.774382 0.823526 0.243038
H20   H     H_    0.339699 0.572054 0.207574 0.245722
H21   H     H_    0.194846 0.617936 0.155666 0.242661
H22   H     H_    0.235877 0.681149 0.021535 0.236738
H23   H     H_    0.551437 0.754005 0.682444 0.172211
H24   H     H_    0.260364 0.723494 0.178048 0.247554
H25   H     H_    0.190128 0.716826 0.639014 0.124591
H26   H     H_    0.141168 0.777150 0.506340 0.130413
H27   H     H_    0.288149 0.845031 0.453636 0.260471
H28   H     H_    0.252543 0.876965 0.609271 0.194997
H29   H     H_    0.334775 0.786023 0.587936 0.277139
H30   H     H_    0.814657 0.692392 0.353357 0.125600
H31   H     H_    0.857738 0.772465 0.471378 0.130203
H32   H     H_    0.707973 0.844391 0.492956 0.258163
H33   H     H_    0.749528 0.851585 0.334952 0.193228
H34   H     H_    0.454341 0.757608 0.315028 0.148526
H35   H     H_    0.667067 0.764090 0.374459 0.264224
H36   H     H_    0.182633 0.299147 0.368737 0.132470
H37   H     H_    0.127927 0.237873 0.496802 0.127868
H38   H     H_    0.265311 0.147025 0.536054 0.252408
H39   H     H_    0.223782 0.130567 0.379595 0.198823
H40   H     H_    0.317664 0.206844 0.404782 0.271307
H41   H     H_    0.787721 0.313006 0.694129 0.128423
H42   H     H_    0.858277 0.239562 0.596288 0.128319
H43   H     H_    0.725389 0.148265 0.528056 0.252712
H44   H     H_    0.742130 0.144443 0.695032 0.197962
H45   H     H_    0.353630 0.613703 0.880591 0.159810
H46   H     H_    0.657911 0.220198 0.631770 0.265170
H47   H     H_    0.423786 0.717200 0.115123 0.138686
H48   H     H_    0.057059 0.645059 0.458272 0.139732
H49   H     H_    0.937561 0.650124 0.577868 0.143922
H50   H     H_    0.062223 0.360903 0.603145 0.144362
N1    N     N_R   0.500000 0.252470 0.500000 -0.100561
N2    N     N_R   0.500000 0.747550 0.500000 -0.122070
N3    N     N_2   0.564994 0.938690 0.717791 -0.313636
N4    N     N_2   0.455131 0.944294 0.281865 -0.303030
N5    N     N_2   0.433815 0.739836 0.876005 -0.290889
N6    N     N_2   0.330295 0.601967 0.120882 -0.291691
O1    O     O_R   0.369060 0.579480 0.500010 -0.568709
O2    O     O_3   0.769136 0.672378 0.538698 -0.585648
O3    O     O_3   0.228374 0.330545 0.549829 -0.587521
O4    O     O_3   0.772314 0.327678 0.499551 -0.586846
O5    O     O_R   0.630940 0.579480 0.499990 -0.570897
O6    O     O_R   0.369050 0.420520 0.500010 -0.574112
O7    O     O_R   0.630950 0.420520 0.499990 -0.577473
O8    O     O_R   0.499990 0.579490 0.316780 -0.639504
O9    O     O_R   0.500010 0.579490 0.683220 -0.623466
O10   O     O_R   0.499980 0.420540 0.316780 -0.633937
O11   O     O_R   0.500020 0.420540 0.683220 -0.638171
O12   O     O_3   0.228566 0.669422 0.459308 -0.587330
Zn1   Zn    Zn3+2 0.500000 0.606140 0.500000 0.971410
Zn2   Zn    Zn3+2 0.500000 0.393860 0.500000 0.966576

loop_
_geom_bond_atom_site_label_1
_geom_bond_atom_site_label_2
_ccdc_geom_bond_type
C7    C10   A    
C41   H43   S    
C35   H28   S    
C9    N2    A    
C38   H37   S    
H20   N6    S    
C2    C4    A    
C18   H1    S    
H7    N3    S    
C37   H33   S    
C46   H3    S    
C35   H29   S    
C33   O12   S    
C23   C42   A    
C4    H6    S    
C42   H50   S    
C24   C45   A    
C31   N5    S    
C40   H41   S    
C36   C37   S    
C24   C26   A    
C39   H38   S    
C36   H31   S    
C38   C39   S    
C33   C35   S    
C29   H8    S    
C23   O3    S    
C30   N4    S    
C7    C9    A    
C18   C19   A    
C8    N2    A    
C36   H30   S    
O7    Zn2   S    
C26   O2    S    
C22   C44   A    
C22   C25   A    
C30   H14   S    
C23   C27   A    
C2    H4    S    
C43   H2    S    
C1    O1    A    
C33   H26   S    
C32   H22   S    
H16   N5    S    
C41   H44   S    
C28   C34   A    
C4    N1    A    
C38   H36   S    
C11   O8    A    
C22   H48   S    
C37   H35   S    
C42   C44   A    
C12   O7    A    
C19   H12   S    
C15   C20   S    
C20   H45   S    
C7    N4    S    
C29   N3    S    
C34   O4    S    
C31   H17   S    
C24   H49   S    
C3    H5    S    
C6    C8    A    
C20   N5    S    
C29   H9    S    
H11   N4    S    
C9    H34   S    
O1    Zn1   S    
C11   C16   S    
C3    N1    A    
C30   H13   S    
C8    H23   S    
N1    Zn2   S    
C43   C45   A    
O5    Zn1   S    
C32   H21   S    
C21   N6    S    
C40   C41   S    
C12   C28   S    
C32   N6    S    
C2    C5    A    
C39   H39   S    
O10   Zn2   S    
C44   C45   S    
C14   C21   S    
C40   O4    S    
C37   H32   S    
C31   H19   S    
C35   H27   S    
C11   O10   A    
C31   H18   S    
C34   C43   A    
C6    C10   A    
C12   O5    A    
C32   H24   S    
C15   C17   A    
C29   H10   S    
C25   C27   A    
C5    C46   A    
C3    C46   A    
C26   C28   A    
C13   C17   S    
C36   O2    S    
C6    N3    S    
O11   Zn2   S    
C38   O3    S    
C5    C10   S    
C13   O9    A    
C25   O12   S    
O6    Zn2   S    
N2    Zn1   S    
C21   H47   S    
C17   C19   A    
C14   C16   A    
C33   H25   S    
C1    O6    A    
C41   H46   S    
C20   C21   S    
C16   C18   A    
C30   H15   S    
C1    C27   S    
C14   C15   A    
O9    Zn1   S    
C39   H40   S    
O8    Zn1   S    
C13   O11   A    
C40   H42   S    
