data_mof_unit_8886.cif
_audit_creation_date              2013-03-05T16:12:50-0500
_audit_creation_method            fapswitch 2.2
_symmetry_space_group_name_H-M    P1
_symmetry_Int_Tables_number       1
_space_group_crystal_system       triclinic
_cell_length_a                    25.840612
_cell_length_b                    6.936172
_cell_length_c                    21.775572
_cell_angle_alpha                 90.05882
_cell_angle_beta                  96.029811
_cell_angle_gamma                 89.980627
_cell_volume                      3881.34743883

loop_
_atom_site_label
_atom_site_type_symbol
_atom_site_description
_atom_site_fract_x
_atom_site_fract_y
_atom_site_fract_z
_atom_type_partial_charge
O1    O     O_R   0.208650 0.594520 0.175450 -0.593091
O2    O     O_R   0.791350 0.405480 0.824550 -0.601762
O3    O     O_R   0.291350 0.094520 0.324550 -0.592252
O4    O     O_R   0.708650 0.905480 0.675450 -0.600624
O5    O     O_R   0.192980 0.260780 0.300160 -0.558609
O6    O     O_R   0.807020 0.739220 0.699840 -0.565228
O7    O     O_R   0.307020 0.760780 0.199840 -0.558591
O8    O     O_R   0.692980 0.239220 0.800160 -0.553303
C1    C     C_R   0.179475 0.432288 0.319264 0.999585
C2    C     C_R   0.821200 0.567511 0.681697 1.017088
C3    C     C_R   0.320460 0.932045 0.180658 1.001831
C4    C     C_R   0.679237 0.067855 0.819012 1.017897
O9    O     O_R   0.202550 0.264660 0.174420 -0.589609
O10   O     O_R   0.797450 0.735340 0.825580 -0.599636
O11   O     O_R   0.297450 0.764660 0.325580 -0.592525
O12   O     O_R   0.702550 0.235340 0.674420 -0.591673
O13   O     O_R   0.300990 0.096480 0.197920 -0.606953
O14   O     O_R   0.699010 0.903520 0.802080 -0.603517
O15   O     O_R   0.199010 0.596480 0.302080 -0.609104
O16   O     O_R   0.800990 0.403520 0.697920 -0.600475
C5    C     C_R   0.189616 0.433231 0.152493 0.965379
C6    C     C_R   0.810217 0.566029 0.847747 0.998829
C7    C     C_R   0.310210 0.933306 0.347696 0.962169
C8    C     C_R   0.690450 0.065827 0.651748 0.985918
O17   O     O_3   0.282290 0.427760 0.257860 -0.272200
O18   O     O_3   0.717710 0.572240 0.742140 -0.277459
O19   O     O_3   0.217710 0.927760 0.242140 -0.273009
O20   O     O_3   0.782290 0.072240 0.757860 -0.281390
V1    V     V_3+5 0.244010 0.152080 0.248540 1.171490
V2    V     V_3+5 0.755990 0.847920 0.751460 1.159658
V3    V     V_3+5 0.255990 0.652080 0.251460 1.169228
V4    V     V_3+5 0.744010 0.347920 0.748540 1.168353
C9    C     C_R   0.656353 0.050821 0.592899 -0.352772
C10   C     C_R   0.345550 0.931942 0.405824 -0.341886
C11   C     C_R   0.843972 0.555536 0.906989 -0.363120
C12   C     C_R   0.153518 0.431413 0.095030 -0.342832
C13   C     C_R   0.654379 0.008865 0.481752 0.459184
C14   C     C_R   0.356765 0.795006 0.509183 0.472977
C15   C     C_R   0.849863 0.613306 0.017652 0.483419
C16   C     C_R   0.140008 0.292735 0.992044 0.496828
C17   C     C_R   0.681630 0.038843 0.539637 -0.346648
C18   C     C_R   0.325714 0.840328 0.455191 -0.343616
C19   C     C_R   0.821326 0.608792 0.959705 -0.352196
C20   C     C_R   0.172195 0.338068 0.045198 -0.354140
C21   C     C_R   0.601184 0.025115 0.588762 0.635010
C22   C     C_R   0.399764 0.978253 0.409958 0.652394
C23   C     C_R   0.897495 0.500722 0.912217 0.609048
C24   C     C_R   0.099847 0.484812 0.091530 0.651312
C25   C     C_R   0.573473 0.974468 0.530502 -0.054863
C26   C     C_R   0.433342 0.914796 0.462973 -0.049130
C27   C     C_R   0.925674 0.483690 0.972275 -0.056779
C28   C     C_R   0.064843 0.417331 0.040272 -0.054718
C29   C     C_R   0.599503 0.984108 0.476149 -0.341814
C30   C     C_R   0.410794 0.836707 0.514635 -0.325338
C31   C     C_R   0.902084 0.545978 0.025187 -0.321515
C32   C     C_R   0.085523 0.321490 0.990028 -0.300134
C33   C     C_R   0.519528 0.920217 0.524788 -0.182459
C34   C     C_R   0.489140 0.930542 0.466631 -0.192925
C35   C     C_R   0.978130 0.413640 0.980591 -0.163836
C36   C     C_R   0.009471 0.445408 0.036889 -0.185643
C37   C     C_R   0.516402 0.927738 0.413601 0.535912
C38   C     C_R   0.496812 0.829032 0.573402 0.540520
C39   C     C_R   0.982746 0.467563 0.089773 0.523640
C40   C     C_R   0.997274 0.280943 0.939405 0.534098
C41   C     C_R   0.569877 0.967762 0.417837 0.455247
C42   C     C_R   0.442984 0.800592 0.570162 0.454483
C43   C     C_R   0.930452 0.530316 0.084426 0.452490
C44   C     C_R   0.051048 0.245535 0.940965 0.449056
H1    H     H_    0.285174 0.796908 0.450975 0.157117
H2    H     H_    0.723711 0.050878 0.543175 0.164537
H3    H     H_    0.213140 0.301390 0.047378 0.159675
H4    H     H_    0.781179 0.657269 0.955291 0.171583
C45   C     C_R   0.428102 0.789212 0.080127 0.443084
C46   C     C_R   0.560643 0.193129 0.905036 0.439084
C47   C     C_R   0.070916 0.292484 0.418717 0.445069
C48   C     C_R   0.940153 0.690496 0.596529 0.439183
C49   C     C_R   0.384314 0.773389 0.114019 0.455113
C50   C     C_R   0.603081 0.215612 0.869141 0.469877
C51   C     C_R   0.115060 0.275383 0.385451 0.453360
C52   C     C_R   0.900326 0.708682 0.636050 0.467952
C53   C     C_R   0.361572 0.941116 0.136801 -0.443607
C54   C     C_R   0.635811 0.056320 0.859653 -0.419893
C55   C     C_R   0.138114 0.442377 0.362791 -0.443855
C56   C     C_R   0.864947 0.554815 0.641722 -0.426523
C57   C     C_R   0.375491 0.118703 0.112732 -0.398160
C58   C     C_R   0.626604 0.880624 0.888883 -0.410096
C59   C     C_R   0.123934 0.620676 0.386302 -0.401140
C60   C     C_R   0.871709 0.383182 0.608835 -0.387248
H5    H     H_    0.356901 0.247638 0.126450 0.244597
H6    H     H_    0.650680 0.756843 0.881617 0.226487
H7    H     H_    0.142463 0.749328 0.372330 0.244870
H8    H     H_    0.846313 0.262229 0.614714 0.206856
C61   C     C_R   0.409957 0.128857 0.067081 0.614607
C62   C     C_R   0.587469 0.862540 0.928894 0.611788
C63   C     C_R   0.089107 0.632218 0.431530 0.610595
C64   C     C_R   0.910505 0.365676 0.567957 0.632094
C65   C     C_R   0.439772 0.967372 0.054551 -0.330162
C66   C     C_R   0.553821 0.017719 0.936232 -0.316122
C67   C     C_R   0.059209 0.471118 0.444082 -0.333267
C68   C     C_R   0.944907 0.519842 0.562151 -0.320283
C69   C     C_1   0.480290 0.983436 0.013091 0.145592
C70   C     C_1   0.513788 0.998842 0.978290 0.150327
C71   C     C_1   0.018484 0.487921 0.485256 0.145860
C72   C     C_1   0.984923 0.502963 0.519995 0.166416
O21   O     O_3   0.592896 0.983971 0.363564 -0.555615
C73   C     C_3   0.585101 0.173614 0.341085 -0.068799
H9    H     H_    0.602265 0.281861 0.375156 0.117749
H10   H     H_    0.543064 0.204436 0.328402 0.105744
H11   H     H_    0.605047 0.189097 0.298679 0.175125
O22   O     O_3   0.422807 0.728112 0.621779 -0.566511
C74   C     C_3   0.415927 0.882379 0.662413 -0.069483
H12   H     H_    0.389304 0.993979 0.639991 0.139197
H13   H     H_    0.453820 0.948429 0.680138 0.121304
H14   H     H_    0.397820 0.825635 0.702693 0.158040
O23   O     O_3   0.904705 0.548748 0.137040 -0.574744
C75   C     C_3   0.929698 0.686267 0.178074 0.020837
H15   H     H_    0.949053 0.803867 0.154175 0.063734
H16   H     H_    0.958090 0.614582 0.212430 0.128070
H17   H     H_    0.899938 0.754752 0.204146 0.165289
O24   O     O_3   0.069149 0.111685 0.900713 -0.587457
C76   C     C_3   0.055800 0.166837 0.838509 0.018242
H18   H     H_    0.053854 0.326201 0.831795 0.100263
H19   H     H_    0.018579 0.098799 0.819936 0.121303
H20   H     H_    0.086144 0.111514 0.810616 0.155599
O25   O     O_3   0.418970 0.119200 0.372605 -0.627967
C77   C     C_3   0.407889 0.083209 0.308684 -0.128808
H21   H     H_    0.375846 0.177984 0.289216 0.154577
H22   H     H_    0.399745 0.928953 0.297085 0.097075
H23   H     H_    0.442369 0.125061 0.285391 0.165069
O26   O     O_3   0.571571 0.090190 0.634645 -0.640816
C78   C     C_3   0.588550 0.018266 0.693858 -0.168689
H24   H     H_    0.613880 0.126374 0.719083 0.100112
H25   H     H_    0.608014 0.875096 0.693170 0.141349
H26   H     H_    0.554164 0.000265 0.719821 0.158403
O27   O     O_3   0.082761 0.632894 0.127898 -0.627706
C79   C     C_3   0.093200 0.599163 0.192016 -0.119727
H27   H     H_    0.125985 0.690756 0.211309 0.160118
H28   H     H_    0.099919 0.444644 0.204374 0.092945
H29   H     H_    0.059087 0.647481 0.214931 0.154511
O28   O     O_3   0.926414 0.510275 0.861771 -0.654433
C80   C     C_3   0.907146 0.387525 0.812971 -0.099226
H30   H     H_    0.883877 0.472591 0.777498 0.078247
H31   H     H_    0.884564 0.262129 0.827803 0.158364
H32   H     H_    0.940616 0.329725 0.790792 0.144513
N1    N     N_R   0.684165 0.988729 0.430148 0.260339
O29   O     O_R   0.718966 0.117818 0.420658 -0.396196
O30   O     O_R   0.685109 0.823269 0.402054 -0.335989
N2    N     N_R   0.332954 0.690032 0.555436 0.258041
O31   O     O_R   0.291016 0.757334 0.575963 -0.414770
O32   O     O_R   0.345471 0.510289 0.565683 -0.360241
N3    N     N_R   0.825501 0.697222 0.067442 0.268345
O33   O     O_R   0.842543 0.861254 0.090462 -0.398109
O34   O     O_R   0.779936 0.636367 0.079136 -0.374465
N4    N     N_R   0.164029 0.220752 0.940188 0.263239
O35   O     O_R   0.161462 0.322039 0.889715 -0.387012
O36   O     O_R   0.197460 0.080212 0.947703 -0.395561
O37   O     O_3   0.492848 0.863970 0.357370 -0.602152
C81   C     C_3   0.494076 0.660550 0.356558 -0.233496
H33   H     H_    0.471163 0.598267 0.392244 0.145722
H34   H     H_    0.534749 0.605310 0.362737 0.147153
H35   H     H_    0.476065 0.610091 0.310875 0.162664
O38   O     O_3   0.527204 0.748019 0.622738 -0.615538
C82   C     C_3   0.543519 0.563447 0.605420 -0.188701
H36   H     H_    0.568030 0.571546 0.566422 0.122233
H37   H     H_    0.509709 0.466134 0.593374 0.172708
H38   H     H_    0.567686 0.498949 0.645284 0.179612
O39   O     O_3   0.004314 0.397436 0.146084 -0.619019
C83   C     C_3   0.995326 0.197057 0.148146 -0.269791
H39   H     H_    0.015213 0.119184 0.112559 0.148928
H40   H     H_    0.952933 0.164055 0.142697 0.174046
H41   H     H_    0.011658 0.142367 0.193991 0.160602
O40   O     O_3   0.963198 0.163308 0.903396 -0.631939
C84   C     C_3   0.948974 0.007039 0.939504 -0.239934
H42   H     H_    0.928615 0.056608 0.979251 0.142051
H43   H     H_    0.983382 0.917412 0.956031 0.168105
H44   H     H_    0.921471 0.914284 0.910258 0.184775
O41   O     O_3   0.455577 0.628101 0.065337 -0.538637
C85   C     C_3   0.486853 0.566256 0.118649 -0.033531
H45   H     H_    0.462733 0.512959 0.154510 0.118854
H46   H     H_    0.513536 0.682758 0.137766 0.081034
H47   H     H_    0.511319 0.444245 0.105765 0.155658
O42   O     O_3   0.529207 0.349817 0.914161 -0.536786
C86   C     C_3   0.481393 0.328028 0.876963 -0.139395
H48   H     H_    0.458614 0.205021 0.892268 0.110294
H49   H     H_    0.486834 0.308421 0.827393 0.080279
H50   H     H_    0.458006 0.460701 0.880976 0.168711
O43   O     O_3   0.042815 0.132353 0.432807 -0.536497
C87   C     C_3   0.012251 0.070951 0.378864 -0.035436
H51   H     H_    0.036905 0.016122 0.343718 0.115642
H52   H     H_    0.986170 0.188212 0.359050 0.077230
H53   H     H_    0.987184 0.950115 0.391158 0.156327
O44   O     O_3   0.971583 0.847359 0.587694 -0.534392
C88   C     C_3   0.018416 0.829639 0.626814 -0.100982
H54   H     H_    0.038246 0.689702 0.620556 0.084731
H55   H     H_    0.011766 0.848169 0.675940 0.101583
H56   H     H_    0.045127 0.946266 0.615413 0.159061
O45   O     O_3   0.361057 0.595979 0.118729 -0.604855
C89   C     C_3   0.317590 0.587915 0.073291 -0.058125
H57   H     H_    0.329429 0.608225 0.026059 0.118998
H58   H     H_    0.287450 0.696579 0.081536 0.115403
H59   H     H_    0.298679 0.445195 0.074940 0.114443
O46   O     O_3   0.616416 0.397290 0.849540 -0.594443
C90   C     C_3   0.581516 0.459316 0.799204 -0.098024
H60   H     H_    0.552291 0.558419 0.815844 0.166823
H61   H     H_    0.561603 0.339944 0.771869 0.067890
H62   H     H_    0.603712 0.542970 0.767367 0.148801
O47   O     O_3   0.138186 0.097488 0.381098 -0.605285
C91   C     C_3   0.181333 0.089194 0.426970 -0.053469
H63   H     H_    0.169283 0.112508 0.473985 0.117336
H64   H     H_    0.211925 0.195668 0.418519 0.112131
H65   H     H_    0.199714 0.945254 0.426170 0.117496
O48   O     O_3   0.895616 0.881302 0.666970 -0.586601
C92   C     C_3   0.919675 0.866354 0.728292 -0.137506
H66   H     H_    0.943280 0.997872 0.739064 0.132992
H67   H     H_    0.945952 0.739419 0.737286 0.086667
H68   H     H_    0.889586 0.861654 0.761009 0.168081
O49   O     O_3   0.413249 0.295918 0.033651 -0.548452
C93   C     C_3   0.378119 0.281117 0.979648 -0.123618
H69   H     H_    0.337268 0.266701 0.990865 0.122122
H70   H     H_    0.387727 0.157350 0.950380 0.097857
H71   H     H_    0.380730 0.414579 0.952135 0.157231
O50   O     O_3   0.579137 0.689413 0.958029 -0.562786
C94   C     C_3   0.623717 0.637880 0.997665 -0.036608
H72   H     H_    0.639071 0.760957 0.027077 0.107781
H73   H     H_    0.654497 0.578242 0.971121 0.137106
H74   H     H_    0.612727 0.522410 0.029035 0.155052
O51   O     O_3   0.085062 0.801234 0.463855 -0.548962
C95   C     C_3   0.118285 0.788362 0.519444 -0.112304
H75   H     H_    0.116516 0.926519 0.544804 0.156111
H76   H     H_    0.159474 0.764575 0.510620 0.123126
H77   H     H_    0.105836 0.671927 0.549709 0.099773
O52   O     O_3   0.918312 0.195802 0.536104 -0.567491
C96   C     C_3   0.870979 0.118122 0.508447 -0.067203
H78   H     H_    0.843915 0.231253 0.487746 0.119193
H79   H     H_    0.852038 0.029499 0.542166 0.136411
H80   H     H_    0.879757 0.020508 0.470506 0.160679

loop_
_geom_bond_atom_site_label_1
_geom_bond_atom_site_label_2
_geom_bond_distance
_ccdc_geom_bond_type
O17   V3    1.697649 S    
C55   C59   1.401292 A    
C90   H60   1.109397 S    
C60   C64   1.413982 A    
C63   O51   1.376382 S    
O1    C5    1.300357 A    
C77   H21   1.106312 S    
C59   H7    1.072167 S    
O19   V1    1.697808 S    
C9    C21   1.430176 A    
C24   O27   1.395899 S    
O3    C7    1.300437 A    
C82   H36   1.112938 S    
C10   C18   1.392679 A    
C68   C72   1.457653 S    
C85   H47   1.109516 S    
C52   C56   1.419417 A    
C78   H26   1.109274 S    
C11   C23   1.427255 A    
C95   H76   1.113440 S    
C85   H45   1.112626 S    
C93   H69   1.112774 S    
C94   H74   1.109410 S    
C25   C33   1.436672 A    
O27   C79   1.413646 S    
C46   C66   1.414150 A    
C5    C12   1.480131 S    
C38   O38   1.382160 S    
C92   H66   1.108660 S    
C3    C53   1.502648 S    
O7    C3    1.318343 A    
C6    C11   1.481233 S    
C90   H61   1.113356 S    
C30   C42   1.416286 A    
C19   H4    1.085097 S    
C36   C39   1.411846 A    
C40   C44   1.407918 A    
C61   O49   1.376488 S    
O9    V1    2.000330 S    
C82   H37   1.113373 S    
N2    O32   1.301489 A    
C14   C18   1.388272 A    
C86   H49   1.111289 S    
O40   C84   1.411003 S    
O4    C8    1.293966 A    
C63   C67   1.402062 A    
C85   H46   1.114025 S    
C92   H68   1.108881 S    
C73   H9    1.113923 S    
C62   C66   1.402940 A    
O23   C75   1.415188 S    
C15   N3    1.432635 S    
O1    V3    1.992235 S    
O13   V1    1.967597 S    
C75   H15   1.114518 S    
C20   H3    1.084315 S    
O2    V4    1.992231 S    
C50   O46   1.386080 S    
O3    V1    1.992747 S    
C43   O23   1.389725 S    
O42   C86   1.412478 S    
C76   H20   1.109213 S    
C58   C62   1.408173 A    
C81   H35   1.109415 S    
O22   C74   1.410833 S    
C57   C61   1.404481 A    
C1    O15   1.316349 A    
C83   H41   1.109406 S    
C15   C31   1.420978 A    
C74   H12   1.113864 S    
C87   H52   1.114063 S    
C2    O16   1.315806 A    
C91   H63   1.112567 S    
C16   C32   1.418023 A    
C66   C70   1.457887 S    
C59   C63   1.404396 A    
C23   O28   1.393603 S    
O2    C6    1.296314 A    
N3    O33   1.300952 A    
C49   O45   1.378265 S    
C89   H57   1.112516 S    
C10   C22   1.430941 A    
C49   C53   1.415808 A    
C11   C19   1.391661 A    
C96   H78   1.114517 S    
C16   C20   1.388365 A    
N4    O36   1.301299 A    
C52   O48   1.384629 S    
C13   C29   1.420899 A    
O11   C7    1.294115 A    
C7    C10   1.480996 S    
C34   C37   1.414560 A    
C83   H40   1.113250 S    
O15   V3    1.968231 S    
C21   O26   1.395344 S    
O12   C8    1.300212 A    
C84   H42   1.113096 S    
C81   H34   1.113410 S    
C39   O39   1.381408 S    
C16   N4    1.433709 S    
C64   O52   1.392008 S    
O45   C89   1.417800 S    
O10   V2    2.000327 S    
C79   H29   1.109158 S    
C41   O21   1.382449 S    
C95   H75   1.108853 S    
N1    O30   1.301397 A    
N1    O29   1.301175 A    
O5    V1    1.969714 S    
C84   H43   1.113278 S    
O17   V1    2.152753 S    
C89   H58   1.111575 S    
C90   H62   1.109433 S    
C39   C43   1.412693 A    
O7    V3    1.970940 S    
O46   C90   1.411677 S    
C38   C42   1.399357 A    
O19   V3    2.152529 S    
O47   C91   1.417846 S    
C26   C34   1.439864 A    
C69   C70   1.213681 T    
C60   H8    1.081248 S    
C48   C68   1.412086 A    
O20   V4    2.152527 S    
C82   H38   1.109220 S    
N2    O31   1.301205 A    
C94   H72   1.114493 S    
C79   H28   1.114409 S    
C67   C71   1.457005 S    
C58   H6    1.081328 S    
C86   H50   1.109162 S    
O39   C83   1.410751 S    
C57   H5    1.071956 S    
O18   V4    1.697650 S    
C15   C19   1.393332 A    
C77   H23   1.109411 S    
C88   H55   1.108475 S    
O49   C93   1.411737 S    
C32   C44   1.418378 A    
C18   H1    1.084670 S    
C42   O22   1.382886 S    
O37   C81   1.411433 S    
C87   H51   1.112601 S    
O8    V4    1.970940 S    
C40   O40   1.382040 S    
C45   C65   1.401824 A    
C86   H48   1.107988 S    
C35   C36   1.413616 A    
O5    C1    1.318789 A    
C48   O44   1.383587 S    
C37   O37   1.381254 S    
C75   H16   1.109230 S    
C50   C54   1.419288 A    
C93   H70   1.112105 S    
O51   C95   1.411412 S    
C14   C30   1.418574 A    
C21   C25   1.433190 A    
O8    C4    1.318848 A    
C88   H56   1.108705 S    
C65   C69   1.456908 S    
C89   H59   1.106408 S    
C47   C67   1.401875 A    
N4    O35   1.300842 A    
C4    C54   1.502567 S    
C74   H13   1.112748 S    
C26   C30   1.427430 A    
O28   C80   1.410435 S    
C96   H79   1.110490 S    
C14   N2    1.433578 S    
C76   H18   1.115580 S    
C1    C55   1.502761 S    
O14   V2    1.967592 S    
C91   H64   1.111511 S    
C83   H39   1.113095 S    
O6    V2    1.969715 S    
O18   V2    2.152753 S    
C87   H53   1.109495 S    
O25   C77   1.413286 S    
C80   H32   1.108656 S    
C27   C35   1.433317 A    
C33   C38   1.413283 A    
C78   H24   1.102900 S    
C61   C65   1.401995 A    
C29   C41   1.416602 A    
O24   C76   1.415230 S    
C93   H71   1.109105 S    
O38   C82   1.411008 S    
O16   V4    1.968233 S    
C84   H44   1.108573 S    
C3    O13   1.316714 A    
C77   H22   1.114137 S    
C47   O43   1.379547 S    
C56   C60   1.408896 A    
C79   H27   1.105824 S    
C78   H25   1.113806 S    
O6    C2    1.318328 A    
C22   O25   1.396580 S    
C23   C27   1.433421 A    
C48   C52   1.414715 A    
C94   H73   1.110708 S    
O11   V3    1.999317 S    
C46   O42   1.383260 S    
O12   V4    1.999318 S    
O21   C73   1.410985 S    
C22   C26   1.438634 A    
C8    C9    1.480511 S    
C75   H17   1.109172 S    
C9    C17   1.391983 A    
O44   C88   1.410271 S    
O10   C6    1.299397 A    
C80   H31   1.114380 S    
O26   C78   1.409336 S    
C92   H67   1.116513 S    
C45   O41   1.379610 S    
C31   C43   1.419416 A    
C54   C58   1.407282 A    
C80   H30   1.099751 S    
O9    C5    1.293889 A    
C51   C55   1.415429 A    
C33   C34   1.420112 A    
C81   H33   1.112922 S    
C73   H10   1.113050 S    
C91   H65   1.106387 S    
C51   O47   1.378335 S    
C64   C68   1.405071 A    
C2    C56   1.499970 S    
O52   C96   1.412101 S    
O20   V2    1.697807 S    
C12   C24   1.429678 A    
C74   H14   1.109159 S    
C27   C31   1.425541 A    
N3    O34   1.301115 A    
C37   C41   1.403028 A    
C13   C17   1.393196 A    
O50   C94   1.411118 S    
C96   H80   1.109326 S    
O4    V2    1.992752 S    
C76   H19   1.108850 S    
C25   C29   1.423096 A    
C12   C20   1.392105 A    
O41   C85   1.410163 S    
C35   C40   1.409754 A    
C24   C28   1.438821 A    
O48   C92   1.416401 S    
C44   O24   1.390379 S    
C28   C36   1.438177 A    
C88   H54   1.112344 S    
C46   C50   1.420656 A    
C4    O14   1.317039 A    
C71   C72   1.213593 T    
C62   O50   1.386116 S    
C45   C49   1.418721 A    
O43   C87   1.410411 S    
C13   N1    1.433882 S    
C47   C51   1.418911 A    
C95   H77   1.111701 S    
C53   C57   1.400904 A    
C28   C32   1.430245 A    
C17   H2    1.085262 S    
C73   H11   1.109104 S    
