data_mof_unit_15694.cif
_audit_creation_date              2013-03-05T15:51:59-0500
_audit_creation_method            fapswitch 2.2
_symmetry_space_group_name_H-M    P1
_symmetry_Int_Tables_number       1
_space_group_crystal_system       triclinic
_cell_length_a                    18.936888
_cell_length_b                    11.10943
_cell_length_c                    18.721898
_cell_angle_alpha                 90.258236
_cell_angle_beta                  91.144674
_cell_angle_gamma                 89.659713
_cell_volume                      3937.78266202

loop_
_atom_site_label
_atom_site_type_symbol
_atom_site_description
_atom_site_fract_x
_atom_site_fract_y
_atom_site_fract_z
_atom_type_partial_charge
O1    O     O_R   0.214300 0.709080 0.827500 -0.532623
O2    O     O_R   0.785700 0.709080 0.172500 -0.533795
O3    O     O_R   0.714300 0.209080 0.827500 -0.532639
O4    O     O_R   0.285700 0.209080 0.172500 -0.533797
O5    O     O_R   0.236190 0.958390 0.823150 -0.496468
O6    O     O_R   0.763810 0.958390 0.176850 -0.492922
O7    O     O_R   0.736190 0.458390 0.823150 -0.496473
O8    O     O_R   0.263810 0.458390 0.176850 -0.492931
C1    C     C_R   0.273737 0.039016 0.855034 0.556953
C2    C     C_R   0.726300 0.038863 0.144922 0.567625
C3    C     C_R   0.773737 0.539016 0.855034 0.556946
C4    C     C_R   0.226300 0.538863 0.144922 0.567616
O9    O     O_R   0.332090 0.075280 0.831290 -0.501489
O10   O     O_R   0.667910 0.075280 0.168710 -0.500601
O11   O     O_R   0.832090 0.575280 0.831290 -0.501458
O12   O     O_R   0.167910 0.575280 0.168710 -0.500613
O13   O     O_R   0.446280 0.918040 0.826620 -0.507353
O14   O     O_R   0.553720 0.918040 0.173380 -0.507203
O15   O     O_R   0.946280 0.418040 0.826620 -0.507355
O16   O     O_R   0.053720 0.418040 0.173380 -0.507203
C5    C     C_R   0.470267 0.821442 0.855326 0.542842
C6    C     C_R   0.529726 0.821495 0.144700 0.552638
C7    C     C_R   0.970267 0.321442 0.855326 0.542828
C8    C     C_R   0.029726 0.321495 0.144700 0.552640
O17   O     O_R   0.457080 0.716270 0.831760 -0.482743
O18   O     O_R   0.542920 0.716270 0.168240 -0.478758
O19   O     O_R   0.957080 0.216270 0.831760 -0.482746
O20   O     O_R   0.042920 0.216270 0.168240 -0.478749
O21   O     O_R   0.320980 0.624440 0.823040 -0.464125
O22   O     O_R   0.679020 0.624440 0.176960 -0.462940
O23   O     O_R   0.820980 0.124440 0.823040 -0.464138
O24   O     O_R   0.179020 0.124440 0.176960 -0.462945
C9    C     C_R   0.260198 0.634876 0.850743 0.547339
C10   C     C_R   0.739912 0.634748 0.149320 0.551172
C11   C     C_R   0.760198 0.134876 0.850743 0.547334
C12   C     C_R   0.239912 0.134748 0.149319 0.551164
O25   O     O_R   0.213880 0.710510 0.665560 -0.529773
O26   O     O_R   0.786120 0.710510 0.334440 -0.544577
O27   O     O_R   0.713880 0.210510 0.665560 -0.529751
O28   O     O_R   0.286120 0.210510 0.334440 -0.544561
O29   O     O_R   0.235800 0.959720 0.673040 -0.504670
O30   O     O_R   0.764200 0.959720 0.326960 -0.481160
O31   O     O_R   0.735800 0.459720 0.673040 -0.504627
O32   O     O_R   0.264200 0.459720 0.326960 -0.481181
C13   C     C_R   0.290949 0.996375 0.638933 0.565259
C14   C     C_R   0.708734 0.996975 0.360996 0.572989
C15   C     C_R   0.790872 0.496568 0.638851 0.564822
C16   C     C_R   0.208727 0.496947 0.360992 0.573065
O33   O     O_R   0.331670 0.076720 0.669350 -0.420076
O34   O     O_R   0.668330 0.076720 0.330650 -0.447287
O35   O     O_R   0.831670 0.576720 0.669350 -0.420179
O36   O     O_R   0.168330 0.576720 0.330650 -0.447178
O37   O     O_R   0.445900 0.919370 0.676500 -0.529149
O38   O     O_R   0.554100 0.919370 0.323500 -0.535227
O39   O     O_R   0.945900 0.419370 0.676500 -0.529038
O40   O     O_R   0.054100 0.419370 0.323500 -0.535238
C17   C     C_R   0.471202 0.822250 0.648222 0.532362
C18   C     C_R   0.536493 0.822896 0.356117 0.560133
C19   C     C_R   0.971209 0.322250 0.648226 0.532408
C20   C     C_R   0.036506 0.322890 0.356124 0.560144
O41   O     O_R   0.456660 0.717710 0.669820 -0.488807
O42   O     O_R   0.543340 0.717710 0.330180 -0.490716
O43   O     O_R   0.956660 0.217710 0.669820 -0.488851
O44   O     O_R   0.043340 0.217710 0.330180 -0.490616
O45   O     O_R   0.320590 0.625770 0.672930 -0.494770
O46   O     O_R   0.679410 0.625770 0.327070 -0.490329
O47   O     O_R   0.820590 0.125770 0.672930 -0.494767
O48   O     O_R   0.179410 0.125770 0.327070 -0.490252
C21   C     C_R   0.258676 0.635637 0.644664 0.541603
C22   C     C_R   0.741015 0.635461 0.355169 0.547360
C23   C     C_R   0.758684 0.135670 0.644658 0.541715
C24   C     C_R   0.241028 0.135448 0.355183 0.547177
Cr1   Cr    Cr6+3 0.229640 0.835880 0.747370 1.045838
Cr2   Cr    Cr6+3 0.770360 0.835880 0.252630 1.041589
Cr3   Cr    Cr6+3 0.729640 0.335880 0.747370 1.045831
Cr4   Cr    Cr6+3 0.270360 0.335880 0.252630 1.041545
Cr5   Cr    Cr6+3 0.387390 0.989720 0.750850 1.076842
Cr6   Cr    Cr6+3 0.612610 0.989720 0.249150 1.061087
Cr7   Cr    Cr6+3 0.887390 0.489720 0.750850 1.076924
Cr8   Cr    Cr6+3 0.112610 0.489720 0.249150 1.061130
Cr9   Cr    Cr6+3 0.385770 0.677220 0.749340 1.100465
Cr10  Cr    Cr6+3 0.614230 0.677220 0.250660 1.096055
Cr11  Cr    Cr6+3 0.885770 0.177220 0.749340 1.100553
Cr12  Cr    Cr6+3 0.114230 0.177220 0.250660 1.096114
O49   O     O_3   0.334270 0.834280 0.749190 -0.308808
O50   O     O_3   0.665730 0.834280 0.250810 -0.314268
O51   O     O_3   0.834270 0.334280 0.749190 -0.308622
O52   O     O_3   0.165730 0.334280 0.250810 -0.314288
C25   C     C_3   0.472197 0.929207 0.028182 -0.124760
C26   C     C_3   0.530955 0.925587 0.971845 -0.127072
C27   C     C_3   0.972198 0.429208 0.028182 -0.124758
C28   C     C_3   0.030956 0.425586 0.971845 -0.127072
C29   C     C_3   0.430686 0.831929 0.985844 -0.112670
C30   C     C_3   0.569439 0.824702 0.014197 -0.112927
C31   C     C_3   0.930686 0.331931 0.985844 -0.112673
C32   C     C_3   0.069439 0.324701 0.014197 -0.112927
H1    H     H_    0.373258 0.834979 0.972526 0.117822
H2    H     H_    0.626869 0.821832 0.027525 0.117031
H3    H     H_    0.873258 0.334982 0.972526 0.117820
H4    H     H_    0.126869 0.321829 0.027525 0.117031
H5    H     H_    0.450662 0.011343 0.053524 0.124826
H6    H     H_    0.555078 0.004566 0.946385 0.124867
H7    H     H_    0.950663 0.511344 0.053523 0.124828
H8    H     H_    0.055080 0.504564 0.946384 0.124868
C33   C     C_3   0.490180 0.828100 0.930898 0.047225
C34   C     C_3   0.509922 0.828016 0.069131 0.047843
C35   C     C_3   0.990180 0.328100 0.930898 0.047226
C36   C     C_3   0.009923 0.328016 0.069131 0.047842
C37   C     C_3   0.528104 0.727308 0.972176 -0.084877
C38   C     C_3   0.469041 0.730863 0.027855 -0.086409
C39   C     C_3   0.028103 0.227307 0.972176 -0.084875
C40   C     C_3   0.969040 0.230864 0.027855 -0.086411
H9    H     H_    0.551751 0.645623 0.947888 0.165078
H10   H     H_    0.443173 0.652064 0.052141 0.163499
H11   H     H_    0.051749 0.145622 0.947888 0.165081
H12   H     H_    0.943171 0.152065 0.052141 0.163499
C41   C     C_R   0.240836 0.572211 0.071313 0.003525
C42   C     C_R   0.759340 0.572478 0.928785 0.002237
C43   C     C_R   0.740836 0.072210 0.071312 0.003523
C44   C     C_R   0.259340 0.072479 0.928785 0.002249
C45   C     C_R   0.302722 0.537616 0.036519 -0.026876
C46   C     C_R   0.697313 0.539483 0.963244 -0.028872
C47   C     C_R   0.802722 0.037615 0.036519 -0.026876
C48   C     C_R   0.197313 0.039484 0.963244 -0.028866
C49   C     C_R   0.306647 0.544854 0.962156 0.050817
C50   C     C_R   0.693426 0.546190 0.037613 0.049213
C51   C     C_R   0.806647 0.044853 0.962156 0.050813
C52   C     C_R   0.193426 0.046191 0.037613 0.049209
C53   C     C_R   0.186639 0.617589 0.955918 -0.189132
C54   C     C_R   0.813766 0.614990 0.044478 -0.187568
C55   C     C_R   0.686639 0.117588 0.955918 -0.189131
C56   C     C_R   0.313765 0.114991 0.044478 -0.187569
C57   C     C_R   0.183393 0.614762 0.029510 -0.171288
C58   C     C_R   0.816971 0.612877 0.970892 -0.171773
C59   C     C_R   0.683393 0.114761 0.029510 -0.171288
C60   C     C_R   0.316971 0.112878 0.970892 -0.171771
C61   C     C_3   0.337523 0.417214 0.038116 -0.242539
C62   C     C_3   0.662061 0.420149 0.960688 -0.241713
C63   C     C_3   0.837523 0.917212 0.038116 -0.242539
C64   C     C_3   0.162061 0.920150 0.960688 -0.241707
C65   C     C_3   0.338524 0.422022 0.957486 -0.038140
C66   C     C_3   0.661054 0.424378 0.041332 -0.037982
C67   C     C_3   0.838523 0.922021 0.957485 -0.038142
C68   C     C_3   0.161053 0.924379 0.041332 -0.037992
C69   C     C_R   0.248858 0.585568 0.921340 -0.001058
C70   C     C_R   0.751384 0.584718 0.078718 0.000757
C71   C     C_R   0.748857 0.085568 0.921340 -0.001055
C72   C     C_R   0.251384 0.084718 0.078717 0.000753
H13   H     H_    0.141238 0.652203 0.926305 0.152456
H14   H     H_    0.859179 0.648289 0.074401 0.150704
H15   H     H_    0.641238 0.152202 0.926304 0.152454
H16   H     H_    0.359179 0.148290 0.074401 0.150702
H17   H     H_    0.133655 0.640411 0.052968 0.176259
H18   H     H_    0.866795 0.637237 0.947644 0.176717
H19   H     H_    0.633655 0.140410 0.052967 0.176259
H20   H     H_    0.366795 0.137238 0.947644 0.176719
H21   H     H_    0.801541 0.847780 0.058398 0.153573
H22   H     H_    0.197784 0.849760 0.939915 0.155932
H23   H     H_    0.301542 0.347781 0.058399 0.153575
H24   H     H_    0.697785 0.349759 0.939915 0.155932
H25   H     H_    0.390506 0.420059 0.064466 0.188920
H26   H     H_    0.609110 0.424768 0.934334 0.188346
H27   H     H_    0.890505 0.920057 0.064466 0.188922
H28   H     H_    0.109110 0.924769 0.934334 0.188351
H29   H     H_    0.301893 0.356687 0.931328 0.139657
H30   H     H_    0.697446 0.357819 0.067008 0.141942
H31   H     H_    0.801892 0.856686 0.931327 0.139656
H32   H     H_    0.197446 0.857820 0.067008 0.141937
C73   C     C_R   0.523653 0.827773 0.432193 0.037153
C74   C     C_R   0.507705 0.824747 0.580663 0.027069
C75   C     C_R   0.023684 0.327753 0.432206 0.037173
C76   C     C_R   0.007742 0.324758 0.580681 0.027089
C77   C     C_R   0.524349 0.719599 0.469203 0.002117
C78   C     C_R   0.514425 0.717961 0.541355 0.038734
C79   C     C_R   0.024473 0.219593 0.469236 0.002131
C80   C     C_R   0.014544 0.217968 0.541392 0.038786
C81   C     C_R   0.523362 0.932586 0.546710 -0.164018
C82   C     C_R   0.526674 0.934874 0.471793 -0.169143
C83   C     C_R   0.023324 0.432605 0.546706 -0.164021
C84   C     C_R   0.026608 0.434870 0.471789 -0.169118
C85   C     C_3   0.480901 0.610136 0.455624 -0.044875
C86   C     C_3   0.467587 0.610454 0.535172 -0.030135
C87   C     C_3   0.981100 0.110035 0.455679 -0.044889
C88   C     C_3   0.967782 0.110369 0.535227 -0.030031
H33   H     H_    0.527976 0.014363 0.577642 0.127296
H34   H     H_    0.529656 0.018815 0.444408 0.111349
H35   H     H_    0.027897 0.514393 0.577629 0.127254
H36   H     H_    0.029497 0.518796 0.444383 0.111314
H37   H     H_    0.013695 0.032814 0.437322 0.162976
H38   H     H_    0.912572 0.133166 0.548676 0.156321
H39   H     H_    0.513445 0.532862 0.437250 0.162925
H40   H     H_    0.412390 0.633344 0.548632 0.156327
C89   C     C_R   0.217238 0.512996 0.436902 0.044037
C90   C     C_R   0.779505 0.511033 0.563103 0.055163
C91   C     C_R   0.717266 0.013117 0.436890 0.044080
C92   C     C_R   0.279721 0.010447 0.563090 0.054684
C93   C     C_R   0.165460 0.574067 0.474442 -0.002484
C94   C     C_R   0.836369 0.537849 0.520009 0.010221
C95   C     C_R   0.665505 0.074253 0.474414 -0.002578
C96   C     C_R   0.336551 0.037521 0.519969 0.010351
C97   C     C_R   0.174382 0.597772 0.546026 -0.013380
C98   C     C_R   0.825574 0.563573 0.448176 0.025269
C99   C     C_R   0.674429 0.097981 0.545989 -0.013452
C100  C     C_R   0.325697 0.063388 0.448132 0.025410
C101  C     C_R   0.288894 0.502165 0.544921 -0.068233
C102  C     C_R   0.699631 0.537987 0.462431 -0.061359
C103  C     C_R   0.788935 0.002343 0.544887 -0.068205
C104  C     C_R   0.199787 0.037722 0.462448 -0.060878
C105  C     C_R   0.276924 0.469631 0.473962 -0.084566
C106  C     C_R   0.711101 0.509519 0.533439 -0.108855
C107  C     C_R   0.776950 0.969757 0.473947 -0.084618
C108  C     C_R   0.211319 0.008958 0.533406 -0.108238
C109  C     C_3   0.130454 0.693816 0.460159 0.090893
C110  C     C_3   0.886490 0.641308 0.529047 0.085570
C111  C     C_3   0.630543 0.194031 0.460110 0.090916
C112  C     C_3   0.386559 0.141162 0.529008 0.085559
C113  C     C_3   0.136382 0.716140 0.539498 -0.231478
C114  C     C_3   0.880371 0.660299 0.449703 -0.246635
C115  C     C_3   0.636486 0.216406 0.539445 -0.231445
C116  C     C_3   0.380435 0.160194 0.449670 -0.246606
C117  C     C_R   0.239122 0.571494 0.580430 0.041439
C118  C     C_R   0.756473 0.570463 0.419946 0.088272
C119  C     C_R   0.739154 0.071633 0.580399 0.041530
C120  C     C_R   0.256571 0.070322 0.419937 0.088143
H41   H     H_    0.338843 0.479833 0.570340 0.200710
H42   H     H_    0.645574 0.544802 0.442890 0.151531
H43   H     H_    0.838884 0.980009 0.570308 0.200647
H44   H     H_    0.145716 0.044670 0.442980 0.151361
H45   H     H_    0.318176 0.423699 0.446212 0.151648
H46   H     H_    0.665768 0.496015 0.566296 0.159363
H47   H     H_    0.818189 0.923786 0.446204 0.151651
H48   H     H_    0.165993 0.995416 0.566255 0.159288
H49   H     H_    0.075053 0.691770 0.440113 0.104736
H50   H     H_    0.940029 0.618301 0.547253 0.113031
H51   H     H_    0.575139 0.191981 0.440062 0.104711
H52   H     H_    0.440140 0.118426 0.547210 0.113027
H53   H     H_    0.170005 0.793140 0.554176 0.184812
H54   H     H_    0.861309 0.750443 0.435129 0.169086
H55   H     H_    0.670145 0.293391 0.554110 0.184835
H56   H     H_    0.361329 0.250327 0.435117 0.169122
H57   H     H_    0.084684 0.714071 0.566420 0.138987
H58   H     H_    0.928219 0.632391 0.420509 0.109227
H59   H     H_    0.584788 0.214403 0.566369 0.139022
H60   H     H_    0.428304 0.132401 0.420469 0.109174
I1    I     I_    0.389704 0.647612 0.389088 -0.279644
I2    I     I_    0.514539 0.462255 0.590598 -0.365291
I3    I     I_    0.889876 0.147317 0.389135 -0.279748
I4    I     I_    0.014820 0.962317 0.590713 -0.364871
N1    N     N_R   0.174332 0.775163 0.418940 0.097066
O53   O     O_R   0.241710 0.784724 0.432726 -0.332709
O54   O     O_R   0.146757 0.831939 0.364431 -0.323765
N2    N     N_R   0.855895 0.740414 0.570300 0.078482
O55   O     O_R   0.788103 0.760679 0.567095 -0.365308
O56   O     O_R   0.892140 0.785054 0.623709 -0.300620
N3    N     N_R   0.674450 0.275303 0.418866 0.097119
O57   O     O_R   0.741817 0.284914 0.432704 -0.332754
O58   O     O_R   0.646909 0.331992 0.364309 -0.323675
N4    N     N_R   0.355814 0.240152 0.570231 0.078526
O59   O     O_R   0.288013 0.260274 0.566895 -0.365330
O60   O     O_R   0.391939 0.284894 0.623690 -0.300562
I5    I     I_    0.441111 0.423448 0.912257 -0.367424
I6    I     I_    0.558429 0.428572 0.086480 -0.376437
I7    I     I_    0.941111 0.923446 0.912257 -0.367379
I8    I     I_    0.058428 0.928573 0.086479 -0.376419

loop_
_geom_bond_atom_site_label_1
_geom_bond_atom_site_label_2
_geom_bond_distance
_ccdc_geom_bond_type
C18   O42   1.270327 A    
Cr11  O51   1.993822 S    
O4    C12   1.269779 A    
C94   C110  1.501784 S    
O47   Cr11  1.956302 S    
C49   C69   1.396415 A    
C92   C108  1.399415 A    
O39   C19   1.293401 A    
C16   C89   1.437506 S    
O20   Cr12  2.075717 S    
C85   H39   1.111129 S    
C98   C118  1.403235 A    
C15   C90   1.439703 S    
N4    O60   1.299597 A    
C39   C40   1.544294 S    
C97   C117  1.403213 A    
C92   C96   1.393246 A    
C41   C57   1.408005 A    
C43   C47   1.402976 A    
C78   C86   1.494580 S    
N3    O58   1.300980 A    
C50   C70   1.396015 A    
O1    C9    1.266485 A    
C14   C91   1.437363 S    
C54   C58   1.380307 A    
C77   C78   1.367775 A    
O15   Cr7   1.956152 S    
O7    C3    1.284517 A    
C116  H60   1.109443 S    
N1    O53   1.301558 A    
C107  H47   1.072156 S    
C68   H32   1.112066 S    
C95   C111  1.505444 S    
O24   C12   1.279252 A    
N2    O56   1.299638 A    
O40   C20   1.284976 A    
C102  C118  1.401049 A    
C111  N3    1.464105 S    
C39   H11   1.109220 S    
O25   C21   1.251590 A    
C31   C40   1.543464 S    
C86   I2    2.130518 S    
O26   Cr2   2.090664 S    
C108  H48   1.077521 S    
C85   I1    2.148890 S    
C56   C60   1.380307 A    
C55   C71   1.399022 A    
O47   C23   1.280927 A    
C54   C70   1.398733 A    
C30   H2    1.111240 S    
C81   H33   1.078211 S    
C45   C61   1.487777 S    
C105  H45   1.072208 S    
C24   C120  1.439085 S    
O21   C9    1.276327 A    
O8    Cr4   1.972044 S    
O23   Cr11  1.958693 S    
C9    C69   1.453401 S    
O30   C14   1.303751 A    
C115  H55   1.100228 S    
O32   Cr4   1.957112 S    
C1    O9    1.267873 A    
O44   Cr12  2.070638 S    
C61   C65   1.511235 S    
C2    C43   1.460547 S    
C84   H36   1.068448 S    
C64   H22   1.105393 S    
C45   C49   1.398372 A    
C3    O11   1.267874 A    
C12   C72   1.451445 S    
O11   Cr7   2.075196 S    
C4    O12   1.263869 A    
C49   C65   1.491776 S    
C25   C34   1.529126 S    
C54   H14   1.083024 S    
C109  N1    1.464066 S    
C8    C36   1.458406 S    
O6    Cr2   1.972044 S    
C7    O19   1.271454 A    
O3    Cr3   2.088211 S    
C30   C34   1.541050 S    
Cr4   O52   1.981165 S    
C53   C69   1.399024 A    
C42   C58   1.407902 A    
C37   H9    1.109219 S    
C29   C38   1.543463 S    
C48   C52   1.397367 A    
C29   C33   1.540975 S    
O2    C10   1.269779 A    
C13   C92   1.440614 S    
O10   Cr6   2.087077 S    
O42   Cr10  2.070638 S    
C77   C85   1.490348 S    
O18   Cr10  2.075717 S    
C75   C84   1.399843 A    
C100  C120  1.403449 A    
C103  C119  1.391077 A    
C103  C107  1.389650 A    
C88   I4    2.130466 S    
C89   C93   1.389600 A    
C101  C105  1.389781 A    
C110  H50   1.092388 S    
C86   H40   1.107951 S    
C95   C99   1.371862 A    
C27   C28   1.548591 S    
C109  H49   1.107474 S    
C89   C105  1.398658 A    
O34   Cr6   2.076102 S    
Cr7   O51   2.003440 S    
C104  C108  1.380593 A    
C58   H18   1.083233 S    
C26   C30   1.546324 S    
C91   C95   1.389587 A    
C28   C32   1.546323 S    
O31   Cr3   1.966880 S    
C19   C76   1.453971 S    
O24   Cr12  1.950590 S    
C32   C39   1.542768 S    
O9    Cr5   2.075196 S    
N1    O54   1.300979 A    
O30   Cr2   1.957112 S    
O22   C10   1.279251 A    
C74   C81   1.394946 A    
C76   C80   1.399732 A    
O48   Cr12  1.955786 S    
O14   Cr6   1.956339 S    
C8    O20   1.272782 A    
C18   C73   1.450392 S    
C111  H51   1.107542 S    
C46   C62   1.488010 S    
C62   H26   1.109677 S    
C110  C114  1.503399 S    
C59   H19   1.083238 S    
C90   C106  1.399326 A    
C61   H23   1.105750 S    
C102  H42   1.082509 S    
C52   C72   1.396016 A    
O7    Cr3   1.964219 S    
C85   C86   1.515422 S    
C75   C79   1.389792 A    
C50   C66   1.491444 S    
C32   C36   1.541050 S    
C43   C59   1.408004 A    
C36   C40   1.529685 S    
O43   Cr11  2.077006 S    
O48   C24   1.275379 A    
C44   C60   1.407902 A    
C113  H57   1.110444 S    
C56   C72   1.398731 A    
C46   C50   1.397367 A    
O15   C7    1.279249 A    
C87   C88   1.515419 S    
C42   C46   1.402760 A    
O5    C1    1.284517 A    
C111  C115  1.506954 S    
C96   C100  1.387598 A    
C66   H30   1.112068 S    
O39   Cr7   1.953865 S    
C91   C107  1.398570 A    
C102  C106  1.380555 A    
C28   C35   1.528288 S    
C47   C51   1.398374 A    
C79   C80   1.367856 A    
C13   O33   1.304488 A    
O8    C4    1.281184 A    
C7    C35   1.458609 S    
C61   H25   1.109723 S    
O13   Cr5   1.956152 S    
C106  H46   1.077654 S    
C99   C119  1.403170 A    
C63   C67   1.511237 S    
O16   Cr8   1.956339 S    
C51   C67   1.491776 S    
O29   C13   1.303179 A    
Cr2   O50   1.981165 S    
C101  H41   1.078427 S    
C52   C68   1.491445 S    
Cr1   O49   1.980956 S    
O2    Cr2   2.076730 S    
C31   C35   1.540976 S    
C53   C57   1.380878 A    
C94   C98   1.387029 A    
C87   H37   1.111125 S    
C76   C83   1.394888 A    
C103  H43   1.078439 S    
O26   C22   1.264891 A    
C100  C116  1.497907 S    
O21   Cr9   1.958693 S    
O27   Cr3   2.083817 S    
C2    O10   1.263869 A    
O37   Cr5   1.953865 S    
C56   H16   1.083026 S    
C47   C63   1.487778 S    
C88   H38   1.107897 S    
C19   O43   1.265164 A    
C67   I7    2.134833 S    
C114  H54   1.096299 S    
C65   I5    2.134833 S    
O3    C11   1.266485 A    
N3    O57   1.301584 A    
C68   I8    2.134852 S    
C113  H53   1.100021 S    
C38   H10   1.109346 S    
C40   H12   1.109345 S    
C101  C117  1.391168 A    
C93   C109  1.505463 S    
O12   Cr8   2.087077 S    
C79   C87   1.490362 S    
C17   C74   1.453913 S    
O38   C18   1.284926 A    
O25   Cr1   2.083817 S    
Cr3   O51   1.980956 S    
C80   C88   1.494522 S    
C5    O17   1.271456 A    
C57   H17   1.083240 S    
C109  C113  1.506919 S    
O22   Cr10  1.950590 S    
O28   C24   1.264891 A    
C25   H5    1.106098 S    
C112  H52   1.092431 S    
O14   C6    1.279053 A    
C20   C75   1.450442 S    
C35   C39   1.530648 S    
C27   C36   1.529126 S    
C48   C64   1.488009 S    
O5    Cr1   1.964219 S    
C31   H3    1.111219 S    
C64   C68   1.510829 S    
C26   C33   1.528288 S    
C27   H7    1.106098 S    
O17   Cr9   2.076162 S    
O37   C17   1.293381 A    
O6    C2    1.281185 A    
C110  N2    1.465283 S    
C15   O35   1.304523 A    
C17   O41   1.265155 A    
C74   C78   1.399732 A    
C41   C45   1.402976 A    
C104  C120  1.400816 A    
C14   O34   1.293132 A    
C30   C37   1.542769 S    
C55   C59   1.380879 A    
O40   Cr8   1.964122 S    
C93   C97   1.371970 A    
C99   C115  1.499631 S    
C20   O44   1.270297 A    
C112  N4    1.465158 S    
O1    Cr1   2.088211 S    
C65   H29   1.112236 S    
C98   C114  1.498026 S    
C26   H6    1.105880 S    
O19   Cr11  2.076162 S    
N4    O59   1.302267 A    
C25   C26   1.548592 S    
C97   C113  1.499567 S    
Cr8   O52   1.993357 S    
O32   C16   1.303738 A    
C6    C34   1.458406 S    
C37   C38   1.544295 S    
C104  H44   1.082432 S    
O46   Cr10  1.955786 S    
Cr10  O50   2.003912 S    
C10   C70   1.451445 S    
C73   C77   1.389754 A    
Cr6   O50   1.993357 S    
C90   C94   1.392808 A    
Cr12  O52   2.003912 S    
C33   C37   1.530647 S    
C67   H31   1.112236 S    
Cr5   O49   2.003440 S    
O45   C21   1.280989 A    
C32   H4    1.111240 S    
O23   C11   1.276326 A    
C63   H27   1.109722 S    
C22   C118  1.438415 S    
C23   C119  1.437997 S    
O33   Cr5   2.076671 S    
C55   H15   1.083231 S    
C87   I3    2.148975 S    
C11   C71   1.453403 S    
C114  H58   1.109421 S    
C60   H20   1.083233 S    
C25   C29   1.546481 S    
O16   C8    1.279053 A    
O35   Cr7   2.076671 S    
O4    Cr4   2.076730 S    
C96   C112  1.501976 S    
C73   C82   1.399930 A    
C28   H8    1.105880 S    
O29   Cr1   1.966880 S    
C83   C84   1.405567 A    
C82   H34   1.068538 S    
C62   H24   1.105393 S    
C16   O36   1.293219 A    
C83   H35   1.078169 S    
O46   C22   1.275057 A    
C63   H21   1.105750 S    
C27   C31   1.546481 S    
C34   C38   1.529685 S    
C81   C82   1.405585 A    
C6    O18   1.272782 A    
O28   Cr4   2.090664 S    
C51   C71   1.396413 A    
C62   C66   1.510829 S    
C1    C44   1.458849 S    
O27   C23   1.251488 A    
O45   Cr9   1.956302 S    
C116  H56   1.096366 S    
O41   Cr9   2.077006 S    
C4    C41   1.460546 S    
C66   I6    2.134851 S    
C21   C117  1.438302 S    
C115  H59   1.110447 S    
C53   H13   1.083230 S    
O36   Cr8   2.076102 S    
C112  C116  1.503360 S    
O31   C15   1.303469 A    
C64   H28   1.109678 S    
C3    C42   1.458849 S    
Cr9   O49   1.993822 S    
C5    C33   1.458609 S    
C44   C48   1.402760 A    
C29   H1    1.111221 S    
N2    O55   1.302287 A    
O38   Cr6   1.964122 S    
O13   C5    1.279248 A    
