data_mof_unit_52225.cif
_audit_creation_date              2012-12-10T19:25:03-0500
_audit_creation_method            fapswitch 2.2
_symmetry_space_group_name_H-M    P1
_symmetry_Int_Tables_number       1
_space_group_crystal_system       triclinic
_cell_length_a                    15.678319
_cell_length_b                    10.471031
_cell_length_c                    9.781672
_cell_angle_alpha                 89.56417
_cell_angle_beta                  89.93607
_cell_angle_gamma                 90.117779
_cell_volume                      1605.78825737

loop_
_atom_site_label
_atom_site_type_symbol
_atom_type_description
_atom_site_fract_x
_atom_site_fract_y
_atom_site_fract_z
_atom_type_partial_charge
C1    C     C_R   0.501906 0.257825 0.500402 0.861669
C2    C     C_3   0.499255 0.615690 0.950191 -0.126531
C3    C     C_3   0.567085 0.443118 0.951204 -0.127874
C4    C     C_3   0.432914 0.556881 0.048796 -0.127873
C5    C     C_3   0.434300 0.441902 0.953230 0.092426
C6    C     C_3   0.565700 0.558098 0.046770 0.092426
C7    C     C_R   0.338101 0.500148 0.500011 0.901868
C8    C     C_R   0.661898 0.499852 0.499989 0.901867
C9    C     C_3   0.971909 0.452578 0.619999 -0.177045
C10   C     C_3   0.028091 0.547422 0.380001 -0.177046
C11   C     C_3   0.028381 0.379887 0.516941 -0.160493
C12   C     C_R   0.498094 0.742175 0.499598 0.861671
C13   C     C_3   0.971619 0.620113 0.483060 -0.160493
C14   C     C_1   0.249087 0.500688 0.499949 -0.179771
C15   C     C_1   0.750913 0.499311 0.500051 -0.179772
C16   C     C_3   0.028064 0.573282 0.602910 -0.169611
C17   C     C_3   0.971936 0.426718 0.397090 -0.169610
C18   C     C_3   0.082700 0.500587 0.499845 0.218222
C19   C     C_3   0.917300 0.499414 0.500155 0.218222
C20   C     C_1   0.173660 0.500898 0.499804 -0.098935
C21   C     C_1   0.826340 0.499102 0.500196 -0.098935
C22   C     C_3   0.548451 0.037589 0.604043 0.066571
C23   C     C_3   0.579882 0.954837 0.484998 -0.239776
C24   C     C_3   0.451549 0.962411 0.395957 0.066570
C25   C     C_R   0.606008 0.083504 0.716500 0.132679
C26   C     C_R   0.589783 0.050999 0.853663 -0.162616
C27   C     C_R   0.644505 0.093216 0.956683 -0.140927
C28   C     C_R   0.715865 0.167482 0.923624 -0.139691
C29   C     C_R   0.732356 0.200359 0.787353 -0.143691
C30   C     C_R   0.677700 0.158486 0.684045 -0.130846
C31   C     C_R   0.393992 0.916495 0.283501 0.132683
C32   C     C_R   0.322297 0.841520 0.315958 -0.130855
C33   C     C_R   0.267641 0.799646 0.212650 -0.143686
C34   C     C_3   0.420118 0.045163 0.515002 -0.239775
C35   C     C_R   0.284134 0.832515 0.076378 -0.139689
C36   C     C_R   0.355497 0.906774 0.043317 -0.140929
C37   C     C_R   0.410220 0.948992 0.146336 -0.162614
C38   C     C_R   0.358352 0.373163 0.895890 0.141512
C39   C     C_R   0.366399 0.247092 0.849949 -0.110729
C40   C     C_R   0.295647 0.182836 0.796980 -0.158468
C41   C     C_R   0.216775 0.244295 0.788354 -0.113267
C42   C     C_R   0.208307 0.369787 0.833911 -0.129018
C43   C     C_R   0.278732 0.434080 0.887950 -0.137479
C44   C     C_R   0.641648 0.626836 0.104110 0.141513
C45   C     C_3   0.497484 0.877081 0.498999 -0.008237
C46   C     C_R   0.721268 0.565918 0.112048 -0.137479
C47   C     C_R   0.791693 0.630210 0.166089 -0.129018
C48   C     C_R   0.783226 0.755702 0.211647 -0.113265
C49   C     C_R   0.704354 0.817161 0.203023 -0.158470
C50   C     C_R   0.633601 0.752906 0.150052 -0.110730
C51   C     C_3   0.502516 0.122918 0.501000 -0.008236
C52   C     C_3   0.466408 0.957622 0.619356 -0.225140
C53   C     C_3   0.533592 0.042378 0.380644 -0.225141
C54   C     C_3   0.500745 0.384310 0.049809 -0.126531
H1    H     H_    0.053960 0.281865 0.530925 0.123951
H2    H     H_    0.562096 0.082251 0.285659 0.126375
H3    H     H_    0.623406 0.396943 0.904451 0.148226
H4    H     H_    0.376594 0.603057 0.095549 0.148227
H5    H     H_    0.500995 0.287074 0.095938 0.128500
H6    H     H_    0.499005 0.712926 0.904062 0.128498
H7    H     H_    0.535261 0.992889 0.881333 0.104342
H8    H     H_    0.631639 0.068207 0.062126 0.111326
H9    H     H_    0.758033 0.200229 0.003631 0.117850
H10   H     H_    0.787358 0.258505 0.761779 0.127027
H11   H     H_    0.691167 0.184472 0.578801 0.103454
H12   H     H_    0.946040 0.718135 0.469076 0.123951
H13   H     H_    0.308827 0.815540 0.421203 0.103455
H14   H     H_    0.212635 0.741507 0.238227 0.127026
H15   H     H_    0.241966 0.799768 0.996372 0.117849
H16   H     H_    0.368365 0.931776 0.937873 0.111324
H17   H     H_    0.464744 0.007096 0.118665 0.104340
H18   H     H_    0.427176 0.198483 0.855700 0.126297
H19   H     H_    0.301856 0.085300 0.762791 0.118478
H20   H     H_    0.162200 0.194657 0.746582 0.117111
H21   H     H_    0.147220 0.417380 0.826950 0.125788
H22   H     H_    0.271229 0.531558 0.921943 0.104378
H23   H     H_    0.946686 0.413760 0.717986 0.121558
H24   H     H_    0.728771 0.468441 0.078055 0.104377
H25   H     H_    0.852780 0.582617 0.173049 0.125788
H26   H     H_    0.837800 0.805338 0.253420 0.117110
H27   H     H_    0.698145 0.914697 0.237213 0.118477
H28   H     H_    0.572825 0.801516 0.144303 0.126296
H29   H     H_    0.053314 0.586240 0.282014 0.121558
H30   H     H_    0.946622 0.366975 0.313017 0.122721
H31   H     H_    0.053378 0.633025 0.686983 0.122721
H32   H     H_    0.644620 0.913200 0.475179 0.138738
H33   H     H_    0.355379 0.086799 0.524821 0.138737
H34   H     H_    0.437904 0.917748 0.714340 0.126374
N1    N     N_3   0.499940 0.500030 0.863290 -0.086489
N2    N     N_3   0.500060 0.499970 0.136710 -0.086489
O1    O     O_R   0.500000 0.313960 0.616610 -0.617102
O2    O     O_R   0.500000 0.686040 0.383390 -0.617102
O3    O     O_R   0.500040 0.313950 0.383350 -0.627587
O4    O     O_R   0.499960 0.686050 0.616650 -0.627587
O5    O     O_R   0.376760 0.499990 0.616610 -0.605303
O6    O     O_R   0.623240 0.500010 0.383390 -0.605302
O7    O     O_R   0.376790 0.499980 0.383350 -0.614225
O8    O     O_R   0.623210 0.500020 0.616650 -0.614225
Zn1   Zn    Zn3+2 0.499980 0.500010 0.655740 0.949789
Zn2   Zn    Zn3+2 0.500020 0.499990 0.344260 0.949790

loop_
_geom_bond_atom_site_label_1
_geom_bond_atom_site_label_2
_ccdc_geom_bond_type
C11   C18   S    
C40   C41   A    
C23   C45   S    
C41   C42   A    
C35   C36   A    
C8    O6    A    
C47   H25   S    
C3    C6    S    
O2    Zn2   S    
C34   C51   S    
N1    Zn1   S    
C24   C45   S    
C28   C29   A    
C19   C21   S    
C26   H7    S    
C54   N2    S    
C38   C39   A    
C3    C54   S    
C2    H6    S    
C10   C17   S    
C10   H29   S    
C25   C30   A    
C40   H19   S    
C49   H27   S    
C8    O8    A    
C17   C19   S    
C41   H20   S    
C9    C19   S    
C7    C14   S    
C11   C17   S    
C31   C32   A    
C36   H16   S    
C23   H32   S    
C39   H18   S    
C18   C20   S    
C12   O2    A    
C13   H12   S    
C29   H10   S    
C1    O1    A    
C6    C44   S    
C5    C38   S    
C12   O4    A    
C2    C6    S    
N2    Zn2   S    
C44   C46   A    
C23   C53   S    
C4    N2    S    
C54   H5    S    
C13   C19   S    
C14   C20   T    
C5    C54   S    
C52   H34   S    
C39   C40   A    
C46   H24   S    
C4    C5    S    
C45   C52   S    
C24   C53   S    
C6    N2    S    
C22   C25   S    
C24   C34   S    
C31   C37   A    
C51   C53   S    
C2    N1    S    
C2    C4    S    
C29   C30   A    
C27   H8    S    
C9    C11   S    
C47   C48   A    
C26   C27   A    
C9    H23   S    
C1    C51   S    
O3    Zn2   S    
C32   H13   S    
C3    H3    S    
C16   C18   S    
C48   C49   A    
O8    Zn1   S    
C8    C15   S    
C37   H17   S    
C16   H31   S    
C42   C43   A    
O7    Zn2   S    
C11   H1    S    
C42   H21   S    
C50   H28   S    
C22   C52   S    
C53   H2    S    
C44   C50   A    
C43   H22   S    
C46   C47   A    
C36   C37   A    
C7    O7    A    
C9    C16   S    
C12   C45   S    
C10   C13   S    
C7    O5    A    
C34   C52   S    
C3    N1    S    
C17   H30   S    
C32   C33   A    
C48   H26   S    
C25   C26   A    
C24   C31   S    
C38   C43   A    
O4    Zn1   S    
C10   C18   S    
O6    Zn2   S    
C33   C35   A    
O5    Zn1   S    
C34   H33   S    
C30   H11   S    
C28   H9    S    
C15   C21   T    
C35   H15   S    
C1    O3    A    
C49   C50   A    
C13   C16   S    
C4    H4    S    
C27   C28   A    
C22   C23   S    
O1    Zn1   S    
C5    N1    S    
C33   H14   S    
C22   C51   S    
