data_mof_unit_25517.cif
_audit_creation_date              2012-12-10T17:42:38-0500
_audit_creation_method            fapswitch 2.2
_symmetry_space_group_name_H-M    P1
_symmetry_Int_Tables_number       1
_space_group_crystal_system       triclinic
_cell_length_a                    9.892508
_cell_length_b                    10.726735
_cell_length_c                    13.133946
_cell_angle_alpha                 91.296934
_cell_angle_beta                  69.905091
_cell_angle_gamma                 88.679258
_cell_volume                      1307.8171174

loop_
_atom_site_label
_atom_site_type_symbol
_atom_type_description
_atom_site_fract_x
_atom_site_fract_y
_atom_site_fract_z
_atom_type_partial_charge
C1    C     C_R   0.499147 0.740571 0.495894 0.871619
C2    C     C_R   0.432929 0.475355 0.983583 0.084130
C3    C     C_R   0.463644 0.440897 0.873749 0.088214
C4    C     C_R   0.543947 0.460857 0.027744 0.079253
C5    C     C_R   0.674313 0.394695 0.968339 0.179128
C6    C     C_R   0.693442 0.344955 0.865350 -0.250626
C7    C     C_R   0.589128 0.367075 0.818721 -0.197885
C8    C     C_R   0.529486 0.512342 0.129105 -0.259491
C9    C     C_R   0.758377 0.419045 0.120319 -0.207138
C10   C     C_R   0.368810 0.483115 0.821473 -0.118251
C11   C     C_R   0.231080 0.897787 0.511225 -0.175406
C12   C     C_R   0.420303 0.493421 0.703861 0.835279
C13   C     C_R   0.100374 0.964807 0.555355 -0.151202
C14   C     C_R   0.095274 0.079107 0.608448 -0.153465
C15   C     C_R   0.222888 0.131935 0.607394 -0.154920
C16   C     C_R   0.357413 0.069642 0.553472 0.102909
C17   C     C_R   0.360141 0.944741 0.519729 0.099031
C18   C     C_R   0.492716 0.874957 0.495224 -0.125815
C19   C     C_R   0.620714 0.934784 0.484891 -0.222135
C20   C     C_R   0.620115 0.061689 0.497061 -0.221997
C21   C     C_R   0.489966 0.129676 0.527379 -0.132631
C22   C     C_R   0.791343 0.661714 0.645872 -0.145992
C23   C     C_R   0.496084 0.261395 0.511153 0.874556
C24   C     C_R   0.826896 0.735851 0.720668 -0.204446
C25   C     C_R   0.965939 0.731818 0.722493 -0.190605
C26   C     C_R   0.070688 0.654980 0.648436 -0.183521
C27   C     C_R   0.037827 0.577099 0.573009 0.144288
C28   C     C_R   0.893430 0.578620 0.572292 0.175157
C29   C     C_R   0.961872 0.425064 0.430798 -0.142277
C30   C     C_R   0.105201 0.425395 0.430584 -0.111840
C31   C     C_R   0.580086 0.499541 0.295778 0.883287
C32   C     C_R   0.782154 0.376889 0.014159 -0.198720
C33   C     C_R   0.629253 0.483486 0.178588 -0.062707
C34   C     C_R   0.231189 0.531473 0.882803 -0.204716
C35   C     C_R   0.191758 0.546658 0.994561 -0.149022
C36   C     C_R   0.292377 0.522389 0.044678 -0.198215
H1    H     H_    0.836815 0.396124 0.158259 0.151973
H2    H     H_    0.228168 0.813178 0.466432 0.174524
H3    H     H_    0.002626 0.927022 0.549538 0.148707
H4    H     H_    0.215641 0.221926 0.648235 0.152386
H5    H     H_    0.722312 0.106577 0.479671 0.168986
H6    H     H_    0.935142 0.363892 0.374372 0.141856
H7    H     H_    0.683337 0.673758 0.648210 0.206862
H8    H     H_    0.746240 0.797975 0.776728 0.152281
H9    H     H_    0.993853 0.790894 0.779740 0.154904
H10   H     H_    0.176811 0.660809 0.650922 0.209782
H11   H     H_    0.789851 0.290262 0.820199 0.140960
H12   H     H_    0.186431 0.364409 0.373933 0.156808
H13   H     H_    0.881634 0.325855 0.969740 0.138853
H14   H     H_    0.437553 0.571565 0.173732 0.148552
H15   H     H_    0.155754 0.561157 0.844123 0.158396
H16   H     H_    0.256113 0.538036 0.131471 0.132330
H17   H     H_    0.084876 0.582627 0.041997 0.148025
H18   H     H_    0.607080 0.324299 0.739583 0.170806
H19   H     H_    0.722949 0.883863 0.464624 0.170416
N1    N     N_R   0.856860 0.501200 0.500990 -0.118770
N2    N     N_R   0.142450 0.501280 0.501020 -0.123884
O1    O     O_R   0.385310 0.683220 0.500000 -0.648908
O2    O     O_R   0.614640 0.683250 0.500010 -0.634756
O3    O     O_R   0.328400 0.499950 0.653610 -0.638660
O4    O     O_R   0.557730 0.499970 0.653620 -0.628966
O5    O     O_R   0.385360 0.316750 0.499990 -0.613291
O6    O     O_R   0.614690 0.316780 0.500000 -0.624020
O7    O     O_R   0.442270 0.500030 0.346380 -0.612586
O8    O     O_R   0.671600 0.500050 0.346390 -0.611533
Zn1   Zn    Zn3+2 0.346880 0.499980 0.499990 0.918430
Zn2   Zn    Zn3+2 0.653120 0.500020 0.500010 0.923436
H20   H     H_    0.993258 0.129034 0.646710 0.132275

loop_
_geom_bond_atom_site_label_1
_geom_bond_atom_site_label_2
_ccdc_geom_bond_type
C26   C27   A    
C11   H2    S    
C2    C4    A    
C31   C33   S    
O6    Zn2   S    
C16   C21   A    
C29   N1    A    
C8    H14   S    
C29   H6    S    
C35   H17   S    
N1    Zn2   S    
O4    Zn2   S    
C19   C20   A    
C36   H16   S    
N2    Zn1   S    
C4    C8    A    
C5    C32   A    
C23   O6    A    
C2    C3    A    
C1    C18   S    
O3    Zn1   S    
C10   C34   A    
C3    C10   A    
C22   C28   A    
C1    O1    A    
C24   C25   A    
C9    C33   A    
C12   O4    A    
C11   C13   A    
C34   H15   S    
C29   C30   A    
C10   C12   S    
C30   H12   S    
C25   C26   A    
C20   H5    S    
C6    C7    A    
C3    C7    A    
C8    C33   A    
C1    O2    A    
C21   C23   S    
C28   N1    A    
C5    C6    A    
C24   H8    S    
C22   C24   A    
C15   H4    S    
C13   H3    S    
C32   H13   S    
C6    H11   S    
C26   H10   S    
C2    C36   A    
C15   C16   A    
C12   O3    A    
C30   N2    A    
C25   H9    S    
C20   C21   A    
C17   C18   A    
C34   C35   A    
C27   N2    A    
C19   H19   S    
C27   C28   A    
C31   O8    A    
O5    Zn1   S    
C14   C15   A    
C18   C19   A    
C14   H20   S    
C7    H18   S    
O2    Zn2   S    
C9    C32   A    
C13   C14   A    
C31   O7    A    
O1    Zn1   S    
C23   O5    A    
C11   C17   A    
C9    H1    S    
C35   C36   A    
C16   C17   A    
C4    C5    A    
O8    Zn2   S    
C22   H7    S    
O7    Zn1   S    
