data_mof_unit_15070.cif
_audit_creation_date              2012-12-11T16:35:14-0500
_audit_creation_method            fapswitch 2.2
_symmetry_space_group_name_H-M    P1
_symmetry_Int_Tables_number       1
_space_group_crystal_system       triclinic
_cell_length_a                    6.929254
_cell_length_b                    17.653163
_cell_length_c                    19.531204
_cell_angle_alpha                 109.112293
_cell_angle_beta                  90.262439
_cell_angle_gamma                 90.722897
_cell_volume                      2257.15327525

loop_
_atom_site_label
_atom_site_type_symbol
_atom_type_description
_atom_site_fract_x
_atom_site_fract_y
_atom_site_fract_z
_atom_type_partial_charge
O1    O     O_R   0.505700 0.440210 0.561730 -0.544043
O2    O     O_R   0.169350 0.406300 0.412660 -0.539262
O3    O     O_R   0.005650 0.559790 0.438270 -0.544032
C1    C     C_R   0.337961 0.383442 0.384668 0.690761
O4    O     O_R   0.175560 0.430650 0.559600 -0.518198
O5    O     O_R   0.011900 0.584320 0.586250 -0.535173
C2    C     C_R   0.344167 0.414621 0.580455 0.707162
O6    O     O_R   0.499450 0.415680 0.413750 -0.534907
O7    O     O_3   0.341370 0.550390 0.508570 -0.372217
V1    V     V_3+5 0.063940 0.490650 0.498410 1.442361
O8    O     O_R   0.682570 0.593700 0.587340 -0.540179
C3    C     C_R   0.852606 0.616697 0.614923 0.698377
O9    O     O_R   0.676370 0.569350 0.440400 -0.545774
C4    C     C_R   0.845430 0.583963 0.418490 0.690288
V2    V     V_3+5 0.564750 0.509350 0.501590 1.421094
O10   O     O_3   0.837190 0.449610 0.491430 -0.358471
C5    C     C_R   0.033014 0.668844 0.275129 0.212925
C6    C     C_R   0.019345 0.625087 0.323600 -0.210243
H1    H     H_    0.134207 0.584453 0.324910 0.121662
C7    C     C_R   0.857757 0.631598 0.368317 -0.074310
C8    C     C_R   0.708801 0.682981 0.363810 -0.178192
H2    H     H_    0.582194 0.689237 0.397423 0.129051
C9    C     C_R   0.723302 0.728299 0.316995 -0.215908
H3    H     H_    0.607949 0.768899 0.316370 0.118816
C10   C     C_R   0.885270 0.722424 0.272280 0.088572
C11   C     C_R   0.733652 0.780578 0.183079 -0.164018
H4    H     H_    0.598736 0.750514 0.186685 0.121480
C12   C     C_R   0.743258 0.827278 0.137298 -0.167741
H5    H     H_    0.615112 0.832327 0.107210 0.123953
C13   C     C_R   0.916753 0.865902 0.129619 -0.047120
C14   C     C_R   0.079499 0.857594 0.169723 -0.182176
H6    H     H_    0.214619 0.887434 0.165968 0.113554
C15   C     C_R   0.068908 0.812095 0.216465 -0.097719
H7    H     H_    0.195426 0.809258 0.248205 0.121322
C16   C     C_R   0.896650 0.771931 0.223029 0.119569
H8    H     H_    0.601014 0.653540 0.928185 0.117531
C17   C     C_R   0.067036 0.895144 0.750258 -0.143427
C18   C     C_R   0.136878 0.903094 0.686160 -0.123563
C19   C     C_R   0.117924 0.839911 0.621467 -0.121833
C20   C     C_R   0.029077 0.768287 0.620389 -0.131923
C21   C     C_R   0.958813 0.757972 0.684793 0.069192
C22   C     C_R   0.978132 0.822755 0.751108 0.068393
C23   C     C_R   0.866705 0.685294 0.683611 -0.187602
C24   C     C_R   0.793499 0.677481 0.748734 0.069198
C25   C     C_R   0.813076 0.742204 0.815063 0.069053
C26   C     C_R   0.905176 0.814870 0.816232 -0.186151
C27   C     C_R   0.704088 0.605203 0.749559 -0.140042
C28   C     C_R   0.634435 0.597182 0.813654 -0.124103
C29   C     C_R   0.653914 0.660267 0.878392 -0.117688
C30   C     C_R   0.742975 0.731857 0.879487 -0.129849
H9    H     H_    0.082530 0.946672 0.798783 0.110317
H10   H     H_    0.204750 0.958857 0.686648 0.119272
H11   H     H_    0.170989 0.846610 0.571685 0.112878
H12   H     H_    0.014615 0.721642 0.568364 0.104222
H13   H     H_    0.687997 0.553866 0.700978 0.107681
H14   H     H_    0.566295 0.541451 0.813119 0.121399
H15   H     H_    0.757707 0.778445 0.931537 0.104266
H16   H     H_    0.580603 0.483601 0.194600 0.120539
C31   C     C_R   0.232417 0.219535 0.372724 -0.140805
C32   C     C_R   0.189762 0.141265 0.370011 -0.120355
C33   C     C_R   0.222743 0.077600 0.307083 -0.123459
C34   C     C_R   0.298792 0.091703 0.246384 -0.135865
C35   C     C_R   0.341707 0.170607 0.247068 0.073335
C36   C     C_R   0.307476 0.235958 0.311739 0.070279
C37   C     C_R   0.420661 0.184575 0.185106 -0.188216
C38   C     C_R   0.465358 0.264294 0.188265 0.067537
C39   C     C_R   0.430866 0.329655 0.252935 0.073699
C40   C     C_R   0.352178 0.315645 0.314906 -0.186575
C41   C     C_R   0.540526 0.280781 0.127303 -0.140731
C42   C     C_R   0.582559 0.359133 0.130045 -0.116414
C43   C     C_R   0.549007 0.422786 0.192934 -0.128452
C44   C     C_R   0.473182 0.408613 0.253621 -0.140503
H17   H     H_    0.206364 0.266792 0.423206 0.101567
H18   H     H_    0.131894 0.129947 0.417200 0.110068
H19   H     H_    0.190644 0.016836 0.305426 0.114658
H20   H     H_    0.325535 0.039916 0.199347 0.100272
H21   H     H_    0.567217 0.233565 0.076793 0.107360
H22   H     H_    0.640419 0.370537 0.082898 0.117039
H23   H     H_    0.446164 0.460403 0.300651 0.102375
C45   C     C_R   0.535733 0.322656 0.717570 -0.159552
H24   H     H_    0.666582 0.328076 0.749414 0.116899
C46   C     C_R   0.522338 0.366956 0.670120 -0.216070
H25   H     H_    0.644394 0.404348 0.666572 0.147780
C47   C     C_R   0.353636 0.364501 0.628940 -0.066302
C48   C     C_R   0.197266 0.314786 0.635649 0.204175
C49   C     C_R   0.213455 0.269869 0.683181 -0.181867
H26   H     H_    0.094979 0.230620 0.686355 0.098660
C50   C     C_R   0.381505 0.273541 0.724914 0.059889
C51   C     C_R   0.230915 0.212874 0.812774 -0.146588
H27   H     H_    0.093469 0.238522 0.806646 0.103106
C52   C     C_R   0.241874 0.167138 0.859118 -0.170479
H28   H     H_    0.112123 0.158109 0.886360 0.123345
C53   C     C_R   0.417888 0.134236 0.870695 -0.054698
C54   C     C_R   0.582859 0.148259 0.834638 -0.163952
H29   H     H_    0.720503 0.123327 0.841850 0.117999
C55   C     C_R   0.571419 0.193218 0.787484 -0.144788
H30   H     H_    0.700422 0.200837 0.759229 0.098189
C56   C     C_R   0.395087 0.226135 0.775750 0.103580
O11   O     O_R   0.273230 0.084330 0.086440 -0.534621
O12   O     O_R   0.596660 0.069390 0.940470 -0.545171
O13   O     O_R   0.760270 0.915710 0.913690 -0.535685
C57   C     C_R   0.427819 0.084680 0.919204 0.683738
O14   O     O_R   0.603330 0.093680 0.087390 -0.537100
O15   O     O_R   0.766990 0.940160 0.061660 -0.542466
C58   C     C_R   0.434767 0.116719 0.115357 0.698241
O16   O     O_R   0.266510 0.059870 0.938470 -0.542648
O17   O     O_3   0.431050 0.949630 0.991510 -0.367665
V3    V     V_3+5 0.708490 0.009340 0.001580 1.410682
O18   O     O_R   0.096270 0.930570 0.059390 -0.543067
C59   C     C_R   0.927321 0.915399 0.080930 0.686844
O19   O     O_R   0.089600 0.906290 0.912460 -0.537920
C60   C     C_R   0.919492 0.883383 0.884924 0.697340
V4    V     V_3+5 0.207670 0.990600 0.998190 1.414951
O20   O     O_3   0.935250 0.050360 0.008480 -0.367912
N1    N     N_3   0.193860 0.656193 0.227054 -0.694685
H31   H     H_    0.195407 0.595431 0.195951 0.233630
H32   H     H_    0.320230 0.669075 0.258426 0.219206
N2    N     N_3   0.023964 0.308441 0.593282 -0.652395
H33   H     H_    0.055880 0.274161 0.539980 0.211281
H34   H     H_    0.916029 0.277134 0.610601 0.220261

loop_
_geom_bond_atom_site_label_1
_geom_bond_atom_site_label_2
_ccdc_geom_bond_type
C35   C37   A    
C53   C54   A    
C26   C60   S    
C42   H22   S    
C21   C22   A    
C41   H21   S    
O19   C60   A    
C1    O6    A    
O19   V4    S    
C19   H11   S    
C25   C26   A    
C33   H19   S    
O13   C60   A    
C32   H18   S    
C11   H4    S    
C17   C18   A    
C13   C59   S    
C36   C40   A    
C27   H13   S    
C12   H5    S    
C39   C44   A    
C44   H23   S    
C41   C42   A    
O5    C3    A    
C13   C14   A    
C17   H9    S    
C49   C50   A    
H16   C43   S    
C38   C41   A    
C18   H10   S    
V2    O10   S    
C6    H1    S    
C22   C26   A    
V3    O20   S    
C17   C22   A    
C29   C30   A    
N2    H33   S    
O17   V4    S    
O8    V2    S    
C27   C28   A    
N1    H32   S    
C55   C56   A    
C9    H3    S    
C14   C15   A    
C57   O16   A    
C42   C43   A    
O1    V2    S    
C51   C52   A    
O7    V1    S    
C31   H17   S    
C52   H28   S    
C24   C27   A    
O18   V4    S    
O13   V3    S    
C2    C47   S    
C31   C32   A    
C8    H2    S    
C21   C23   A    
C34   H20   S    
C48   N2    S    
C37   C58   S    
C15   H7    S    
O11   C58   A    
O12   V3    S    
O16   V4    S    
C39   C40   A    
C4    C7    S    
C47   C48   A    
C45   C46   A    
C19   C20   A    
O4    C2    A    
C49   H26   S    
C48   C49   A    
C32   C33   A    
O2    C1    A    
C23   C24   A    
O5    V1    S    
C34   C35   A    
C52   C53   A    
C14   H6    S    
O17   V3    S    
C55   H30   S    
O12   C57   A    
C5    C6    A    
C31   C36   A    
C54   H29   S    
O14   C58   A    
C54   C55   A    
O14   V3    S    
O3    C4    A    
C10   C16   S    
C28   C29   A    
C37   C38   A    
O6    V2    S    
C46   C47   A    
O9    V2    S    
O2    V1    S    
O15   V3    S    
C24   C25   A    
C5    N1    S    
C1    C40   S    
V4    O20   S    
C28   H14   S    
C20   C21   A    
O1    C2    A    
C30   H15   S    
C11   C12   A    
C45   H24   S    
C53   C57   S    
O11   V4    S    
O8    C3    A    
C3    C23   S    
C20   H12   S    
C51   C56   A    
C5    C10   A    
C8    C9    A    
O7    V2    S    
O4    V1    S    
C45   C50   A    
O3    V1    S    
V1    O10   S    
O18   C59   A    
O15   C59   A    
C18   C19   A    
C25   C30   A    
C12   C13   A    
C15   C16   A    
C38   C39   A    
C6    C7    A    
C9    C10   A    
C33   C34   A    
N2    H34   S    
C35   C36   A    
C11   C16   A    
C43   C44   A    
C7    C8    A    
C46   H25   S    
C51   H27   S    
O9    C4    A    
C50   C56   S    
H8    C29   S    
N1    H31   S    
