data_mof_unit_44312.cif
_audit_creation_date              2012-12-10T16:57:02-0500
_audit_creation_method            fapswitch 2.2
_symmetry_space_group_name_H-M    P1
_symmetry_Int_Tables_number       1
_space_group_crystal_system       triclinic
_cell_length_a                    7.803058
_cell_length_b                    8.612867
_cell_length_c                    16.868389
_cell_angle_alpha                 92.582194
_cell_angle_beta                  79.508025
_cell_angle_gamma                 93.745702
_cell_volume                      1111.69780395

loop_
_atom_site_label
_atom_site_type_symbol
_atom_type_description
_atom_site_fract_x
_atom_site_fract_y
_atom_site_fract_z
_atom_type_partial_charge
C1    C     C_R   0.545758 0.794253 0.497550 0.837504
C2    C     C_R   0.510894 0.354524 0.219714 0.128440
C3    C     C_R   0.435373 0.306057 0.849463 -0.146264
C4    C     C_R   0.516013 0.355366 0.137096 -0.141429
C5    C     C_R   0.385566 0.429707 0.902685 0.091089
C6    C     C_R   0.547484 0.495832 0.096811 0.098379
C7    C     C_R   0.358956 0.575024 0.874942 -0.150001
C8    C     C_R   0.590043 0.634053 0.136968 -0.159706
C9    C     C_R   0.390254 0.600447 0.792708 0.133129
C10   C     C_R   0.586694 0.636109 0.219693 0.133822
C11   C     C_2   0.398911 0.416287 0.986094 -0.219892
C12   C     C_R   0.454519 0.205659 0.500973 0.826414
C13   C     C_2   0.524882 0.502943 0.013778 -0.201245
C14   C     C_3   0.525347 0.193642 0.710040 -0.837207
C15   C     C_3   0.469549 0.203556 0.263292 -0.867564
C16   C     C_3   0.625443 0.787348 0.263499 -0.888697
C17   C     C_3   0.366350 0.759339 0.763557 -0.882098
C18   C     C_2   0.570183 0.956723 0.496416 0.279197
C19   C     C_2   0.430619 0.043022 0.500003 0.272471
C20   C     C_R   0.475082 0.499737 0.653375 0.848114
C21   C     C_R   0.524384 0.498637 0.346841 0.840901
C22   C     C_R   0.450214 0.477656 0.738828 -0.018000
C23   C     C_R   0.541474 0.496423 0.260874 -0.008569
C24   C     C_R   0.469666 0.328710 0.766870 0.118218
F1    F     F_    0.737333 0.017277 0.493053 -0.583474
F2    F     F_    0.263736 0.982383 0.502563 -0.582759
F3    F     F_    0.040765 0.351809 0.429651 -0.527380
F4    F     F_    0.959240 0.648164 0.570366 -0.523950
H1    H     H_    0.605282 0.588679 0.975758 0.163186
H2    H     H_    0.448793 0.103877 0.221307 0.236403
H3    H     H_    0.579186 0.178780 0.293668 0.241769
H4    H     H_    0.348718 0.212127 0.309237 0.285703
H5    H     H_    0.508982 0.818153 0.308441 0.242713
H6    H     H_    0.736691 0.775359 0.295066 0.261378
H7    H     H_    0.660742 0.884540 0.221392 0.242805
H8    H     H_    0.489850 0.804071 0.725818 0.237629
H9    H     H_    0.260925 0.751956 0.727145 0.279893
H10   H     H_    0.330469 0.844279 0.814493 0.231610
H11   H     H_    0.315032 0.330298 0.022143 0.161250
H12   H     H_    0.321805 0.669828 0.917866 0.148072
H13   H     H_    0.617187 0.741248 0.104434 0.137408
H14   H     H_    0.491428 0.247344 0.104497 0.138010
H15   H     H_    0.456820 0.194921 0.872711 0.141358
H16   H     H_    0.536047 0.087315 0.743159 0.235538
H17   H     H_    0.427600 0.166923 0.670434 0.222530
H18   H     H_    0.655106 0.222141 0.672706 0.278282
N1    N     N_2   0.953500 0.457650 0.478520 0.273616
N2    N     N_2   0.046500 0.542350 0.521480 0.273147
O1    O     O_R   0.388470 0.738640 0.505270 -0.570697
O2    O     O_R   0.611530 0.261360 0.494730 -0.571595
O3    O     O_R   0.679650 0.711510 0.491500 -0.539790
O4    O     O_R   0.320350 0.288490 0.508500 -0.541346
O5    O     O_R   0.337210 0.515200 0.623500 -0.617143
O6    O     O_R   0.662790 0.484800 0.376500 -0.615451
O7    O     O_R   0.628380 0.488060 0.609730 -0.586161
O8    O     O_R   0.371620 0.511940 0.390270 -0.583279
Zn1   Zn    Zn3+2 0.305580 0.518120 0.509190 1.162275
Zn2   Zn    Zn3+2 0.694420 0.481880 0.490810 1.161445

loop_
_geom_bond_atom_site_label_1
_geom_bond_atom_site_label_2
_ccdc_geom_bond_type
C21   O8    A    
C2    C4    A    
C7    H12   S    
C15   H3    S    
C17   H8    S    
C16   H5    S    
C11   C13   D    
C14   H16   S    
C12   O2    A    
N1    N2    D    
C3    C5    A    
C3    C24   A    
C15   H4    S    
C14   H18   S    
O3    Zn2   S    
C10   C16   S    
C8    H13   S    
N1    Zn2   S    
C11   H11   S    
C2    C15   S    
C1    O3    A    
C3    H15   S    
C1    C18   S    
C18   F1    S    
C4    H14   S    
C14   C24   S    
C20   O7    A    
C12   C19   S    
C9    C17   S    
C12   O4    A    
C20   C22   S    
C5    C11   S    
C14   H17   S    
C17   H10   S    
C21   C23   S    
C16   H7    S    
C21   O6    A    
C10   C23   A    
C22   C24   A    
C9    C22   A    
C4    C6    A    
O4    Zn1   S    
C17   H9    S    
F3    N1    S    
O2    Zn2   S    
C7    C9    A    
N2    Zn1   S    
O1    Zn1   S    
O8    Zn1   S    
C15   H2    S    
C8    C10   A    
C18   C19   D    
O6    Zn2   S    
O7    Zn2   S    
C13   H1    S    
C2    C23   A    
C5    C7    A    
C19   F2    S    
O5    Zn1   S    
F4    N2    S    
C6    C8    A    
C16   H6    S    
C1    O1    A    
C20   O5    A    
C6    C13   S    
