data_mof_unit_56799.cif
_audit_creation_date              2012-12-10T19:25:49-0500
_audit_creation_method            fapswitch 2.2
_symmetry_space_group_name_H-M    P1
_symmetry_Int_Tables_number       1
_space_group_crystal_system       triclinic
_cell_length_a                    9.896701
_cell_length_b                    10.504143
_cell_length_c                    17.16436
_cell_angle_alpha                 90.968043
_cell_angle_beta                  81.864865
_cell_angle_gamma                 91.59353
_cell_volume                      1765.55413496

loop_
_atom_site_label
_atom_site_type_symbol
_atom_type_description
_atom_site_fract_x
_atom_site_fract_y
_atom_site_fract_z
_atom_type_partial_charge
C1    C     C_R   0.501329 0.741913 0.499076 0.949251
C2    C     C_R   0.498633 0.258072 0.501063 0.982363
C3    C     C_3   0.375940 0.954135 0.487877 -0.197813
C4    C     C_3   0.623938 0.045772 0.512498 -0.172481
C5    C     C_3   0.471373 0.040188 0.431939 0.726591
C6    C     C_3   0.528512 0.959693 0.568431 0.702635
C7    C     C_3   0.498132 0.122879 0.501905 -0.242834
C8    C     C_3   0.501753 0.877052 0.498451 -0.240588
C9    C     C_3   0.403661 0.038635 0.559099 -0.274660
C10   C     C_3   0.596218 0.961275 0.441277 -0.256816
C11   C     C_3   0.955439 0.612804 0.507512 0.314294
C12   C     C_3   0.044412 0.386915 0.492344 0.336722
C13   C     C_3   0.064649 0.565778 0.443245 0.643398
C14   C     C_3   0.935081 0.433820 0.556524 0.639541
C15   C     C_3   0.033640 0.546966 0.565072 -0.327619
C16   C     C_3   0.965504 0.452452 0.434779 -0.375756
C17   C     C_R   0.478347 0.510921 0.652399 0.925411
C18   C     C_R   0.522676 0.497783 0.347207 0.930884
C19   C     C_R   0.467258 0.544795 0.737282 -0.220810
C20   C     C_R   0.540143 0.506480 0.260729 -0.212399
C21   C     C_R   0.591240 0.562899 0.767878 -0.116435
C22   C     C_R   0.426998 0.548760 0.228444 -0.156546
C23   C     C_R   0.592640 0.600189 0.844869 -0.164239
C24   C     C_R   0.433283 0.564654 0.148811 -0.131339
C25   C     C_R   0.470883 0.604984 0.896359 -0.038240
C26   C     C_R   0.556163 0.548850 0.099372 -0.012030
C27   C     C_R   0.345256 0.580277 0.869236 0.361631
C28   C     C_R   0.674976 0.516891 0.130115 0.342020
C29   C     C_R   0.343110 0.569098 0.787422 0.268205
C30   C     C_R   0.663780 0.481011 0.210001 0.231848
C31   C     C_2   0.478344 0.625068 0.979688 -0.058441
C32   C     C_2   0.556291 0.548872 0.014448 -0.058790
H1    H     H_    0.689562 0.552573 0.731942 0.240274
H2    H     H_    0.330604 0.567597 0.264525 0.255404
H3    H     H_    0.058761 0.598690 0.617074 0.293860
H4    H     H_    0.934434 0.397665 0.384840 0.286673
H5    H     H_    0.619061 0.479575 0.979367 0.192007
H6    H     H_    0.411624 0.693067 0.012972 0.192775
H7    H     H_    0.340508 0.588077 0.126193 0.222457
H8    H     H_    0.689980 0.618404 0.865440 0.200847
H9    H     H_    0.276482 0.914358 0.475036 0.262681
H10   H     H_    0.723367 0.085531 0.525385 0.260924
H11   H     H_    0.328841 0.072081 0.608993 0.237218
H12   H     H_    0.671006 0.927701 0.391402 0.234863
N1    N     N_3   0.136700 0.499970 0.500060 -0.204025
N2    N     N_3   0.863300 0.500030 0.499940 -0.217474
O1    O     O_R   0.383390 0.686040 0.500000 -0.583621
O2    O     O_R   0.616610 0.313960 0.500000 -0.585328
O3    O     O_R   0.616650 0.686050 0.499970 -0.554020
O4    O     O_R   0.383350 0.313950 0.500030 -0.547895
O5    O     O_R   0.369590 0.500020 0.615820 -0.549403
O6    O     O_R   0.630410 0.499980 0.384180 -0.607549
O7    O     O_R   0.602840 0.500020 0.615790 -0.587560
O8    O     O_R   0.397160 0.499980 0.384210 -0.577119
Zn1   Zn    Zn3+2 0.344250 0.499990 0.500020 1.134761
Zn2   Zn    Zn3+2 0.655750 0.500010 0.499980 1.101703
S1    S     S_3+6 0.905401 0.772876 0.525074 0.092282
O9    O     O_2   0.860101 0.824490 0.452324 -0.303879
O10   O     O_2   0.792438 0.778023 0.593301 -0.229569
O11   O     O_3   0.039715 0.859927 0.547663 -0.529461
H13   H     H_    0.000825 0.940865 0.569747 0.416385
S2    S     S_3+6 0.094473 0.226725 0.475367 0.101861
O12   O     O_2   0.207381 0.221035 0.407141 -0.214809
O13   O     O_2   0.139875 0.175864 0.548290 -0.291288
O14   O     O_3   0.960191 0.139270 0.453127 -0.535743
H14   H     H_    0.999297 0.058552 0.430750 0.416418
S3    S     S_3+6 0.797484 0.393990 0.241664 0.118639
O15   O     O_2   0.745873 0.309227 0.309718 -0.261315
O16   O     O_2   0.862933 0.310529 0.175817 -0.153647
O17   O     O_3   0.915982 0.499049 0.266524 -0.488353
H15   H     H_    0.864249 0.571216 0.292389 0.361195
S4    S     S_3+6 0.195040 0.612688 0.748790 0.084687
O18   O     O_2   0.123853 0.492500 0.725815 -0.229427
O19   O     O_2   0.098915 0.686150 0.807491 -0.214422
O20   O     O_3   0.240850 0.706451 0.670358 -0.539841
H16   H     H_    0.292419 0.779169 0.690360 0.374651
S5    S     S_3+6 0.197805 0.544357 0.938200 0.110647
O21   O     O_2   0.139824 0.666570 0.973286 -0.211067
O22   O     O_2   0.092080 0.471560 0.899376 -0.194508
O23   O     O_3   0.241681 0.454200 0.010281 -0.548855
H17   H     H_    0.154161 0.422026 0.039448 0.436242
S6    S     S_3+6 0.835463 0.531786 0.068170 0.114744
O24   O     O_2   0.949721 0.563826 0.114621 -0.170908
O25   O     O_2   0.863763 0.408095 0.024303 -0.245764
O26   O     O_3   0.829461 0.649519 0.003414 -0.507916
H18   H     H_    0.869855 0.614480 0.951713 0.409216
F1    F     F_    0.443343 0.085917 0.361057 -0.576956
F2    F     F_    0.556649 0.913864 0.639271 -0.609616
F3    F     F_    0.134848 0.638294 0.383504 -0.600732
F4    F     F_    0.864411 0.362102 0.616539 -0.578304

loop_
_geom_bond_atom_site_label_1
_geom_bond_atom_site_label_2
_ccdc_geom_bond_type
C25   C31   S    
C26   C32   S    
C27   C29   A    
C1    C8    S    
C11   C13   S    
C2    C7    S    
C17   O5    A    
C6    C9    S    
C18   O6    A    
C14   N2    S    
C20   C30   A    
S5    O21   D    
C19   C21   A    
C24   C26   A    
S4    O20   S    
O23   H17   S    
S1    O10   D    
C21   H1    S    
C23   H8    S    
C24   H7    S    
C6    F2    S    
C7    C9    S    
C27   S5    S    
C14   F4    S    
S2    O13   D    
C2    O4    A    
C11   C15   S    
C12   C16   S    
O17   H15   S    
C18   C20   S    
C30   S3    S    
C29   S4    S    
C4    C7    S    
C15   H3    S    
S5    O22   D    
C22   H2    S    
C9    H11   S    
C28   S6    S    
S3    O15   D    
S4    O19   D    
C3    C8    S    
C16   N2    S    
C5    C7    S    
S4    O18   D    
S1    O11   S    
C6    C8    S    
C2    O2    A    
O26   H18   S    
C10   H12   S    
O11   H13   S    
S3    O16   D    
O20   H16   S    
S2    O12   D    
C3    C9    S    
C12   S2    S    
C31   C32   D    
C32   H5    S    
C4    C6    S    
C12   C14   S    
O14   H14   S    
S6    O25   D    
C21   C23   A    
C22   C24   A    
C15   N1    S    
C4    C10   S    
S6    O26   S    
C17   O7    A    
O1    Zn1   S    
O7    Zn2   S    
O2    Zn2   S    
O8    Zn1   S    
C3    H9    S    
S2    O14   S    
C13   F3    S    
C1    O1    A    
C20   C22   A    
C12   N1    S    
C3    C5    S    
C25   C27   A    
O3    Zn2   S    
C26   C28   A    
O4    Zn1   S    
C31   H6    S    
S3    O17   S    
C28   C30   A    
C5    C10   S    
C16   H4    S    
C13   N1    S    
S5    O23   S    
S1    O9    D    
C4    H10   S    
C17   C19   S    
O5    Zn1   S    
C23   C25   A    
C18   O8    A    
C5    F1    S    
N1    Zn1   S    
C8    C10   S    
S6    O24   D    
C13   C16   S    
N2    Zn2   S    
C14   C15   S    
C11   N2    S    
C11   S1    S    
C1    O3    A    
O6    Zn2   S    
C19   C29   A    
