data_mof_unit_16764.cif
_audit_creation_date              2012-12-10T20:38:15-0500
_audit_creation_method            fapswitch 2.2
_symmetry_space_group_name_H-M    P1
_symmetry_Int_Tables_number       1
_space_group_crystal_system       triclinic
_cell_length_a                    9.834183
_cell_length_b                    10.787026
_cell_length_c                    16.820007
_cell_angle_alpha                 91.03363
_cell_angle_beta                  85.862407
_cell_angle_gamma                 90.034141
_cell_volume                      1779.35253809

loop_
_atom_site_label
_atom_site_type_symbol
_atom_type_description
_atom_site_fract_x
_atom_site_fract_y
_atom_site_fract_z
_atom_type_partial_charge
C1    C     C_R   0.500612 0.739950 0.498078 0.934143
C2    C     C_R   0.407242 0.431689 0.787208 0.477910
C3    C     C_R   0.433127 0.420491 0.136419 0.417305
C4    C     C_R   0.416639 0.470044 0.213906 0.174796
C5    C     C_R   0.662211 0.454784 0.223589 -0.299852
C6    C     C_R   0.679623 0.419148 0.144007 0.260778
C7    C     C_R   0.565096 0.401423 0.100783 -0.076576
C8    C     C_2   0.572684 0.503710 0.977868 -0.106969
C9    C     C_2   0.579795 0.395674 0.014643 -0.074558
C10   C     C_R   0.531336 0.479723 0.259769 -0.222529
C11   C     C_R   0.379323 0.937218 0.504854 -0.066367
C12   C     C_R   0.482292 0.503771 0.652608 0.933033
C13   C     C_R   0.502697 0.872063 0.497282 -0.178249
C14   C     C_R   0.628275 0.937645 0.493097 0.474374
C15   C     C_R   0.625900 0.065993 0.498645 -0.320746
C16   C     C_R   0.502112 0.129133 0.498336 -0.133454
C17   C     C_R   0.380965 0.063725 0.500921 -0.041362
C18   C     C_3   0.260559 0.068884 0.451192 0.309791
C19   C     C_3   0.249625 0.928148 0.461941 0.010283
C20   C     C_R   0.920458 0.534820 0.566961 0.173770
C21   C     C_R   0.935525 0.450313 0.437712 -0.138743
C22   C     C_R   0.079653 0.449118 0.438154 -0.045012
C23   C     C_R   0.500375 0.260369 0.498726 0.923682
C24   C     C_R   0.063109 0.534473 0.567181 0.187192
C25   C     C_3   0.063240 0.656632 0.610140 0.061085
C26   C     C_3   0.908713 0.656773 0.609672 -0.524550
C27   C     C_R   0.518215 0.500024 0.346376 0.936760
C28   C     C_R   0.477489 0.517401 0.738005 -0.073994
C29   C     C_R   0.562571 0.607240 0.769394 -0.255335
C30   C     C_R   0.589443 0.604793 0.848812 -0.144121
C31   C     C_R   0.533955 0.510698 0.896442 0.108927
C32   C     C_R   0.439127 0.427182 0.866969 -0.244026
H1    H     H_    0.613673 0.675370 0.731222 0.162730
H2    H     H_    0.721866 0.115343 0.499183 0.185568
H3    H     H_    0.174040 0.119098 0.483505 0.093487
H4    H     H_    0.162084 0.905817 0.504626 0.103051
H5    H     H_    0.887361 0.412268 0.386878 0.159861
H6    H     H_    0.140104 0.407785 0.388528 0.195888
H7    H     H_    0.114054 0.730353 0.573920 0.156329
H8    H     H_    0.854385 0.648805 0.669591 0.229033
H9    H     H_    0.869817 0.730572 0.572469 0.247863
H10   H     H_    0.752137 0.463321 0.256844 0.214427
H11   H     H_    0.568577 0.307364 0.983831 0.139128
H12   H     H_    0.392402 0.357527 0.905366 0.145643
H13   H     H_    0.585799 0.590368 0.010664 0.159361
H14   H     H_    0.659261 0.671908 0.871935 0.158312
N1    N     N_R   0.857140 0.500860 0.500530 -0.112928
N2    N     N_R   0.142780 0.500820 0.500530 -0.124539
O1    O     O_R   0.385310 0.683210 0.499990 -0.586509
O2    O     O_R   0.614650 0.683240 0.500000 -0.594578
O3    O     O_R   0.371780 0.500000 0.615800 -0.565972
O4    O     O_R   0.601120 0.500040 0.615800 -0.631856
O5    O     O_R   0.385350 0.316760 0.500000 -0.608193
O6    O     O_R   0.614690 0.316790 0.500010 -0.634377
O7    O     O_R   0.398880 0.499960 0.384200 -0.561676
O8    O     O_R   0.628220 0.500000 0.384200 -0.657272
Zn1   Zn    Zn3+2 0.346870 0.499980 0.499990 1.023418
Zn2   Zn    Zn3+2 0.653130 0.500020 0.500010 0.947449
Br1   Br    Br    0.860953 0.397555 0.095869 -0.556347
O9    O     O_3   0.752973 0.877098 0.488249 -0.645283
C33   C     C_3   0.822670 0.893335 0.412358 0.053251
H15   H     H_    0.933634 0.888108 0.420326 0.195392
H16   H     H_    0.805009 0.985608 0.386161 0.125355
C34   C     C_3   0.786061 0.789319 0.354368 -0.345397
H17   H     H_    0.807595 0.698200 0.380514 0.266844
H18   H     H_    0.675691 0.794205 0.344424 0.209281
C35   C     C_3   0.868295 0.798586 0.274256 -0.849348
H19   H     H_    0.849416 0.888874 0.246365 0.254583
H20   H     H_    0.837551 0.722848 0.233700 0.279744
H21   H     H_    0.978867 0.789133 0.282208 0.312501
O10   O     O_3   0.286510 0.116201 0.372398 -0.622326
C36   C     C_3   0.398227 0.063236 0.325124 0.177763
H22   H     H_    0.356926 0.010317 0.275020 0.193251
H23   H     H_    0.462324 0.999169 0.357044 0.153486
C37   C     C_3   0.489308 0.164819 0.288722 -0.390205
H24   H     H_    0.428574 0.222919 0.250874 0.219120
H25   H     H_    0.528408 0.224143 0.336452 0.220804
C38   C     C_3   0.609844 0.109315 0.237926 -0.952828
H26   H     H_    0.671883 0.050660 0.274966 0.261694
H27   H     H_    0.675674 0.184343 0.212647 0.290052
H28   H     H_    0.573391 0.052224 0.188135 0.270508
Br2   Br    Br    0.248693 0.818284 0.368566 -0.530982
Br3   Br    Br    0.124579 0.643800 0.716791 -0.538958
Br4   Br    Br    0.239286 0.534714 0.248804 -0.442712
O11   O     O_3   0.322079 0.407208 0.090632 -0.602486
C39   C     C_3   0.250695 0.296942 0.111354 0.151728
H29   H     H_    0.147080 0.305217 0.089997 0.223558
H30   H     H_    0.236431 0.284145 0.177025 0.151352
C40   C     C_3   0.319521 0.182503 0.070712 -0.471922
H31   H     H_    0.332170 0.196379 0.005390 0.231344
H32   H     H_    0.421842 0.168970 0.093124 0.224846
C41   C     C_3   0.234952 0.065919 0.087118 -0.861495
H33   H     H_    0.221817 0.049589 0.152234 0.270942
H34   H     H_    0.287768 0.984633 0.057597 0.273822
H35   H     H_    0.133122 0.075291 0.063235 0.271921
O12   O     O_3   0.325515 0.342703 0.753529 -0.650802
C42   C     C_3   0.198194 0.329801 0.797798 0.129166
H36   H     H_    0.116633 0.342403 0.756242 0.186098
H37   H     H_    0.178229 0.400811 0.846393 0.164547
C43   C     C_3   0.185794 0.198906 0.831249 -0.387562
H38   H     H_    0.183089 0.130583 0.781113 0.242778
H39   H     H_    0.275952 0.177611 0.864674 0.221912
C44   C     C_3   0.057090 0.185145 0.886727 -0.886894
H40   H     H_    0.060435 0.249448 0.938903 0.285361
H41   H     H_    0.049922 0.088717 0.908647 0.272004
H42   H     H_    0.965150 0.205371 0.854505 0.269505

loop_
_geom_bond_atom_site_label_1
_geom_bond_atom_site_label_2
_ccdc_geom_bond_type
C10   C27   S    
C22   N2    A    
C5    H10   S    
C3    O11   S    
C11   C13   A    
C12   O3    A    
C42   H36   S    
N2    Zn1   S    
O11   C39   S    
C11   C19   S    
C12   C28   S    
C28   C29   A    
C3    C7    A    
C19   H4    S    
O6    Zn2   S    
C30   C31   A    
C27   O7    A    
C15   C16   A    
C22   H6    S    
C29   H1    S    
O1    Zn1   S    
C2    C32   A    
C18   C19   S    
C33   H16   S    
C8    H13   S    
C41   H33   S    
C42   H37   S    
C20   C24   A    
C8    C9    D    
O3    Zn1   S    
C40   H32   S    
C19   Br2   S    
C1    O2    A    
C15   H2    S    
C13   C14   A    
C36   C37   S    
C41   H34   S    
C12   O4    A    
C23   O5    A    
C9    H11   S    
C35   H19   S    
O2    Zn2   S    
C34   C35   S    
C24   C25   S    
C36   H23   S    
O5    Zn1   S    
C27   O8    A    
C16   C17   A    
C25   C26   S    
C43   C44   S    
O9    C33   S    
C35   H20   S    
C24   N2    A    
C33   C34   S    
C37   H24   S    
C29   C30   A    
C31   C32   A    
C4    Br4   S    
O12   C42   S    
C43   H39   S    
C17   C18   S    
C32   H12   S    
C38   H27   S    
C44   H41   S    
C40   C41   S    
C37   H25   S    
O4    Zn2   S    
C16   C23   S    
O7    Zn1   S    
C1    C13   S    
C4    C10   A    
C3    C4    A    
C42   C43   S    
C23   O6    A    
C18   H3    S    
C18   O10   S    
C7    C9    S    
C11   C17   A    
C39   H29   S    
C8    C31   S    
C6    Br1   S    
C30   H14   S    
C36   H22   S    
C39   C40   S    
C6    C7    A    
C14   O9    S    
C35   H21   S    
C34   H17   S    
C2    O12   S    
O10   C36   S    
C25   H7    S    
N1    Zn2   S    
C38   H26   S    
C38   H28   S    
C26   H8    S    
C5    C6    A    
C20   C26   S    
C43   H38   S    
O8    Zn2   S    
C44   H42   S    
C39   H30   S    
C41   H35   S    
C33   H15   S    
C37   C38   S    
C20   N1    A    
C5    C10   A    
C21   H5    S    
C44   H40   S    
C25   Br3   S    
C14   C15   A    
C2    C28   A    
C40   H31   S    
C21   C22   A    
C1    O1    A    
C26   H9    S    
C34   H18   S    
C21   N1    A    
