data_mof_unit_18192.cif
_audit_creation_date              2012-12-10T16:39:33-0500
_audit_creation_method            fapswitch 2.2
_symmetry_space_group_name_H-M    P1
_symmetry_Int_Tables_number       1
_space_group_crystal_system       triclinic
_cell_length_a                    16.784754
_cell_length_b                    16.798029
_cell_length_c                    16.688613
_cell_angle_alpha                 65.779396
_cell_angle_beta                  65.463857
_cell_angle_gamma                 65.837911
_cell_volume                      3738.23992642

loop_
_atom_site_label
_atom_site_type_symbol
_atom_type_description
_atom_site_fract_x
_atom_site_fract_y
_atom_site_fract_z
_atom_type_partial_charge
C1    C     C_R   0.329042 0.936896 0.462821 0.006553
C2    C     C_R   0.315989 0.428770 0.001808 -0.012892
C3    C     C_R   0.552723 0.428884 0.956770 -0.026583
C4    C     C_R   0.050904 0.444666 0.569696 -0.025638
C5    C     C_R   0.988424 0.547242 0.412613 -0.026631
C6    C     C_3   0.292621 0.868527 0.292045 -0.831593
C7    C     C_3   0.705019 0.132410 0.705847 -0.829524
C8    C     C_3   0.869061 0.293748 0.302659 -0.817142
C9    C     C_3   0.129481 0.709463 0.707405 -0.815289
C10   C     C_3   0.292952 0.300131 0.869876 -0.830374
C11   C     C_3   0.707189 0.699506 0.129732 -0.829250
C12   C     C_3   0.295541 0.969007 0.838966 -0.920866
C13   C     C_R   0.054429 0.674820 0.539478 0.005721
C14   C     C_3   0.733490 0.971140 0.181914 -0.932245
C15   C     C_3   0.956478 0.837976 0.304556 -0.931045
C16   C     C_3   0.106532 0.151394 0.662924 -0.922631
C17   C     C_3   0.843063 0.391106 0.821162 -0.895669
C18   C     C_3   0.152914 0.643540 0.130892 -0.912597
C19   C     C_3   0.206656 0.920102 0.752273 -0.941432
C20   C     C_3   0.783979 0.082534 0.245297 -0.938919
C21   C     C_3   0.758166 0.250985 0.851700 -0.931740
C22   C     C_3   0.248448 0.718973 0.187058 -0.941299
C23   C     C_3   0.914154 0.747787 0.213463 -0.945091
C24   C     C_R   0.002541 0.313787 0.431421 -0.011407
C25   C     C_3   0.163170 0.242644 0.742663 -0.945082
C26   C     C_R   0.461176 0.966982 0.461151 0.021869
C27   C     C_R   0.542490 0.019764 0.542422 0.021293
C28   C     C_R   0.002201 0.452404 0.446354 0.022988
C29   C     C_R   0.038155 0.539150 0.535310 0.021267
C30   C     C_R   0.456440 0.450784 0.988945 0.022134
C31   C     C_R   0.544989 0.550399 0.007872 0.022534
C32   C     C_R   0.976082 0.177523 0.431566 0.929711
C33   C     C_R   0.672354 0.055816 0.538466 0.010236
C34   C     C_R   0.038688 0.820495 0.561825 0.925240
C35   C     C_R   0.177572 0.431226 0.976455 0.922152
C36   C     C_R   0.822746 0.568995 0.022750 0.923780
C37   C     C_R   0.438883 0.959455 0.179787 0.912919
C38   C     C_R   0.561618 0.039081 0.820149 0.916914
C39   C     C_R   0.560558 0.820376 0.040667 0.903777
C40   C     C_R   0.439703 0.179604 0.958886 0.906016
C41   C     C_R   0.041137 0.560923 0.819826 0.911446
C42   C     C_R   0.959604 0.439228 0.179948 0.912972
C43   C     C_R   0.819920 0.039528 0.561508 0.935503
C44   C     C_R   0.949341 0.459119 0.326478 0.009987
C45   C     C_R   0.180009 0.959443 0.438786 0.900620
C46   C     C_R   0.417663 0.946808 0.417716 0.066407
C47   C     C_R   0.584819 0.043099 0.584601 0.064103
C48   C     C_R   0.983009 0.408761 0.402685 0.066934
C49   C     C_R   0.053534 0.583805 0.581086 0.064905
C50   C     C_R   0.411664 0.403103 0.976618 0.069483
C51   C     C_R   0.589652 0.597876 0.020529 0.070143
C52   C     C_R   0.280925 0.930885 0.412418 -0.143395
C53   C     C_R   0.719162 0.065729 0.587806 -0.150523
C54   C     C_R   0.936742 0.411733 0.280510 -0.146889
C55   C     C_R   0.067974 0.537601 0.668000 0.006682
C56   C     C_R   0.070018 0.588165 0.718205 -0.148040
C57   C     C_R   0.412772 0.279648 0.934272 -0.151511
C58   C     C_R   0.587961 0.720442 0.064539 -0.150318
C59   C     C_R   0.588020 0.065058 0.719497 -0.142196
C60   C     C_R   0.412479 0.930891 0.280697 -0.149301
C61   C     C_R   0.727001 0.606657 0.028878 -0.131755
C62   C     C_R   0.273768 0.393826 0.969409 -0.131578
C63   C     C_R   0.064845 0.720951 0.588629 -0.145507
C64   C     C_R   0.969447 0.273085 0.395416 -0.129979
C65   C     C_R   0.448723 0.047756 0.713971 -0.196160
C66   C     C_R   0.461706 0.327656 0.941698 0.019908
C67   C     C_R   0.554740 0.938462 0.289319 -0.198757
C68   C     C_R   0.046698 0.715754 0.449002 -0.201397
C69   C     C_R   0.052308 0.263581 0.496311 -0.207585
C70   C     C_R   0.734972 0.512498 0.939587 -0.209493
C71   C     C_R   0.266480 0.490200 0.055418 -0.207115
C72   C     C_R   0.293141 0.929568 0.557647 -0.216001
C73   C     C_R   0.708559 0.061173 0.443940 -0.205854
C74   C     C_R   0.557782 0.304724 0.912302 -0.206789
C75   C     C_R   0.443542 0.694147 0.087906 -0.210836
C76   C     C_R   0.930961 0.554331 0.297292 -0.210094
C77   C     C_R   0.539409 0.672451 0.056813 0.021449
C78   C     C_R   0.086406 0.441864 0.698443 -0.219120
C79   C     C_R   0.328984 0.911628 0.328675 0.098994
C80   C     C_R   0.670290 0.086468 0.670636 0.088309
C81   C     C_R   0.926189 0.326047 0.327041 0.086174
C82   C     C_R   0.086198 0.672784 0.671280 0.091913
C83   C     C_R   0.326152 0.325208 0.925929 0.100039
C84   C     C_R   0.674467 0.674916 0.072879 0.099984
C85   C     C_R   0.669004 0.036571 0.400839 0.039424
C86   C     C_R   0.333744 0.951145 0.602355 0.030850
C87   C     C_R   0.082602 0.394130 0.647699 0.040838
C88   C     C_R   0.540126 0.052001 0.673729 0.007090
C89   C     C_R   0.954862 0.598944 0.335787 0.028622
C90   C     C_R   0.397368 0.642028 0.084237 0.043256
C91   C     C_R   0.604411 0.355895 0.917142 0.043878
C92   C     C_R   0.594583 0.970719 0.324749 0.038496
C93   C     C_R   0.412408 0.009203 0.681460 0.038705
C94   C     C_R   0.308534 0.541508 0.065635 0.040316
C95   C     C_R   0.692548 0.463272 0.926536 0.040045
C96   C     C_R   0.061336 0.305173 0.548863 0.034829
C97   C     C_R   0.009573 0.681186 0.413742 0.033368
C98   C     C_R   0.710482 0.034716 0.307868 0.189264
C99   C     C_R   0.461959 0.938968 0.328140 0.003550
C100  C     C_R   0.292661 0.951028 0.696108 0.190350
C101  C     C_R   0.110464 0.297424 0.672544 0.199602
C102  C     C_R   0.947418 0.693511 0.297974 0.198272
C103  C     C_R   0.301257 0.658067 0.123851 0.198266
C104  C     C_R   0.701207 0.336731 0.881794 0.194786
C105  C     C_R   0.679027 0.992057 0.273410 0.200977
C106  C     C_R   0.332844 0.979391 0.736222 0.187424
C107  C     C_R   0.256223 0.612525 0.108358 0.180154
C108  C     C_R   0.744027 0.396357 0.878311 0.178379
C109  C     C_R   0.094743 0.253037 0.626278 0.181550
C110  C     C_R   0.685290 0.572576 0.994956 -0.012266
C111  C     C_R   0.974174 0.735199 0.337823 0.186668
C112  C     C_R   0.547135 0.984454 0.412249 -0.024409
C113  C     C_R   0.457597 0.999935 0.592216 -0.022101
C114  C     C_R   0.037432 0.400704 0.522313 -0.021479
C115  C     C_R   0.010903 0.589477 0.454356 -0.019632
C116  C     C_R   0.404539 0.521797 0.031404 -0.020133
C117  C     C_R   0.596903 0.479946 0.964683 -0.018751
C118  C     C_R   0.586832 0.012494 0.452140 -0.020600
C119  C     C_R   0.417192 0.973167 0.551907 -0.020173
C120  C     C_R   0.448759 0.571939 0.040553 -0.026223
H1    H     H_    0.403156 0.079141 0.767918 0.176430
H2    H     H_    0.405605 0.749318 0.118799 0.168773
H3    H     H_    0.896162 0.593580 0.245332 0.180550
H4    H     H_    0.108597 0.403974 0.759165 0.183501
H5    H     H_    0.349924 0.824079 0.251104 0.214484
H6    H     H_    0.251932 0.823885 0.349622 0.220897
H7    H     H_    0.249218 0.921648 0.248434 0.267734
H8    H     H_    0.744997 0.177250 0.647531 0.227159
H9    H     H_    0.646904 0.177109 0.745991 0.214194
H10   H     H_    0.748715 0.080929 0.749847 0.268295
H11   H     H_    0.824388 0.352037 0.263162 0.224048
H12   H     H_    0.596777 0.911738 0.231795 0.181377
H13   H     H_    0.913626 0.246287 0.260212 0.263635
H14   H     H_    0.822859 0.259848 0.366263 0.220828
H15   H     H_    0.174821 0.749220 0.649483 0.215457
H16   H     H_    0.076147 0.753386 0.750926 0.265456
H17   H     H_    0.173651 0.652732 0.748445 0.228730
H18   H     H_    0.259481 0.362719 0.823282 0.222227
H19   H     H_    0.350919 0.259885 0.825029 0.215441
H20   H     H_    0.244752 0.258784 0.915698 0.265561
H21   H     H_    0.648994 0.739464 0.174714 0.213064
H22   H     H_    0.740514 0.636715 0.176262 0.223253
H23   H     H_    0.074959 0.771211 0.402247 0.181688
H24   H     H_    0.755344 0.741012 0.084445 0.264723
H25   H     H_    0.288587 0.899219 0.877645 0.250683
H26   H     H_    0.340895 0.975359 0.867317 0.250615
H27   H     H_    0.227995 0.020128 0.854588 0.228890
H28   H     H_    0.804479 0.974950 0.156422 0.244625
H29   H     H_    0.741812 0.899768 0.189462 0.225955
H30   H     H_    0.697809 0.018081 0.129318 0.248104
H31   H     H_    0.885356 0.871681 0.300586 0.262142
H32   H     H_    0.960552 0.866096 0.351724 0.254190
H33   H     H_    0.005610 0.857936 0.235861 0.229979
H34   H     H_    0.087116 0.192107 0.504752 0.194973
H35   H     H_    0.106235 0.122530 0.735779 0.253721
H36   H     H_    0.047969 0.136558 0.662655 0.238297
H37   H     H_    0.170975 0.115981 0.619231 0.253016
H38   H     H_    0.868020 0.355833 0.768172 0.253341
H39   H     H_    0.850204 0.460598 0.780785 0.238065
H40   H     H_    0.887870 0.356722 0.866594 0.239297
H41   H     H_    0.121509 0.712953 0.139239 0.255742
H42   H     H_    0.132758 0.648759 0.073004 0.237303
H43   H     H_    0.123649 0.594102 0.194150 0.250918
H44   H     H_    0.175166 0.929099 0.821903 0.252048
H45   H     H_    0.807159 0.503282 0.906982 0.190621
H46   H     H_    0.152617 0.960051 0.717487 0.238167
H47   H     H_    0.222945 0.846755 0.759935 0.243923
H48   H     H_    0.791601 0.100610 0.171320 0.254806
H49   H     H_    0.764457 0.149449 0.256911 0.236421
H50   H     H_    0.850528 0.039983 0.258666 0.238299
H51   H     H_    0.830896 0.230569 0.848283 0.252130
H52   H     H_    0.733692 0.191951 0.903332 0.233662
H53   H     H_    0.753494 0.260435 0.783761 0.245010
H54   H     H_    0.182630 0.705563 0.234282 0.258802
H55   H     H_    0.287088 0.704710 0.233996 0.236130
H56   H     H_    0.195110 0.496416 0.091806 0.190061
H57   H     H_    0.236091 0.791749 0.145754 0.239151
H58   H     H_    0.919690 0.818115 0.182875 0.254258
H59   H     H_    0.955863 0.714335 0.157909 0.240500
H60   H     H_    0.841554 0.751109 0.231673 0.238902
H61   H     H_    0.205813 0.174109 0.734836 0.260238
H62   H     H_    0.213596 0.275608 0.732001 0.236932
H63   H     H_    0.115227 0.236468 0.813454 0.236529
H64   H     H_    0.235318 0.903088 0.597651 0.184905
H65   H     H_    0.766828 0.086617 0.402724 0.186722
H66   H     H_    0.595279 0.251161 0.879176 0.166701
O1    O     O_R   0.982940 0.138950 0.510160 -0.646750
O2    O     O_R   0.982940 0.510160 0.138950 -0.646029
O3    O     O_R   0.861050 0.017060 0.489840 -0.636938
O4    O     O_R   0.138950 0.982940 0.510160 -0.651243
O5    O     O_R   0.867700 0.025880 0.612340 -0.603299
O6    O     O_R   0.132300 0.974120 0.387660 -0.615739
O7    O     O_R   0.025880 0.612340 0.867700 -0.607580
O8    O     O_R   0.974120 0.387660 0.132300 -0.604771
O9    O     O_R   0.612340 0.867700 0.025880 -0.610091
O10   O     O_R   0.387660 0.132300 0.974120 -0.609622
O11   O     O_R   0.387660 0.974120 0.132300 -0.613008
O12   O     O_R   0.017060 0.861050 0.489840 -0.646213
O13   O     O_R   0.612340 0.025880 0.867700 -0.613001
O14   O     O_R   0.132300 0.387660 0.974120 -0.622484
O15   O     O_R   0.867700 0.612340 0.025880 -0.621923
O16   O     O_R   0.974120 0.132300 0.387660 -0.623385
O17   O     O_R   0.025880 0.867700 0.612340 -0.615123
O18   O     O_R   0.138950 0.510160 0.982940 -0.642872
O19   O     O_R   0.861050 0.489840 0.017060 -0.640109
O20   O     O_R   0.510160 0.982940 0.138950 -0.635914
O21   O     O_R   0.489840 0.017060 0.861050 -0.644292
O22   O     O_R   0.489840 0.861050 0.017060 -0.628875
O23   O     O_R   0.510160 0.138950 0.982940 -0.628027
O24   O     O_R   0.017060 0.489840 0.861050 -0.645662
Zn1   Zn    Zn3+2 0.004880 0.004880 0.583590 0.916258
Zn2   Zn    Zn3+2 0.995120 0.995120 0.416410 0.913734
Zn3   Zn    Zn3+2 0.004880 0.583590 0.004880 0.914865
Zn4   Zn    Zn3+2 0.995120 0.416410 0.995120 0.923341
Zn5   Zn    Zn3+2 0.583590 0.004880 0.004880 0.929242
Zn6   Zn    Zn3+2 0.416410 0.995120 0.995120 0.924113

loop_
_geom_bond_atom_site_label_1
_geom_bond_atom_site_label_2
_ccdc_geom_bond_type
O20   Zn5   S    
C74   C91   A    
C20   H50   S    
C62   C83   A    
C60   C79   A    
C26   C112  A    
C89   C102  A    
C75   H2    S    
C37   O20   A    
C67   H12   S    
C57   C66   A    
C46   C99   A    
C69   C96   A    
C96   C114  A    
C15   H31   S    
C22   H55   S    
C71   C94   A    
C30   C116  A    
C95   C117  A    
O15   Zn3   S    
O23   Zn5   S    
C98   C105  A    
C10   H20   S    
O13   Zn5   S    
C12   H27   S    
C4    C114  A    
C6    H7    S    
O10   Zn6   S    
C18   H41   S    
C1    C46   A    
C23   C102  S    
C101  C109  A    
C66   C74   A    
C14   H28   S    
C10   C83   S    
C71   H56   S    
C68   H23   S    
C3    C91   A    
C12   H26   S    
C42   O8    A    
C17   H40   S    
C59   C88   A    
C31   C117  A    
C23   H58   S    
C41   O7    A    
C85   C98   A    
C70   C110  A    
C58   C77   A    
C113  C119  A    
C21   C104  S    
C9    H17   S    
C43   C53   S    
C14   C105  S    
O6    Zn2   S    
C31   C120  A    
C7    H10   S    
C24   C69   A    
O14   Zn4   S    
C57   C83   A    
C86   C119  A    
C19   H46   S    
C37   O11   A    
C7    H8    S    
C97   C115  A    
C52   C79   A    
C78   H4    S    
C11   H24   S    
C91   C104  A    
C23   H59   S    
C4    C29   A    
C75   C90   A    
C67   C99   A    
C9    C82   S    
C36   O19   A    
C60   C99   A    
C65   C93   A    
C20   H49   S    
C29   C115  A    
C43   O5    A    
C24   C64   A    
C87   C101  A    
C5    C115  A    
C32   O16   A    
C76   H3    S    
O17   Zn1   S    
C102  C111  A    
C19   H47   S    
C16   H35   S    
C22   H57   S    
C17   H39   S    
C61   C110  A    
C15   H32   S    
C22   H54   S    
C25   H61   S    
C16   C109  S    
C33   C53   A    
C20   H48   S    
C42   O2    A    
C94   C107  A    
C1    C72   A    
C7    H9    S    
C38   O21   A    
C63   C82   A    
C8    H14   S    
C8    C81   S    
C24   C48   A    
C15   C111  S    
C53   C80   A    
C26   C119  A    
C32   C64   S    
C70   H45   S    
C31   C51   A    
C4    C87   A    
C55   C78   A    
C94   C116  A    
C92   C112  A    
C29   C49   A    
C45   C52   S    
O24   Zn4   S    
C39   C58   S    
C39   O9    A    
O18   Zn3   S    
O3    Zn2   S    
C22   C103  S    
C116  C120  A    
C90   C120  A    
C12   H25   S    
C3    C30   A    
O4    Zn1   S    
C51   C77   A    
C41   C56   S    
C16   H36   S    
C58   C84   A    
C93   C106  A    
C5    C28   A    
C11   H21   S    
C18   H43   S    
C34   O12   A    
C45   O6    A    
C73   H65   S    
C13   C63   A    
C34   O17   A    
O2    Zn3   S    
O21   Zn6   S    
C39   O22   A    
C14   H30   S    
C8    H11   S    
C68   C97   A    
C93   C113  A    
C18   C107  S    
C56   C82   A    
C17   H38   S    
C75   C77   A    
C6    H6    S    
C23   H60   S    
O11   Zn6   S    
C28   C114  A    
C3    C117  A    
C13   C49   A    
C41   O24   A    
C9    H15   S    
C33   C73   A    
O1    Zn1   S    
O19   Zn4   S    
C51   C110  A    
C65   H1    S    
C2    C50   A    
C33   C47   A    
C17   C108  S    
C11   H22   S    
C10   H19   S    
C2    C71   A    
C78   C87   A    
C27   C113  A    
C64   C81   A    
C104  C108  A    
O12   Zn2   S    
C25   H62   S    
C65   C88   A    
C40   O10   A    
C27   C118  A    
C27   C47   A    
C28   C48   A    
C40   C57   S    
C32   O1    A    
C16   H37   S    
C72   H64   S    
O9    Zn5   S    
C6    H5    S    
O16   Zn2   S    
C61   C84   A    
C25   H63   S    
C59   C80   A    
O8    Zn4   S    
C72   C86   A    
C19   C100  S    
C50   C66   A    
O7    Zn3   S    
C11   C84   S    
C12   C106  S    
C21   H52   S    
C96   C109  A    
C76   C89   A    
C21   H53   S    
C69   H34   S    
C47   C88   A    
C70   C95   A    
C8    H13   S    
C73   C85   A    
C44   C48   A    
C21   H51   S    
C42   C54   S    
C112  C118  A    
C86   C100  A    
C18   H42   S    
C35   O14   A    
C25   C101  S    
C6    C79   S    
C45   O4    A    
C97   C111  A    
C40   O23   A    
C14   H29   S    
C34   C63   S    
C35   C62   S    
C19   H44   S    
C49   C55   A    
C30   C50   A    
C85   C118  A    
C35   O18   A    
C1    C52   A    
C90   C103  A    
C15   H33   S    
C37   C60   S    
C95   C108  A    
C26   C46   A    
C55   C56   A    
C100  C106  A    
C38   C59   S    
C9    H16   S    
C44   C54   A    
C92   C105  A    
C20   C98   S    
C43   O3    A    
O22   Zn6   S    
C36   O15   A    
C38   O13   A    
C103  C107  A    
C10   H18   S    
C44   C76   A    
C67   C92   A    
C2    C62   A    
C54   C81   A    
C5    C89   A    
C36   C61   S    
O5    Zn1   S    
C7    C80   S    
C74   H66   S    
C13   C68   A    
