data_mof_unit_63969.cif
_audit_creation_date              2012-12-10T16:56:23-0500
_audit_creation_method            fapswitch 2.2
_symmetry_space_group_name_H-M    P1
_symmetry_Int_Tables_number       1
_space_group_crystal_system       triclinic
_cell_length_a                    18.830105
_cell_length_b                    18.604155
_cell_length_c                    18.960649
_cell_angle_alpha                 109.121145
_cell_angle_beta                  110.480961
_cell_angle_gamma                 108.936268
_cell_volume                      5104.49668728

loop_
_atom_site_label
_atom_site_type_symbol
_atom_type_description
_atom_site_fract_x
_atom_site_fract_y
_atom_site_fract_z
_atom_type_partial_charge
C1    C     C_R   0.616627 0.619763 0.498248 0.955178
C2    C     C_2   0.817090 0.505473 0.827557 -0.332952
C3    C     C_2   0.755419 0.578408 0.761396 -0.155039
C4    C     C_R   0.379532 0.499518 0.379965 0.921172
C5    C     C_2   0.695242 0.505568 0.684961 -0.334570
C6    C     C_2   0.259667 0.252264 0.577579 -0.152871
C7    C     C_2   0.182303 0.192933 0.505375 -0.339752
C8    C     C_2   0.320990 0.324593 0.577514 -0.154301
C9    C     C_2   0.324355 0.311399 0.505357 -0.338772
C10   C     C_R   0.010220 0.619378 0.128412 0.957803
C11   C     C_R   0.126989 0.499962 0.127052 0.889785
C12   C     C_3   0.174794 0.451927 0.242698 -0.137038
C13   C     C_R   0.005162 0.380191 0.886816 0.934678
C14   C     C_R   0.886011 0.501879 0.888322 0.942165
C15   C     C_R   0.000581 0.120912 0.617819 0.929771
C16   C     C_R   0.383237 0.380234 0.501626 0.930501
C17   C     C_R   0.881206 0.878689 0.498040 0.950362
C18   C     C_R   0.000503 0.880186 0.382163 0.868617
C19   C     C_R   0.118770 0.121094 0.501740 0.917588
C20   C     C_2   0.997210 0.741685 0.321961 0.426327
C21   C     C_2   0.995415 0.810606 0.313646 0.256911
C22   C     C_2   0.984238 0.668759 0.247565 -0.234913
C23   C     C_3   0.253071 0.534871 0.328068 -0.234047
C24   C     C_2   0.025886 0.686612 0.206010 -0.320954
C25   C     C_2   0.987584 0.251042 0.675224 -0.156862
C26   C     C_2   0.008044 0.191669 0.686220 -0.334230
C27   C     C_2   0.001828 0.323625 0.749990 -0.153571
C28   C     C_R   0.622823 0.501954 0.620554 0.931354
C29   C     C_2   0.993531 0.311494 0.813111 -0.337523
C30   C     C_3   0.329018 0.545863 0.263908 0.609507
C31   C     C_3   0.270309 0.583134 0.278103 -0.258272
C32   C     C_3   0.193285 0.499798 0.193569 -0.041506
C33   C     C_3   0.252426 0.463491 0.178521 -0.248011
C34   C     C_3   0.312474 0.499019 0.313556 -0.047065
C35   C     C_3   0.235340 0.416134 0.229371 -0.230146
C36   C     C_3   0.037119 0.684993 0.412408 -0.298351
C37   C     C_3   0.410828 0.630387 0.226394 -0.316980
C38   C     C_3   0.027374 0.885034 0.242870 -0.343141
C39   C     C_2   0.739634 0.748120 0.422157 -0.153037
C40   C     C_2   0.817568 0.806533 0.494027 -0.328129
C41   C     C_2   0.678052 0.675801 0.422050 -0.122039
C42   C     C_2   0.675522 0.688619 0.494541 -0.329514
C43   C     C_2   0.828814 0.578413 0.823217 -0.149679
H1    H     H_    0.282648 0.650830 0.295617 0.139654
H2    H     H_    0.287545 0.246189 0.448947 0.153044
H3    H     H_    0.939840 0.601744 0.226783 0.171074
H4    H     H_    0.075052 0.753276 0.231196 0.165740
H5    H     H_    0.965192 0.249138 0.613151 0.165615
H6    H     H_    0.039908 0.199622 0.750534 0.157024
H7    H     H_    0.016254 0.385886 0.751765 0.163960
H8    H     H_    0.968520 0.246684 0.806386 0.154587
H9    H     H_    0.250340 0.434995 0.115938 0.135335
H10   H     H_    0.222930 0.348451 0.212065 0.155584
H11   H     H_    0.109409 0.413290 0.232204 0.151962
H12   H     H_    0.713109 0.753616 0.551377 0.150830
H13   H     H_    0.254677 0.563145 0.390422 0.162138
H14   H     H_    0.722489 0.751285 0.362686 0.168757
H15   H     H_    0.838363 0.797553 0.550168 0.154481
H16   H     H_    0.633091 0.613407 0.362103 0.177224
H17   H     H_    0.098968 0.702927 0.411148 0.155771
H18   H     H_    0.989091 0.614264 0.366313 0.162615
H19   H     H_    0.052974 0.696466 0.478592 0.193333
H20   H     H_    0.385731 0.676888 0.238806 0.163613
H21   H     H_    0.370856 0.578577 0.156824 0.162179
H22   H     H_    0.478111 0.667880 0.240481 0.193808
H23   H     H_    0.890977 0.638936 0.867415 0.165052
H24   H     H_    0.097174 0.908711 0.287828 0.128121
H25   H     H_    0.010463 0.936834 0.264831 0.193555
H26   H     H_    0.019682 0.872324 0.178527 0.198963
H27   H     H_    0.752466 0.448112 0.790574 0.157225
H28   H     H_    0.752960 0.638866 0.776996 0.165034
H29   H     H_    0.703315 0.448315 0.665324 0.157143
H30   H     H_    0.276384 0.249915 0.637432 0.166634
H31   H     H_    0.161685 0.201058 0.448680 0.154051
H32   H     H_    0.365102 0.387370 0.637146 0.166978
O1    O     O_R   0.591160 0.539400 0.449620 -0.614578
O2    O     O_R   0.050520 0.090460 0.641000 -0.630544
O3    O     O_R   0.857760 0.909540 0.448230 -0.619516
O4    O     O_R   0.589730 0.641530 0.550350 -0.625862
O5    O     O_R   0.961340 0.909540 0.551790 -0.612698
O6    O     O_R   0.949480 0.909540 0.359000 -0.611914
O7    O     O_R   0.053060 0.909550 0.462560 -0.599538
O8    O     O_R   0.038660 0.090460 0.448210 -0.633044
O9    O     O_R   0.142240 0.090460 0.551770 -0.619502
O10   O     O_R   0.408980 0.448930 0.357910 -0.622673
O11   O     O_R   0.407550 0.551060 0.458650 -0.630146
O12   O     O_R   0.056790 0.641480 0.096140 -0.632583
O13   O     O_R   0.410270 0.358470 0.449650 -0.629214
O14   O     O_R   0.408840 0.460600 0.550380 -0.618820
O15   O     O_R   0.592450 0.448940 0.541350 -0.624559
O16   O     O_R   0.591020 0.551070 0.642090 -0.620266
O17   O     O_R   0.954670 0.539370 0.096190 -0.621326
O18   O     O_3   0.001000 0.737147 0.395214 -0.614874
O19   O     O_3   0.414158 0.593889 0.281046 -0.622047
O20   O     O_3   0.970132 0.806426 0.233245 -0.605390
O21   O     O_R   0.047640 0.448900 0.098680 -0.631485
O22   O     O_R   0.149770 0.551010 0.098640 -0.637489
O23   O     O_R   0.957150 0.358410 0.917750 -0.623325
O24   O     O_R   0.059270 0.460520 0.917700 -0.617683
O25   O     O_R   0.864170 0.448890 0.915250 -0.620641
O26   O     O_R   0.966300 0.551000 0.915200 -0.619609
O27   O     O_R   0.946940 0.090450 0.537440 -0.616286
Zn1   Zn    Zn3+2 0.500950 0.431810 0.432740 0.959294
Zn2   Zn    Zn3+2 0.499050 0.568190 0.567260 0.953031
Zn3   Zn    Zn3+2 0.938780 0.431770 0.006970 0.949070
Zn4   Zn    Zn3+2 0.075160 0.568130 0.006910 0.937478
Zn5   Zn    Zn3+2 0.930840 1.000000 0.430850 0.956450
Zn6   Zn    Zn3+2 0.069160 0.000000 0.569150 0.970750

loop_
_geom_bond_atom_site_label_1
_geom_bond_atom_site_label_2
_ccdc_geom_bond_type
C11   O21   A    
O21   Zn3   S    
O6    Zn5   S    
C9    H2    S    
C35   H10   S    
C18   C21   S    
C41   C42   D    
O16   Zn2   S    
C20   O18   S    
O11   Zn2   S    
O13   Zn1   S    
C23   H13   S    
C39   C41   S    
C33   H9    S    
C12   C23   S    
C3    C43   S    
O25   Zn3   S    
O23   Zn3   S    
C13   C29   S    
C9    C16   S    
C5    H29   S    
C30   C31   S    
C36   H19   S    
C27   C29   D    
C39   H14   S    
C18   O6    A    
C34   C35   S    
C13   O23   A    
C18   O7    A    
C36   O18   S    
C8    C9    D    
C37   H22   S    
C38   O20   S    
O7    Zn6   S    
O10   Zn1   S    
C27   H7    S    
C14   O26   A    
O1    Zn1   S    
C38   H26   S    
C10   O17   A    
C16   O14   A    
C12   C32   S    
C1    O1    A    
C19   O8    A    
C37   H20   S    
C7    H31   S    
C4    C34   S    
C10   O12   A    
C40   H15   S    
C31   H1    S    
C30   C34   S    
C41   H16   S    
C26   H6    S    
C39   C40   D    
C15   C26   S    
C6    C8    S    
C4    O10   A    
C21   O20   S    
C10   C24   S    
C25   C26   D    
C8    H32   S    
O3    Zn5   S    
C17   C40   S    
C23   C31   S    
C13   O24   A    
C3    H28   S    
C42   H12   S    
C5    C28   S    
O17   Zn3   S    
C31   C32   S    
C2    C43   D    
C23   C34   S    
O27   Zn5   S    
C38   H24   S    
C12   C35   S    
C25   H5    S    
O22   Zn4   S    
C22   H3    S    
C38   H25   S    
C11   C32   S    
C7    C19   S    
O14   Zn2   S    
C1    O4    A    
C22   C24   D    
O4    Zn2   S    
C36   H18   S    
C37   H21   S    
C6    H30   S    
C29   H8    S    
O26   Zn4   S    
O24   Zn4   S    
C30   C33   S    
C24   H4    S    
O2    Zn6   S    
C20   C22   S    
C3    C5    D    
C14   O25   A    
C6    C7    D    
C25   C27   S    
O5    Zn6   S    
C11   O22   A    
C32   C33   S    
C30   O19   S    
C15   O2    A    
O12   Zn4   S    
C43   H23   S    
C17   O3    A    
C33   C35   S    
O8    Zn5   S    
C37   O19   S    
C28   O16   A    
C17   O5    A    
C15   O27   A    
C2    C14   S    
O15   Zn1   S    
C1    C42   S    
O9    Zn6   S    
C4    O11   A    
C20   C21   D    
C16   O13   A    
C36   H17   S    
C28   O15   A    
C2    H27   S    
C12   H11   S    
C19   O9    A    
