data_mof_unit_39839.cif
_audit_creation_date              2012-12-10T17:24:24-0500
_audit_creation_method            fapswitch 2.2
_symmetry_space_group_name_H-M    P1
_symmetry_Int_Tables_number       1
_space_group_crystal_system       triclinic
_cell_length_a                    31.607666
_cell_length_b                    18.229357
_cell_length_c                    25.728224
_cell_angle_alpha                 89.60472
_cell_angle_beta                  144.453801
_cell_angle_gamma                 90.270116
_cell_volume                      8618.01582445

loop_
_atom_site_label
_atom_site_type_symbol
_atom_type_description
_atom_site_fract_x
_atom_site_fract_y
_atom_site_fract_z
_atom_type_partial_charge
C1    C     C_R   0.863235 0.856217 0.110698 0.568399
C2    C     C_R   0.125135 0.323941 0.272264 -0.114328
C3    C     C_R   0.818293 0.263528 0.044142 -0.055623
C4    C     C_R   0.314041 0.236261 0.093785 -0.038411
C5    C     C_R   0.692520 0.757874 0.906276 -0.039374
C6    C     C_R   0.681332 0.235722 0.954119 -0.059720
C7    C     C_R   0.318368 0.763957 0.045061 -0.059366
C8    C     C_R   0.189040 0.206102 0.946117 0.030337
C9    C     C_R   0.812596 0.792901 0.056628 0.025432
C10   C     C_R   0.803787 0.195641 0.054867 0.037043
C11   C     C_R   0.196222 0.804379 0.945166 0.037982
C12   C     C_R   0.686275 0.707811 0.942534 -0.024139
C13   C     C_R   0.092895 0.644594 0.288813 -0.102594
C14   C     C_R   0.314306 0.291972 0.055361 -0.026432
C15   C     C_R   0.303696 0.695751 0.055169 0.031293
C16   C     C_R   0.696292 0.304247 0.944830 0.030606
C17   C     C_R   0.997780 0.132969 0.054614 -0.100175
C18   C     C_R   0.998023 0.866842 0.941400 -0.099922
C19   C     C_R   0.498368 0.366856 0.056403 -0.081417
C20   C     C_R   0.501102 0.633017 0.943059 -0.068432
C21   C     C_R   0.998335 0.200732 0.030488 -0.153102
C22   C     C_R   0.999413 0.799104 0.967519 -0.149591
C23   C     C_R   0.499668 0.299130 0.033637 -0.149574
C24   C     C_R   0.827213 0.274290 0.710271 -0.102202
C25   C     C_R   0.499562 0.700757 0.965566 -0.132268
C26   C     C_R   0.001717 0.204692 0.980267 -0.071895
C27   C     C_R   0.003716 0.795188 0.025402 -0.057779
C28   C     C_R   0.503992 0.295239 0.984427 -0.061602
C29   C     C_R   0.495608 0.704639 0.015161 -0.059566
C30   C     C_R   0.003758 0.141033 0.952451 0.236180
C31   C     C_R   0.005792 0.858869 0.057310 0.245945
C32   C     C_R   0.506062 0.358966 0.956107 0.249729
C33   C     C_R   0.493884 0.640904 0.043831 0.249339
C34   C     C_R   0.001435 0.069879 0.974820 0.018975
C35   C     C_R   0.375458 0.175059 0.726894 -0.108804
C36   C     C_R   0.002265 0.929978 0.029027 0.018003
C37   C     C_R   0.502349 0.430035 0.976386 0.026992
C38   C     C_R   0.497628 0.569837 0.023587 0.026950
C39   C     C_R   0.999713 0.066654 0.027839 -0.027072
C40   C     C_R   0.999972 0.933182 0.971994 -0.027052
C41   C     C_R   0.499922 0.433198 0.028645 -0.018950
C42   C     C_R   0.499932 0.566674 0.971208 -0.021203
C43   C     C_R   0.000331 0.002198 0.946698 0.027476
C44   C     C_R   0.000587 0.997643 0.054321 0.027496
C45   C     C_R   0.501043 0.497693 0.947389 0.034884
C46   C     C_R   0.626106 0.823265 0.273104 -0.107695
C47   C     C_R   0.498955 0.502182 0.052608 0.036614
C48   C     C_R   0.000036 0.998041 0.109138 0.562588
C49   C     C_R   0.000049 0.001768 0.890987 0.560458
C50   C     C_R   0.499835 0.501747 0.108894 0.563751
C51   C     C_R   0.500168 0.498142 0.891105 0.565469
C52   C     C_R   0.999871 0.999740 0.391450 0.564459
C53   C     C_R   0.000029 0.000265 0.608453 0.560984
C54   C     C_R   0.499973 0.499736 0.391549 0.562814
C55   C     C_R   0.500131 0.500260 0.608552 0.565897
C56   C     C_3   0.998789 0.931227 0.482738 0.219251
C57   C     C_R   0.669608 0.223505 0.287076 -0.115028
C58   C     C_3   0.000934 0.068801 0.516999 0.216670
C59   C     C_3   0.940532 0.967368 0.458204 0.198923
C60   C     C_3   0.059196 0.032666 0.541541 0.202097
C61   C     C_3   0.499071 0.431201 0.483007 0.216935
C62   C     C_3   0.501219 0.568775 0.517271 0.219746
C63   C     C_3   0.440810 0.467336 0.458466 0.202540
C64   C     C_3   0.559475 0.532633 0.541803 0.198728
C65   C     C_3   0.060303 0.963665 0.578031 -0.169112
C66   C     C_3   0.939426 0.036363 0.421705 -0.173765
C67   C     C_3   0.560580 0.463638 0.578302 -0.174484
C68   C     C_R   0.406771 0.854843 0.711892 -0.118090
C69   C     C_3   0.439704 0.536338 0.421977 -0.168837
C70   C     C_3   0.000633 0.000620 0.552131 0.054085
C71   C     C_3   0.999110 0.999405 0.447621 0.055241
C72   C     C_3   0.500896 0.500596 0.552385 0.055159
C73   C     C_3   0.499373 0.499381 0.447876 0.053848
C74   C     C_R   0.261863 0.128330 0.580429 -0.076814
C75   C     C_R   0.739436 0.870293 0.419569 -0.073268
C76   C     C_R   0.768207 0.160774 0.428949 -0.085599
C77   C     C_R   0.283227 0.892077 0.570822 -0.081898
C78   C     C_R   0.761039 0.629595 0.581206 -0.074611
C79   C     C_R   0.868850 0.737090 0.688982 -0.086206
C80   C     C_R   0.237658 0.371777 0.418795 -0.079102
C81   C     C_R   0.216838 0.607866 0.429259 -0.080463
C82   C     C_R   0.731135 0.339398 0.569940 -0.082841
C83   C     C_R   0.321244 0.121977 0.673227 -0.114493
C84   C     C_R   0.680458 0.876211 0.326766 -0.106681
C85   C     C_R   0.723688 0.170194 0.341078 -0.109160
C86   C     C_R   0.352882 0.908356 0.658342 -0.109207
C87   C     C_R   0.819617 0.624064 0.673990 -0.098086
C88   C     C_R   0.178687 0.377723 0.326001 -0.107277
C89   C     C_R   0.147042 0.591377 0.341992 -0.114757
C90   C     C_R   0.130115 0.264012 0.311000 -0.084984
C91   C     C_R   0.774696 0.329114 0.657240 -0.115445
C92   C     C_R   0.108320 0.714580 0.322598 -0.066591
C93   C     C_R   0.136782 0.143887 0.889873 0.570523
C94   C     C_R   0.836723 0.230043 0.676379 -0.072745
C95   C     C_R   0.370483 0.234779 0.687992 -0.078122
C96   C     C_R   0.630579 0.764108 0.312029 -0.079170
C97   C     C_R   0.659703 0.267603 0.320629 -0.088806
C98   C     C_R   0.391305 0.784820 0.678141 -0.093442
C99   C     C_R   0.809795 0.743980 0.594848 0.016758
C100  C     C_R   0.189627 0.256634 0.405146 0.017355
C101  C     C_R   0.178778 0.732630 0.411351 0.011003
C102  C     C_R   0.793347 0.239390 0.587998 0.003441
C103  C     C_R   0.310312 0.242979 0.593980 0.008139
C104  C     C_R   0.139880 0.860331 0.889632 0.567421
C105  C     C_R   0.690281 0.756406 0.406039 0.007325
C106  C     C_R   0.704850 0.259679 0.410156 0.014001
C107  C     C_R   0.321101 0.767130 0.588957 0.016038
C108  C     C_R   0.255435 0.188834 0.539432 0.015931
C109  C     C_R   0.745227 0.810471 0.460576 0.014332
C110  C     C_R   0.759862 0.205563 0.465056 0.009546
C111  C     C_R   0.266303 0.821448 0.534591 0.012782
C112  C     C_R   0.755133 0.689534 0.540237 0.011900
C113  C     C_R   0.244211 0.311160 0.459769 0.013333
C114  C     C_R   0.233695 0.678458 0.465529 0.015326
C115  C     C_R   0.860135 0.139689 0.110371 0.567198
C116  C     C_R   0.739167 0.294209 0.533644 0.012052
C117  C     C_R   0.804419 0.803876 0.554501 0.020670
C118  C     C_R   0.195615 0.196094 0.445497 0.021046
C119  C     C_R   0.195667 0.803747 0.446215 0.012319
C120  C     C_R   0.803921 0.196097 0.553711 0.006176
C121  C     C_R   0.304064 0.303943 0.553767 0.013309
C122  C     C_R   0.695911 0.696087 0.446253 0.013067
C123  C     C_R   0.695199 0.303593 0.445114 0.014749
C124  C     C_R   0.304320 0.696176 0.553875 0.017999
C125  C     C_R   0.865218 0.723730 0.184383 -0.123597
C126  C     C_R   0.363887 0.355909 0.110490 0.499431
C127  C     C_R   0.126871 0.284170 0.817836 -0.117168
C128  C     C_R   0.114338 0.724282 0.913798 -0.145694
C129  C     C_R   0.886385 0.276559 0.088200 -0.147261
C130  C     C_R   0.378056 0.213708 0.183671 -0.120537
C131  C     C_R   0.633376 0.776259 0.814426 -0.123077
C132  C     C_R   0.612239 0.221296 0.907052 -0.121060
C133  C     C_R   0.387204 0.778084 0.091382 -0.120592
C134  C     C_R   0.854702 0.683221 0.219293 -0.157882
C135  C     C_R   0.131179 0.330116 0.778831 -0.155954
C136  C     C_R   0.099664 0.658964 0.924729 -0.139128
C137  C     C_R   0.636778 0.643700 0.889172 0.502075
C138  C     C_R   0.901423 0.342304 0.078304 -0.142121
C139  C     C_R   0.374901 0.167962 0.223853 -0.132289
C140  C     C_R   0.643935 0.815249 0.778994 -0.135017
C141  C     C_R   0.597221 0.155498 0.916906 -0.127855
C142  C     C_R   0.401875 0.843451 0.080508 -0.126182
C143  C     C_R   0.307528 0.145622 0.176437 0.255022
C144  C     C_R   0.714091 0.835787 0.833686 0.255659
C145  C     C_R   0.650768 0.101532 0.975429 0.258691
C146  C     C_R   0.348263 0.897353 0.021873 0.260031
C147  C     C_R   0.784480 0.662569 0.164289 0.322925
C148  C     C_R   0.639912 0.360285 0.889614 0.588839
C149  C     C_R   0.199107 0.352200 0.827602 0.324025
C150  C     C_R   0.152175 0.603674 0.980233 0.266561
C151  C     C_R   0.848880 0.397543 0.022687 0.264012
C152  C     C_R   0.243312 0.163958 0.084698 0.331561
C153  C     C_R   0.772986 0.823069 0.926822 0.326986
C154  C     C_R   0.720797 0.113947 0.024147 0.312571
C155  C     C_R   0.278574 0.885361 0.974182 0.312987
C156  C     C_R   0.725770 0.677301 0.072484 0.339952
C157  C     C_R   0.262215 0.333155 0.918152 0.341909
C158  C     C_R   0.221072 0.614550 0.025589 0.310940
C159  C     C_R   0.360067 0.639695 0.110385 0.589015
C160  C     C_R   0.779553 0.386161 0.976117 0.310201
C161  C     C_R   0.248176 0.201111 0.040762 0.014281
C162  C     C_R   0.759834 0.792111 0.963810 0.011870
C163  C     C_R   0.735850 0.181032 0.011444 0.008528
C164  C     C_R   0.263835 0.818629 0.987709 0.009206
C165  C     C_R   0.738401 0.709321 0.034995 -0.050707
C166  C     C_R   0.256569 0.295538 0.961309 -0.050846
C167  C     C_R   0.236063 0.681535 0.012692 0.006956
C168  C     C_R   0.764255 0.318833 0.988207 0.006318
C169  C     C_R   0.139584 0.139948 0.389458 0.472676
C170  C     C_R   0.873328 0.677691 0.727717 -0.113349
C171  C     C_R   0.860415 0.860054 0.610526 0.474609
C172  C     C_R   0.860220 0.140001 0.610136 0.488790
C173  C     C_R   0.139695 0.860003 0.389834 0.501402
C174  C     C_R   0.639831 0.639796 0.389950 0.486553
C175  C     C_R   0.360177 0.360198 0.610078 0.485991
C176  C     C_R   0.360298 0.639966 0.610160 0.475755
C177  C     C_R   0.639420 0.359840 0.389273 0.470758
C178  C     C_R   0.806001 0.743058 0.092700 -0.042680
C179  C     C_R   0.190272 0.260979 0.907771 -0.040763
C180  C     C_R   0.182059 0.736879 0.956842 -0.054929
Cl1   Cl    Cl    0.011529 0.158476 0.892891 -0.625617
Cl2   Cl    Cl    0.015831 0.841504 0.134653 -0.613374
Cl3   Cl    Cl    0.516395 0.341886 0.899449 -0.693512
Cl4   Cl    Cl    0.483779 0.657963 0.100719 -0.692624
H1    H     H_    0.109343 0.934322 0.641504 0.138888
H2    H     H_    0.995525 0.866227 0.896887 0.103663
H3    H     H_    0.495780 0.366247 0.095832 0.107092
H4    H     H_    0.503429 0.633618 0.903365 0.119005
H5    H     H_    0.996796 0.250537 0.051621 0.109083
H6    H     H_    0.998069 0.749270 0.943544 0.108856
H7    H     H_    0.498082 0.249293 0.055158 0.111115
H8    H     H_    0.500668 0.750594 0.943541 0.118243
H9    H     H_    0.079579 0.328631 0.200247 0.099070
H10   H     H_    0.918655 0.673251 0.799722 0.098907
H11   H     H_    0.861031 0.266233 0.778102 0.134489
H12   H     H_    0.890379 0.065711 0.358240 0.134566
H13   H     H_    0.038772 0.631760 0.220892 0.138790
H14   H     H_    0.580283 0.828025 0.201045 0.124426
H15   H     H_    0.421531 0.169995 0.798947 0.123621
H16   H     H_    0.460706 0.867471 0.780088 0.116586
H17   H     H_    0.634862 0.230403 0.218699 0.117837
H18   H     H_    0.221166 0.085516 0.541391 0.118910
H19   H     H_    0.780269 0.912965 0.458609 0.122902
H20   H     H_    0.808566 0.117615 0.467600 0.128303
H21   H     H_    0.242931 0.935287 0.532498 0.114967
H22   H     H_    0.720548 0.586566 0.542129 0.120266
H23   H     H_    0.609626 0.434289 0.641765 0.132658
H24   H     H_    0.278003 0.414952 0.457871 0.116395
H25   H     H_    0.257277 0.564824 0.467396 0.120103
H26   H     H_    0.691671 0.383417 0.531841 0.131892
H27   H     H_    0.325238 0.075607 0.703582 0.118985
H28   H     H_    0.676852 0.922178 0.296411 0.122192
H29   H     H_    0.730882 0.135598 0.314616 0.127651
H30   H     H_    0.364949 0.962590 0.684898 0.112115
H31   H     H_    0.823304 0.577966 0.704302 0.124030
H32   H     H_    0.174610 0.424219 0.295682 0.120795
H33   H     H_    0.135021 0.537168 0.315414 0.113865
H34   H     H_    0.390665 0.565682 0.358505 0.138195
H35   H     H_    0.767731 0.363931 0.683836 0.126608
H36   H     H_    0.912012 0.777378 0.733501 0.096435
H37   H     H_    0.087053 0.223623 0.266474 0.096514
H38   H     H_    0.064459 0.754157 0.278144 0.169686
H39   H     H_    0.878378 0.188606 0.720145 0.188016
H40   H     H_    0.414160 0.274302 0.732105 0.165639
H41   H     H_    0.586822 0.724688 0.267942 0.166393
H42   H     H_    0.615975 0.307346 0.275328 0.112521
H43   H     H_    0.434859 0.744870 0.723012 0.108839
H44   H     H_    0.920836 0.735850 0.229596 0.173961
H45   H     H_    0.006046 0.741710 0.046298 0.155008
H46   H     H_    0.073067 0.269958 0.777674 0.176551
H47   H     H_    0.071322 0.764869 0.870783 0.113997
H48   H     H_    0.929443 0.236021 0.131280 0.114442
H49   H     H_    0.431417 0.228988 0.222993 0.161928
H50   H     H_    0.577773 0.764137 0.769301 0.170164
H51   H     H_    0.568219 0.260574 0.861158 0.169905
H52   H     H_    0.431275 0.738882 0.137453 0.170291
H53   H     H_    0.901271 0.669773 0.289909 0.125222
H54   H     H_    0.081523 0.346458 0.709588 0.123207
H55   H     H_    0.046892 0.651770 0.890023 0.096868
H56   H     H_    0.003139 0.258189 0.963114 0.150980
H57   H     H_    0.954497 0.349874 0.113871 0.094914
H58   H     H_    0.425094 0.152197 0.293164 0.124301
H59   H     H_    0.597338 0.827636 0.708095 0.128681
H60   H     H_    0.543378 0.146933 0.879063 0.108745
H61   H     H_    0.455503 0.851723 0.117670 0.111064
H62   H     H_    0.180223 0.128485 0.077867 0.385291
H63   H     H_    0.845240 0.854732 0.947506 0.383154
H64   H     H_    0.757325 0.019440 0.087767 0.365203
H65   H     H_    0.241948 0.979860 0.910531 0.365520
H66   H     H_    0.621756 0.695928 0.968875 0.284791
H67   H     H_    0.493179 0.758089 0.030827 0.140583
H68   H     H_    0.365446 0.314099 0.012449 0.289744
H69   H     H_    0.256682 0.518599 0.086273 0.370244
H70   H     H_    0.744006 0.482109 0.915437 0.368796
H71   H     H_    0.996713 0.827892 0.494640 0.343291
H72   H     H_    0.002748 0.172144 0.504850 0.343885
H73   H     H_    0.850457 0.917054 0.357150 0.341581
H74   H     H_    0.149224 0.083054 0.642571 0.342975
H75   H     H_    0.497268 0.327858 0.495168 0.342487
H76   H     H_    0.503314 0.672111 0.505388 0.342004
H77   H     H_    0.350777 0.416958 0.357432 0.344284
H78   H     H_    0.506330 0.241783 0.968676 0.140332
H79   H     H_    0.649546 0.582956 0.642852 0.342157
H80   H     H_    0.679311 0.873579 0.732399 0.333542
H81   H     H_    0.352810 0.097944 0.281506 0.333989
H82   H     H_    0.413552 0.961523 0.048006 0.321813
H83   H     H_    0.584836 0.036583 0.947441 0.318953
H84   H     H_    0.156438 0.400598 0.724657 0.319295
H85   H     H_    0.818194 0.622115 0.263833 0.319327
H86   H     H_    0.914427 0.461851 0.049399 0.321100
H87   H     H_    0.087344 0.540184 0.955504 0.325409
H88   H     H_    0.995918 0.133550 0.094788 0.102965
O1    O     O_3   0.999990 1.000000 0.249990 -0.464004
O2    O     O_R   0.585440 0.646160 0.804690 -0.562585
O3    O     O_R   0.585440 0.353840 0.804690 -0.537245
O4    O     O_R   0.414560 0.646160 0.195310 -0.536158
O5    O     O_R   0.085440 0.146150 0.366190 -0.539282
O6    O     O_R   0.914560 0.853850 0.633810 -0.539683
O7    O     O_R   0.914560 0.146150 0.633810 -0.537829
O8    O     O_R   0.085440 0.853850 0.366190 -0.547530
O9    O     O_R   0.585440 0.646150 0.366190 -0.538096
O10   O     O_R   0.414560 0.353850 0.633810 -0.536907
O11   O     O_R   0.414560 0.646150 0.633810 -0.547847
O12   O     O_3   0.000010 1.000000 0.750010 -0.463208
O13   O     O_R   0.585440 0.353850 0.366190 -0.554611
O14   O     O_R   0.853820 0.085430 0.073070 -0.517680
O15   O     O_R   0.146180 0.914570 0.926930 -0.516858
O16   O     O_R   0.146180 0.085430 0.926930 -0.465450
O17   O     O_R   0.853820 0.914570 0.073070 -0.471691
O18   O     O_R   0.353820 0.585430 0.073070 -0.471817
O19   O     O_R   0.646180 0.414570 0.926930 -0.474064
O20   O     O_R   0.646180 0.585430 0.926930 -0.488344
O21   O     O_R   0.353820 0.414570 0.073070 -0.491421
O22   O     O_R   0.146150 0.914540 0.365390 -0.513137
O23   O     O_3   0.499990 0.500000 0.249990 -0.465614
O24   O     O_R   0.853850 0.085460 0.634610 -0.535596
O25   O     O_R   0.853850 0.914540 0.634610 -0.546250
O26   O     O_R   0.146150 0.085460 0.365390 -0.550475
O27   O     O_R   0.646150 0.414540 0.365390 -0.545592
O28   O     O_R   0.353850 0.585460 0.634610 -0.548006
O29   O     O_R   0.353850 0.414540 0.634610 -0.525538
O30   O     O_R   0.646150 0.585460 0.365390 -0.521767
O31   O     O_R   0.939240 1.000000 0.071950 -0.516893
O32   O     O_R   0.060760 1.000000 0.928050 -0.502217
O33   O     O_R   0.439240 0.500000 0.071950 -0.478100
O34   O     O_3   0.500010 0.500000 0.750010 -0.465287
O35   O     O_R   0.560760 0.500000 0.928050 -0.478637
O36   O     O_R   0.000020 0.939290 0.367320 -0.499328
O37   O     O_R   0.999980 0.060710 0.632680 -0.502882
O38   O     O_R   0.999980 0.939290 0.632680 -0.521571
O39   O     O_R   0.000020 0.060710 0.367320 -0.521814
O40   O     O_R   0.500020 0.439290 0.367320 -0.496959
O41   O     O_R   0.499980 0.560710 0.632680 -0.494089
O42   O     O_R   0.499980 0.439290 0.632680 -0.525104
O43   O     O_R   0.500020 0.560710 0.367320 -0.524715
O44   O     O_R   0.060680 1.000000 0.193390 -0.506657
O45   O     O_R   0.914560 0.853840 0.195310 -0.561157
O46   O     O_R   0.939320 1.000000 0.806610 -0.526979
O47   O     O_R   0.560680 0.500000 0.193390 -0.526603
O48   O     O_R   0.439320 0.500000 0.806610 -0.523005
O49   O     O_3   0.175467 0.152619 0.038700 -0.617708
O50   O     O_3   0.844099 0.834725 0.982215 -0.639888
O51   O     O_3   0.775250 0.062203 0.085598 -0.697178
O52   O     O_3   0.224141 0.937184 0.912963 -0.697384
O53   O     O_3   0.656804 0.664177 0.022843 -0.634023
O54   O     O_3   0.328134 0.347403 0.960195 -0.621888
O55   O     O_3   0.274513 0.561294 0.083898 -0.698162
O56   O     O_R   0.085440 0.146160 0.804690 -0.554140
O57   O     O_3   0.725995 0.439239 0.917363 -0.699634
O58   O     O_3   0.995839 0.858995 0.462023 -0.657672
O59   O     O_3   0.003856 0.141030 0.537693 -0.657308
O60   O     O_3   0.879101 0.931743 0.416638 -0.682410
O61   O     O_3   0.120624 0.068310 0.583120 -0.676305
O62   O     O_3   0.496150 0.358971 0.462315 -0.655912
O63   O     O_3   0.504171 0.641007 0.537989 -0.656254
O64   O     O_3   0.379382 0.431694 0.416887 -0.676627
O65   O     O_3   0.620906 0.568257 0.583369 -0.683651
O66   O     O_3   0.726156 0.869201 0.798157 -0.702745
O67   O     O_R   0.085440 0.853840 0.804690 -0.530253
O68   O     O_3   0.303121 0.105606 0.217730 -0.699469
O69   O     O_3   0.362634 0.962113 0.009910 -0.718424
O70   O     O_3   0.636004 0.036305 0.986293 -0.721978
O71   O     O_3   0.205649 0.391983 0.788535 -0.621483
O72   O     O_3   0.771420 0.628157 0.198276 -0.624831
O73   O     O_3   0.863831 0.462913 0.012250 -0.715792
O74   O     O_3   0.137613 0.538745 0.991739 -0.708684
O75   O     O_R   0.914560 0.146160 0.195310 -0.531129
O76   O     O_R   0.414560 0.353840 0.195310 -0.551576
Zn1   Zn    Zn3+2 0.000000 0.086750 0.293940 0.965119
Zn2   Zn    Zn3+2 0.086780 1.000000 0.880710 1.025505
Zn3   Zn    Zn3+2 0.413220 0.500000 0.119290 1.045869
Zn4   Zn    Zn3+2 0.586780 0.500000 0.880710 1.044659
Zn5   Zn    Zn3+2 0.086730 1.000000 0.292800 0.974099
Zn6   Zn    Zn3+2 0.913270 1.000000 0.707200 0.955442
Zn7   Zn    Zn3+2 0.586730 0.500000 0.292800 0.959488
Zn8   Zn    Zn3+2 0.413270 0.500000 0.707200 0.961387
Zn9   Zn    Zn3+2 0.000000 0.913250 0.706060 0.965269
Zn10  Zn    Zn3+2 0.000000 0.086750 0.706060 0.991618
Zn11  Zn    Zn3+2 0.000000 0.913250 0.293940 0.988525
Zn12  Zn    Zn3+2 0.500000 0.586750 0.293940 0.986237
Zn13  Zn    Zn3+2 0.500000 0.413250 0.706060 0.986482
Zn14  Zn    Zn3+2 0.500000 0.586750 0.706060 0.956591
Zn15  Zn    Zn3+2 0.500000 0.413250 0.293940 0.954390
Zn16  Zn    Zn3+2 0.913220 1.000000 0.119290 1.017099

loop_
_geom_bond_atom_site_label_1
_geom_bond_atom_site_label_2
_ccdc_geom_bond_type
C81   H25   S    
C21   C26   A    
C142  C146  A    
O16   Zn2   S    
C74   C83   A    
O23   Zn15  S    
H80   O66   S    
C79   C99   A    
O45   Zn11  S    
C176  O11   A    
C7    C133  A    
C59   C66   S    
C46   H14   S    
O7    Zn10  S    
C58   C60   S    
C29   C33   A    
C17   C39   A    
C61   C63   S    
C139  H58   S    
C18   C40   A    
C62   C64   S    
C131  C140  A    
C32   Cl3   S    
O46   Zn6   S    
O12   Zn9   S    
C27   H45   S    
C40   C43   A    
C1    O45   A    
C174  O30   A    
C128  C180  A    
C53   O37   A    
C22   H6    S    
O67   Zn9   S    
C141  C145  A    
C7    C15   A    
C167  C180  A    
H70   O57   S    
C107  C124  A    
O22   Zn5   S    
C158  C167  A    
C25   C29   A    
H71   O58   S    
C64   O65   S    
C27   C31   A    
C69   H34   S    
C28   C32   A    
O18   Zn3   S    
H76   O63   S    
C6    C132  A    
O44   Zn5   S    
O1    Zn16  S    
C30   C34   A    
C58   C70   S    
C4    C130  A    
C24   H11   S    
C148  O19   A    
C25   H8    S    
C17   C21   A    
C82   C91   A    
C42   C45   A    
C19   C23   A    
C151  O73   S    
O40   Zn15  S    
C77   H21   S    
C57   C97   A    
C1    O17   A    
H77   O64   S    
C46   C84   A    
O3    Zn13  S    
C60   C65   S    
C22   C27   A    
C36   C44   A    
C146  O69   S    
C159  O4    A    
C37   C45   A    
C103  C121  A    
C50   O33   A    
O12   Zn6   S    
C174  O9    A    
H84   O71   S    
C3    C129  A    
C49   O32   A    
C43   C49   S    
C8    C93   S    
O27   Zn7   S    
O29   Zn8   S    
C93   O16   A    
C20   C42   A    
O4    Zn12  S    
C138  C151  A    
C130  H49   S    
C33   C38   A    
C14   C126  S    
C56   C59   S    
C2    H9    S    
C80   C88   A    
H74   O61   S    
C96   H41   S    
H87   O74   S    
C177  O13   A    
C121  C175  S    
C152  O49   S    
H85   O72   S    
C57   C85   A    
C58   O59   S    
C160  C168  A    
C4    C14   A    
C68   C98   A    
C60   O61   S    
H64   O51   S    
C56   O58   S    
H81   O68   S    
C6    C16   A    
C46   C96   A    
C6    C163  A    
H69   O55   S    
O34   Zn14  S    
C31   C36   A    
H75   O62   S    
C76   C85   A    
C44   C48   S    
C78   C87   A    
O1    Zn1   S    
C143  O68   S    
C116  C123  A    
C61   O62   S    
O39   Zn1   S    
C35   H15   S    
C115  O75   A    
C133  C142  A    
O32   Zn2   S    
C79   C170  A    
C24   C94   A    
O24   Zn6   S    
C75   C84   A    
C99   C117  A    
C65   C70   S    
C111  C119  A    
C67   C72   S    
C61   C67   S    
C139  C143  A    
C63   C69   S    
C81   C114  A    
C64   C73   S    
C14   C166  A    
C125  H44   S    
H65   O52   S    
C152  C161  A    
O35   Zn4   S    
C173  O8    A    
C15   C167  A    
C95   C103  A    
C47   C50   S    
O25   Zn6   S    
C141  H60   S    
C51   O48   A    
C34   C39   A    
C90   H37   S    
C55   O42   A    
C12   C165  A    
C75   H19   S    
C118  C169  S    
C122  C174  S    
C133  H52   S    
C137  O20   A    
C86   H30   S    
C136  C150  A    
C20   H4    S    
O20   Zn4   S    
O76   Zn15  S    
C21   H5    S    
C33   Cl4   S    
C52   O36   A    
C41   C47   A    
C32   C37   A    
C94   C102  A    
C138  H57   S    
C145  C154  A    
C76   C110  A    
C80   H24   S    
C26   C30   A    
C23   C28   A    
H68   O54   S    
C98   H43   S    
C132  C141  A    
C105  C109  A    
C18   C22   A    
C107  C111  A    
C34   C43   A    
C39   C44   A    
C124  C176  S    
C127  C179  A    
O1    Zn11  S    
C159  O18   A    
O5    Zn1   S    
C105  C122  A    
C48   O44   A    
C37   C41   A    
C54   O40   A    
C172  O7    A    
O12   Zn10  S    
C62   O63   S    
C113  C121  A    
C80   C113  A    
C157  O54   S    
C57   H17   S    
C125  C178  A    
C153  O50   S    
C82   H26   S    
C125  C134  A    
C96   C105  A    
H82   O69   S    
C10   C163  A    
O38   Zn9   S    
C123  C177  S    
C48   O31   A    
C109  C117  A    
O23   Zn12  S    
C134  C147  A    
C129  H48   S    
C175  O29   A    
O43   Zn12  S    
C29   H67   S    
C127  C135  A    
C147  O72   S    
C128  C136  A    
C20   C25   A    
C130  C139  A    
H83   O70   S    
C137  O2    A    
O12   Zn2   S    
C77   C111  A    
H62   O49   S    
O47   Zn7   S    
C19   H3    S    
C146  C155  A    
C149  O71   S    
C69   C73   S    
C11   C104  S    
C175  O10   A    
C169  O26   A    
H63   O50   S    
C81   C89   A    
O41   Zn14  S    
C101  C114  A    
C53   C70   S    
O10   Zn13  S    
C1    C9    S    
O26   Zn5   S    
C170  H10   S    
C35   C83   A    
C74   H18   S    
C60   C71   S    
C61   C73   S    
C127  H46   S    
C98   C107  A    
C62   C69   S    
C78   H22   S    
C15   C159  S    
C54   C73   S    
C117  C171  S    
O23   Zn7   S    
C66   C71   S    
O37   Zn10  S    
C142  H61   S    
C53   O38   A    
O33   Zn3   S    
C147  C156  A    
O23   Zn3   S    
C171  O6    A    
C13   H13   S    
C92   C101  A    
C5    C12   A    
C97   C106  A    
C143  C152  A    
H79   O65   S    
C126  O76   A    
C128  H47   S    
C31   Cl2   S    
C30   Cl1   S    
C100  C118  A    
C145  O70   S    
C93   O56   A    
C102  C120  A    
C172  O24   A    
C150  C158  A    
C176  O28   A    
C140  C144  A    
C84   H28   S    
C35   C95   A    
O15   Zn2   S    
C7    C164  A    
O34   Zn8   S    
C135  H54   S    
C16   C148  S    
C153  C162  A    
C140  H59   S    
C5    C162  A    
O8    Zn11  S    
C150  O74   S    
C82   C116  A    
C52   C71   S    
C119  C173  S    
C50   O47   A    
C8    C179  A    
O34   Zn4   S    
C79   H36   S    
O56   Zn10  S    
C156  C165  A    
C28   H78   S    
C92   H38   S    
C4    C161  A    
C132  H51   S    
C59   C70   S    
C74   C108  A    
C5    C131  A    
C63   C72   S    
C2    C90   A    
O31   Zn16  S    
C136  H55   S    
C177  O27   A    
C87   H31   S    
O13   Zn15  S    
C78   C112  A    
C11   C180  A    
C149  C157  A    
C9    C178  A    
C19   C41   A    
H72   O59   S    
O30   Zn7   S    
O36   Zn11  S    
C68   C86   A    
C23   H7    S    
C171  O25   A    
O19   Zn4   S    
O6    Zn9   S    
C38   C42   A    
C8    C161  A    
C55   O41   A    
C45   C51   S    
C115  O14   A    
C56   C65   S    
O21   Zn3   S    
C144  C153  A    
C49   O46   A    
C104  O67   A    
C97   H42   S    
C58   C66   S    
C129  C138  A    
C106  C123  A    
O34   Zn13  S    
C2    C88   A    
C103  C108  A    
C156  O53   S    
C54   O43   A    
C126  O21   A    
C114  C124  A    
C56   C71   S    
C158  O55   S    
C165  C178  A    
O17   Zn16  S    
C17   H88   S    
C154  O51   S    
C90   C100  A    
C3    C168  A    
C13   C89   A    
C131  H50   S    
C65   H1    S    
C75   C109  A    
C101  C119  A    
C64   C67   S    
C108  C118  A    
C154  C163  A    
C36   C40   A    
C110  C120  A    
C120  C172  S    
C155  O52   S    
O11   Zn14  S    
C135  C149  A    
C87   C170  A    
C59   O60   S    
C18   H2    S    
C26   H56   S    
O2    Zn14  S    
H86   O73   S    
C112  C122  A    
C85   H29   S    
O75   Zn1   S    
C148  O3    A    
C62   C72   S    
C38   C47   A    
C51   O35   A    
C77   C86   A    
C94   H39   S    
C169  O5    A    
C24   C91   A    
C67   H23   S    
C106  C110  A    
C160  O57   S    
C88   H32   S    
O14   Zn16  S    
H73   O60   S    
C100  C113  A    
C55   C72   S    
C157  C166  A    
C66   H12   S    
C76   H20   S    
O9    Zn12  S    
C155  C164  A    
C173  O22   A    
C95   H40   S    
C52   O39   A    
C68   H16   S    
O42   Zn13  S    
C151  C160  A    
C144  O66   S    
C13   C92   A    
C3    C10   A    
O28   Zn8   S    
C16   C168  A    
C99   C112  A    
C11   C164  A    
C134  H53   S    
C63   O64   S    
H66   O53   S    
C91   H35   S    
C9    C162  A    
C102  C116  A    
C104  O15   A    
C89   H33   S    
O48   Zn8   S    
C12   C137  S    
C166  C179  A    
O1    Zn5   S    
C83   H27   S    
C10   C115  S    
