data_mof_unit_66064.cif
_audit_creation_date              2012-12-10T17:20:41-0500
_audit_creation_method            fapswitch 2.2
_symmetry_space_group_name_H-M    P1
_symmetry_Int_Tables_number       1
_space_group_crystal_system       triclinic
_cell_length_a                    10.232817
_cell_length_b                    10.712907
_cell_length_c                    13.644182
_cell_angle_alpha                 92.421541
_cell_angle_beta                  74.948746
_cell_angle_gamma                 95.877835
_cell_volume                      1436.62201653

loop_
_atom_site_label
_atom_site_type_symbol
_atom_type_description
_atom_site_fract_x
_atom_site_fract_y
_atom_site_fract_z
_atom_type_partial_charge
C1    C     C_R   0.556598 0.733319 0.497324 0.844011
C2    C     C_2   0.073022 0.487335 0.492320 0.346322
C3    C     C_1   0.446858 0.504717 0.882252 0.085418
C4    C     C_1   0.553096 0.495112 0.117745 0.092309
C5    C     C_2   0.587569 0.867348 0.508351 0.246097
C6    C     C_2   0.407109 0.134048 0.528287 0.232715
C7    C     C_2   0.484443 0.934623 0.553879 -0.187046
C8    C     C_2   0.499775 0.069567 0.552183 -0.196685
C9    C     C_R   0.442326 0.266952 0.510085 0.848672
C10   C     C_R   0.476785 0.503356 0.688005 0.878721
C11   C     C_R   0.523216 0.496649 0.312001 0.914641
C12   C     C_1   0.540895 0.495498 0.206638 -0.076698
C13   C     C_1   0.459082 0.504418 0.793361 -0.080332
C14   C     C_2   0.557649 0.495706 0.013506 0.283760
C15   C     C_2   0.442287 0.504042 0.986489 0.283760
C16   C     C_2   0.927017 0.512788 0.507581 0.344905
Cl1   Cl    Cl    0.283282 0.513889 0.075068 -0.490468
Cl2   Cl    Cl    0.716651 0.485852 0.924921 -0.497804
Cl3   Cl    Cl    0.249451 0.063235 0.513353 -0.451021
Cl4   Cl    Cl    0.755382 0.935449 0.457962 -0.455331
Cl5   Cl    Cl    0.138135 0.366320 0.407611 -0.466824
Cl6   Cl    Cl    0.861986 0.634027 0.592086 -0.485619
H1    H     H_    0.114353 0.622249 0.589127 0.209202
H2    H     H_    0.885581 0.377592 0.411026 0.213949
H3    H     H_    0.595468 0.116190 0.561333 0.214853
H4    H     H_    0.382602 0.889658 0.584757 0.210320
N1    N     N_2   0.847200 0.448220 0.460120 -0.194952
N2    N     N_2   0.152800 0.551780 0.539880 -0.195445
O1    O     O_R   0.430150 0.692610 0.508030 -0.636538
O2    O     O_R   0.569850 0.307390 0.491970 -0.635598
O3    O     O_R   0.653100 0.659360 0.482430 -0.522123
O4    O     O_R   0.346900 0.340640 0.517570 -0.525359
O5    O     O_R   0.372470 0.518990 0.654990 -0.609505
O6    O     O_R   0.627530 0.481010 0.345010 -0.597329
O7    O     O_R   0.595430 0.485740 0.629390 -0.554292
O8    O     O_R   0.404570 0.514260 0.370610 -0.544404
Zn1   Zn    Zn3+2 0.351130 0.522200 0.517090 1.075280
Zn2   Zn    Zn3+2 0.648870 0.477800 0.482910 1.078441

loop_
_geom_bond_atom_site_label_1
_geom_bond_atom_site_label_2
_ccdc_geom_bond_type
C2    N2    D    
C11   C12   S    
O3    Zn2   S    
C10   O7    A    
C8    H3    S    
C4    C12   T    
C2    C16   S    
C14   Cl2   S    
C3    C13   T    
H2    N1    S    
C16   N1    D    
C1    O1    A    
C7    C8    S    
C5    Cl4   S    
O6    Zn2   S    
O4    Zn1   S    
C6    Cl3   S    
C7    H4    S    
C9    O2    A    
C6    C9    S    
C1    C5    S    
N2    Zn1   S    
C11   O8    A    
C10   O5    A    
C4    C14   S    
N1    Zn2   S    
C1    O3    A    
O7    Zn2   S    
C3    C15   S    
O2    Zn2   S    
C15   Cl1   S    
O1    Zn1   S    
C5    C7    D    
C14   C15   D    
O8    Zn1   S    
C6    C8    D    
C9    O4    A    
C2    Cl5   S    
H1    N2    S    
C11   O6    A    
O5    Zn1   S    
C16   Cl6   S    
C10   C13   S    
