data_mof_unit_9753.cif
_audit_creation_date              2012-12-10T17:07:50-0500
_audit_creation_method            fapswitch 2.2
_symmetry_space_group_name_H-M    P1
_symmetry_Int_Tables_number       1
_space_group_crystal_system       triclinic
_cell_length_a                    10.657637
_cell_length_b                    10.667211
_cell_length_c                    9.999827
_cell_angle_alpha                 89.508289
_cell_angle_beta                  89.584264
_cell_angle_gamma                 89.940335
_cell_volume                      1136.78062321

loop_
_atom_site_label
_atom_site_type_symbol
_atom_type_description
_atom_site_fract_x
_atom_site_fract_y
_atom_site_fract_z
_atom_type_partial_charge
C1    C     C_R   0.488720 0.262665 0.500507 0.816800
C2    C     C_3   0.878895 0.496482 0.497483 -0.113131
C3    C     C_3   0.930643 0.635449 0.471352 0.379519
C4    C     C_3   0.930458 0.403844 0.387590 0.296021
C5    C     C_2   0.463213 0.932908 0.390185 -0.113739
C6    C     C_2   0.507577 0.870821 0.496121 -0.248332
C7    C     C_2   0.467007 0.067765 0.389121 -0.182376
C8    C     C_2   0.446821 0.134593 0.500631 -0.156765
C9    C     C_2   0.552192 0.587571 0.923736 -0.137022
C10   C     C_2   0.558192 0.583805 0.073932 -0.116114
C11   C     C_R   0.257900 0.495345 0.500923 0.888504
C12   C     C_R   0.502638 0.737864 0.499233 0.946326
C13   C     C_R   0.742303 0.496882 0.499367 0.897855
C14   C     C_3   0.070000 0.434193 0.635157 0.352389
C15   C     C_3   0.926485 0.438233 0.632563 -0.553002
C16   C     C_3   0.075936 0.632877 0.490482 -0.384549
C17   C     C_3   0.074119 0.417159 0.382614 -0.551415
C18   C     C_3   0.121670 0.495127 0.503156 -0.044498
H1    H     H_    0.127068 0.680867 0.407422 0.196300
H2    H     H_    0.431385 0.885335 0.300951 0.165199
H3    H     H_    0.545213 0.918269 0.582796 0.138327
H4    H     H_    0.504639 0.110606 0.298364 0.155926
H5    H     H_    0.594903 0.667160 0.872987 0.158729
H6    H     H_    0.466946 0.422450 0.898802 0.152250
H7    H     H_    0.612385 0.656030 0.122707 0.160929
H8    H     H_    0.101016 0.333787 0.635103 0.052544
H9    H     H_    0.444765 0.436563 0.103130 0.155433
H10   H     H_    0.890498 0.340676 0.644264 0.142210
H11   H     H_    0.889338 0.485616 0.722403 0.212712
H12   H     H_    0.106176 0.686759 0.578748 0.206790
H13   H     H_    0.102629 0.463965 0.287335 0.258667
H14   H     H_    0.117484 0.322105 0.383372 0.140778
H15   H     H_    0.906564 0.306349 0.420937 0.068512
N1    N     N_2   0.501360 0.501330 0.852150 -0.192535
N2    N     N_2   0.501390 0.501360 0.147810 -0.194449
O1    O     O_R   0.499980 0.319060 0.613040 -0.642355
O2    O     O_R   0.500020 0.319100 0.386900 -0.610728
O3    O     O_R   0.314770 0.499960 0.613070 -0.570338
O4    O     O_R   0.314820 0.500000 0.386930 -0.623873
O5    O     O_R   0.499980 0.680900 0.613100 -0.602531
O6    O     O_R   0.500020 0.680940 0.386960 -0.629049
O7    O     O_R   0.685180 0.500000 0.613070 -0.627851
O8    O     O_R   0.685230 0.500040 0.386930 -0.579077
Zn1   Zn    Zn3+2 0.499970 0.499970 0.650990 0.945087
Zn2   Zn    Zn3+2 0.500030 0.500030 0.349010 0.949305
O9    O     O_3   0.112528 0.499696 0.749541 -0.592704
C19   C     C_3   0.138728 0.415414 0.855491 0.087446
H16   H     H_    0.222270 0.357232 0.830341 0.141839
H17   H     H_    0.057289 0.352913 0.876762 0.130755
C20   C     C_3   0.167319 0.489310 0.980961 -0.772323
H18   H     H_    0.083779 0.544674 0.011528 0.286029
H19   H     H_    0.192645 0.423803 0.063301 0.184516
H20   H     H_    0.247127 0.554054 0.962002 0.264452
O10   O     O_3   0.878975 0.428498 0.259141 -0.571210
C21   C     C_3   0.886715 0.321877 0.176488 0.135718
H21   H     H_    0.836874 0.240420 0.222583 0.128244
H22   H     H_    0.986383 0.296451 0.156842 0.132688
C22   C     C_3   0.824247 0.351305 0.043524 -0.816495
H23   H     H_    0.865402 0.437399 0.998078 0.260601
H24   H     H_    0.837897 0.271890 0.973818 0.191500
H25   H     H_    0.722136 0.365928 0.059190 0.257461
C23   C     C_2   0.899250 0.675316 0.327962 0.558031
H26   H     H_    0.802754 0.698512 0.303959 0.065465
O11   O     O_2   0.977873 0.682920 0.238686 -0.618436
C24   C     C_2   0.371582 0.089180 0.618137 0.366445
H27   H     H_    0.380577 0.134765 0.714193 0.061548
O12   O     O_2   0.294694 0.005094 0.607325 -0.560936
O13   O     O_3   0.870579 0.731813 0.547758 -0.663126
C25   C     C_3   0.877990 0.725055 0.688721 0.106587
H28   H     H_    0.964074 0.680551 0.727025 0.200440
H29   H     H_    0.794822 0.674960 0.729117 0.169567
C26   C     C_3   0.873730 0.857450 0.743731 -0.835019
H30   H     H_    0.786110 0.905210 0.711728 0.246467
H31   H     H_    0.876104 0.854159 0.854736 0.216389
H32   H     H_    0.955839 0.911768 0.706328 0.274679

loop_
_geom_bond_atom_site_label_1
_geom_bond_atom_site_label_2
_ccdc_geom_bond_type
C12   O5    A    
C11   O3    A    
C20   H19   S    
C21   H21   S    
C11   C18   S    
O3    Zn1   S    
C10   N2    D    
C15   H11   S    
C25   C26   S    
C1    C8    S    
C9    C10   S    
C14   C18   S    
C2    C4    S    
C3    O13   S    
C14   C15   S    
C1    O2    A    
C13   O8    A    
O4    Zn2   S    
C4    O10   S    
C22   H25   S    
C23   O11   D    
C17   C18   S    
C25   H29   S    
C8    C24   S    
C19   H17   S    
C5    H2    S    
C14   H8    S    
C11   O4    A    
C2    C15   S    
O8    Zn2   S    
C15   H10   S    
C23   H26   S    
O7    Zn1   S    
C22   H24   S    
C26   H32   S    
C5    C6    D    
C10   H7    S    
C16   C18   S    
C13   O7    A    
C9    N1    D    
C2    C3    S    
C19   C20   S    
C21   H22   S    
C6    C12   S    
C25   H28   S    
C17   H13   S    
O1    Zn1   S    
C20   H20   S    
C7    C8    D    
C17   H14   S    
C4    C17   S    
C16   H1    S    
O2    Zn2   S    
C7    H4    S    
O5    Zn1   S    
N1    Zn1   S    
C12   O6    A    
C26   H31   S    
C24   H27   S    
O9    C19   S    
C3    C23   S    
C5    C7    S    
C2    C13   S    
C21   C22   S    
C4    H15   S    
C9    H5    S    
O6    Zn2   S    
C24   O12   D    
C20   H18   S    
H9    N2    S    
C22   H23   S    
O10   C21   S    
C6    H3    S    
C16   H12   S    
C26   H30   S    
H6    N1    S    
C3    C16   S    
C19   H16   S    
C1    O1    A    
O13   C25   S    
C14   O9    S    
N2    Zn2   S    
