data_mof_unit_52716.cif
_audit_creation_date              2013-03-05T15:47:51-0500
_audit_creation_method            fapswitch 2.2
_symmetry_space_group_name_H-M    P1
_symmetry_Int_Tables_number       1
_space_group_crystal_system       triclinic
_cell_length_a                    10.160551
_cell_length_b                    10.820619
_cell_length_c                    15.766672
_cell_angle_alpha                 89.892611
_cell_angle_beta                  81.271423
_cell_angle_gamma                 95.076106
_cell_volume                      1706.44030046

loop_
_atom_site_label
_atom_site_type_symbol
_atom_site_description
_atom_site_fract_x
_atom_site_fract_y
_atom_site_fract_z
_atom_type_partial_charge
O1    O     O_R   0.431050 0.692470 0.506940 -0.614378
O2    O     O_R   0.651130 0.659650 0.484820 -0.613876
C1    C     C_R   0.555889 0.732502 0.496837 0.934597
O3    O     O_R   0.389910 0.516410 0.633920 -0.574802
O4    O     O_R   0.609990 0.483590 0.611800 -0.628823
C2    C     C_R   0.500259 0.500127 0.661514 0.894766
Zn1   Zn    Zn3+2 0.353060 0.521920 0.514770 0.976925
Zn2   Zn    Zn3+2 0.646940 0.478080 0.485230 0.948450
O5    O     O_R   0.348870 0.340350 0.515180 -0.610937
O6    O     O_R   0.568950 0.307530 0.493060 -0.612864
O7    O     O_R   0.390010 0.516410 0.388200 -0.613169
O8    O     O_R   0.610090 0.483590 0.366080 -0.601587
C3    C     C_R   0.444117 0.267477 0.508007 0.942095
C4    C     C_R   0.499854 0.500189 0.338427 0.902817
C5    C     C_3   0.381745 0.573113 0.963463 0.109630
C6    C     C_3   0.638896 0.583495 0.936334 0.288870
C7    C     C_3   0.627428 0.596600 0.037724 0.017204
H1    H     H_    0.350301 0.642399 0.095132 0.175922
H2    H     H_    0.400573 0.674119 0.951704 0.116659
H3    H     H_    0.717995 0.563807 0.059396 0.176918
C8    C     C_1   0.500329 0.503034 0.249647 -0.177948
C9    C     C_3   0.504511 0.504759 0.916707 0.044574
C10   C     C_3   0.372364 0.554200 0.062018 -0.443058
C11   C     C_3   0.504847 0.509413 0.082494 0.131285
C12   C     C_3   0.517642 0.375127 0.048935 -0.499052
C13   C     C_3   0.488788 0.365335 0.954225 0.416015
C14   C     C_1   0.502022 0.506084 0.174318 -0.026690
C15   C     C_1   0.502392 0.503211 0.825113 0.046663
C16   C     C_1   0.501357 0.501635 0.750043 -0.111575
H4    H     H_    0.452348 0.306480 0.092372 0.227340
H5    H     H_    0.289616 0.484361 0.088536 0.254666
H6    H     H_    0.620326 0.350612 0.053660 0.168851
H7    H     H_    0.615237 0.105608 0.523635 0.189668
H8    H     H_    0.384923 0.894138 0.546563 0.189319
C17   C     C_2   0.587486 0.864264 0.502904 -0.371613
C18   C     C_2   0.487742 0.933847 0.529024 -0.142243
H9    H     H_    0.309957 0.095510 0.523123 0.153915
C19   C     C_2   0.412533 0.135656 0.520350 -0.353590
C20   C     C_2   0.512366 0.065953 0.526580 -0.141313
H10   H     H_    0.689989 0.904475 0.485244 0.153999
H11   H     H_    0.105279 0.423460 0.447383 0.127357
H12   H     H_    0.884646 0.578610 0.552842 0.176853
N1    N     N_2   0.842720 0.448890 0.465540 -0.200389
C21   C     C_2   0.924520 0.511238 0.507441 -0.136595
N2    N     N_2   0.157250 0.551040 0.534500 -0.054575
C22   C     C_2   0.070144 0.491549 0.493934 -0.004899
H13   H     H_    0.881473 0.384982 0.422485 0.166541
N3    N     N_R   0.253839 0.538788 0.931978 0.258520
O9    O     O_R   0.148563 0.491597 0.983157 -0.346454
O10   O     O_R   0.237718 0.578003 0.856436 -0.384038
C23   C     C_3   0.116688 0.642625 0.597867 -0.589021
H14   H     H_    0.205384 0.682069 0.625108 0.241750
H15   H     H_    0.074415 0.719941 0.567674 0.171913
H16   H     H_    0.043337 0.598957 0.651365 0.201630
C24   C     C_3   0.767893 0.519282 0.902999 -0.825445
H17   H     H_    0.858655 0.585881 0.898064 0.270071
H18   H     H_    0.787568 0.446946 0.947786 0.229961
H19   H     H_    0.764531 0.480056 0.838270 0.244557
C25   C     C_3   0.661796 0.712270 0.887521 -0.835884
H20   H     H_    0.581672 0.774344 0.904579 0.225923
H21   H     H_    0.755530 0.764860 0.900236 0.249063
H22   H     H_    0.673639 0.699817 0.816962 0.233784
C26   C     C_3   0.625413 0.731336 0.071058 -0.883552
H23   H     H_    0.720690 0.786625 0.046106 0.255637
H24   H     H_    0.541019 0.778110 0.052603 0.247159
H25   H     H_    0.616853 0.732592 0.142046 0.245905
N4    N     N_R   0.351064 0.308619 0.951015 0.251706
O11   O     O_R   0.272117 0.265564 0.019526 -0.381489
O12   O     O_R   0.311912 0.288215 0.876949 -0.343586
C27   C     C_3   0.581972 0.274172 0.904148 -0.865667
H26   H     H_    0.541763 0.177069 0.921704 0.255823
H27   H     H_    0.586399 0.283991 0.833730 0.246108
H28   H     H_    0.684665 0.279997 0.919066 0.227702

loop_
_geom_bond_atom_site_label_1
_geom_bond_atom_site_label_2
_geom_bond_distance
_ccdc_geom_bond_type
O6    C3    1.289866 A    
O4    Zn2   1.975827 S    
C5    H2    1.103165 S    
C10   C11   1.548485 S    
C26   H24   1.108191 S    
H9    C19   1.087588 S    
C17   C18   1.331580 D    
Zn2   N1    2.019234 S    
C1    C17   1.440079 S    
Zn2   O8    1.972280 S    
C23   H16   1.111565 S    
C7    H3    1.114545 S    
C12   H6    1.112178 S    
N3    O10   1.301957 A    
O2    C1    1.293704 A    
C8    C14   1.185542 T    
C6    C24   1.558958 S    
C25   H20   1.103286 S    
C9    C15   1.447659 S    
N2    C22   1.295876 D    
C7    C26   1.551480 S    
N4    O11   1.302424 A    
Zn1   O7    1.975825 S    
C3    C19   1.440286 S    
H7    C20   1.088402 S    
H11   C22   1.085352 S    
H12   C21   1.083599 S    
C5    N3    1.477977 S    
C27   H28   1.100416 S    
O3    Zn1   1.972280 S    
C11   C14   1.444001 S    
C13   N4    1.485600 S    
Zn1   N2    2.019350 S    
C4    C8    1.399321 S    
C5    C10   1.554322 S    
C15   C16   1.185387 T    
C21   C22   1.496775 S    
C27   H26   1.111824 S    
C17   H10   1.087595 S    
H8    C18   1.088544 S    
C24   H18   1.104401 S    
N1    C21   1.285095 D    
O4    C2    1.288434 A    
C13   C27   1.560190 S    
O7    C4    1.289042 A    
C24   H17   1.111865 S    
C26   H25   1.109580 S    
C7    C11   1.569168 S    
C25   H21   1.110649 S    
N2    C23   1.449524 S    
C26   H23   1.109450 S    
H1    C10   1.112593 S    
C2    C16   1.397660 S    
C19   C20   1.331455 D    
C11   C12   1.556824 S    
Zn2   O6    1.938959 S    
O3    C2    1.288469 A    
C9    C13   1.605244 S    
C24   H19   1.110189 S    
N4    O12   1.302733 A    
C12   H4    1.110805 S    
Zn1   O5    1.961368 S    
C18   C20   1.428654 S    
O5    C3    1.293563 A    
N3    O9    1.302270 A    
C25   H22   1.110434 S    
C6    C9    1.615354 S    
C23   H15   1.111384 S    
C12   C13   1.566845 S    
O1    Zn1   1.938958 S    
N1    H13   1.030958 S    
C27   H27   1.108846 S    
C5    C9    1.591428 S    
O2    Zn2   1.961369 S    
C23   H14   1.108559 S    
O8    C4    1.288562 A    
C6    C7    1.592599 S    
O1    C1    1.289618 A    
C6    C25   1.572369 S    
C10   H5    1.110172 S    
