data_mof_unit_13576.cif
_audit_creation_date              2012-10-26T20:12:42-0400
_audit_creation_method            fapswitch 2.2
_symmetry_space_group_name_H-M    P1
_symmetry_Int_Tables_number       1
_space_group_crystal_system       triclinic
_cell_length_a                    15.101147
_cell_length_b                    13.872549
_cell_length_c                    10.788851
_cell_angle_alpha                 90.019528
_cell_angle_beta                  90.146416
_cell_angle_gamma                 90.062728
_cell_volume                      2260.16265113

loop_
_atom_site_label
_atom_site_type_symbol
_atom_type_description
_atom_site_fract_x
_atom_site_fract_y
_atom_site_fract_z
_atom_type_partial_charge
C1    C     C_R   0.329905 0.499954 0.499758 0.534797
C2    C     C_R   0.457782 0.790510 0.407791 0.061336
C3    C     C_R   0.432975 0.209276 0.443538 0.059607
C4    C     C_R   0.542172 0.790678 0.592226 0.061019
C5    C     C_R   0.499994 0.054672 0.499992 0.023946
C6    C     C_R   0.499981 0.945289 0.499994 0.027387
C7    C     C_R   0.500021 0.499995 0.262830 0.530984
C8    C     C_R   0.499987 0.500016 0.737178 0.528840
C9    C     C_R   0.340393 0.539229 0.128626 -0.100627
C10   C     C_R   0.659792 0.461537 0.871448 -0.098795
C11   C     C_R   0.340213 0.538631 0.870467 -0.089950
C12   C     C_R   0.670096 0.500036 0.499956 0.534703
C13   C     C_R   0.659727 0.461125 0.129606 -0.088969
C14   C     C_R   0.262352 0.557792 0.063750 -0.102773
C15   C     C_R   0.737805 0.442883 0.936381 -0.100840
C16   C     C_R   0.262246 0.557415 0.934912 -0.097439
C17   C     C_R   0.737764 0.442628 0.065220 -0.099031
C18   C     C_R   0.420435 0.519950 0.934494 0.008999
C19   C     C_R   0.579574 0.480074 0.065541 0.010946
C20   C     C_R   0.420490 0.520102 0.065050 0.007007
C21   C     C_R   0.579588 0.480204 0.934985 0.006825
C22   C     C_R   0.499999 0.500054 0.870924 -0.011545
C23   C     C_R   0.048496 0.499880 0.498453 0.098358
C24   C     C_R   0.500026 0.500021 0.129097 -0.010372
C25   C     C_R   0.095096 0.576617 0.444202 0.384694
C26   C     C_R   0.904668 0.423224 0.444475 0.383396
C27   C     C_R   0.905309 0.576881 0.553035 0.386848
C28   C     C_R   0.094926 0.423081 0.552912 0.385548
C29   C     C_R   0.187182 0.576896 0.445682 -0.120552
C30   C     C_R   0.812596 0.422945 0.446085 -0.125719
C31   C     C_R   0.813219 0.577160 0.552415 -0.110205
C32   C     C_R   0.187007 0.422801 0.552166 -0.115278
C33   C     C_R   0.233422 0.499883 0.499212 -0.118039
C34   C     C_R   0.951503 0.500035 0.498546 0.098497
C35   C     C_R   0.766579 0.500050 0.499516 -0.117742
C36   C     C_R   0.568641 0.108027 0.556726 -0.127032
C37   C     C_R   0.457545 0.891948 0.405519 -0.125095
C38   C     C_R   0.431348 0.107837 0.443278 -0.127114
C39   C     C_R   0.542398 0.892113 0.594486 -0.125263
C40   C     C_R   0.567016 0.209463 0.556488 0.058603
Cu1   Cu    Cu3+1 0.500000 0.596430 0.500000 0.947875
Cu2   Cu    Cu3+1 0.500000 0.403570 0.500000 0.945589
F1    F     F_    0.051480 0.650272 0.388137 -0.578198
F2    F     F_    0.948036 0.349500 0.388426 -0.579299
F3    F     F_    0.949333 0.650582 0.608672 -0.576842
F4    F     F_    0.051149 0.349435 0.608673 -0.577646
H1    H     H_    0.798458 0.428362 0.115576 0.150227
H2    H     H_    0.777265 0.363409 0.403641 0.162509
H3    H     H_    0.778375 0.636704 0.595177 0.165761
H4    H     H_    0.222027 0.363294 0.594919 0.169572
H5    H     H_    0.624282 0.072202 0.599920 0.110722
H6    H     H_    0.425146 0.927784 0.328864 0.103206
H7    H     H_    0.375699 0.071861 0.400099 0.111101
H8    H     H_    0.574777 0.928077 0.671151 0.103476
H9    H     H_    0.620000 0.248732 0.601477 0.134730
H10   H     H_    0.424224 0.751177 0.334914 0.129065
H11   H     H_    0.379972 0.248399 0.398615 0.138204
H12   H     H_    0.201494 0.571474 0.884612 0.147823
H13   H     H_    0.575702 0.751482 0.665129 0.131538
H14   H     H_    0.798543 0.428845 0.886462 0.145903
H15   H     H_    0.201701 0.572189 0.113724 0.149272
H16   H     H_    0.337062 0.539647 0.228727 0.119808
H17   H     H_    0.663233 0.461550 0.771339 0.123279
H18   H     H_    0.336726 0.538537 0.770346 0.131067
H19   H     H_    0.663102 0.460811 0.229720 0.126705
H20   H     H_    0.222340 0.636369 0.403109 0.159110
N1    N     N_R   0.500000 0.258690 0.500000 -0.225273
N2    N     N_R   0.500000 0.741310 0.500000 -0.222935
O1    O     O_R   0.371460 0.581430 0.500010 -0.502218
O2    O     O_R   0.628540 0.418570 0.499990 -0.515785
O3    O     O_R   0.628540 0.581430 0.499990 -0.491437
O4    O     O_R   0.371460 0.418570 0.500010 -0.505424
O5    O     O_R   0.499990 0.581440 0.319660 -0.508255
O6    O     O_R   0.500010 0.418560 0.680340 -0.495943
O7    O     O_R   0.500010 0.581440 0.680340 -0.510278
O8    O     O_R   0.499990 0.418560 0.319660 -0.496964

loop_
_geom_bond_atom_site_label_1
_geom_bond_atom_site_label_2
_ccdc_geom_bond_type
C11   C18   A    
Cu1   Cu2   S    
C10   H17   S    
C25   F1    S    
C26   F2    S    
C7    O5    A    
C13   H19   S    
C28   F4    S    
C30   C35   A    
C30   H2    S    
C19   C21   A    
C2    N2    A    
C10   C15   A    
C5    C6    S    
C39   H8    S    
C7    C24   S    
C5    C36   A    
C29   C33   A    
Cu2   O2    S    
C15   H14   S    
C31   C35   A    
C26   C34   A    
C20   C24   A    
C3    C38   A    
C40   N1    A    
C8    C22   S    
Cu1   O3    S    
C27   F3    S    
C27   C34   A    
C21   C22   A    
C31   H3    S    
Cu2   O4    S    
Cu1   N2    S    
C10   C21   A    
C25   C29   A    
Cu2   O6    S    
C1    O4    A    
C13   C19   A    
C27   C31   A    
C9    H16   S    
C28   C32   A    
C11   H18   S    
C4    N2    A    
C37   H6    S    
C14   H15   S    
C8    O7    A    
C1    O1    A    
C9    C14   A    
Cu1   O7    S    
C11   C16   A    
C9    C20   A    
C4    C39   A    
C36   C40   A    
C40   H9    S    
C8    O6    A    
C6    C37   A    
C16   H12   S    
C23   C28   A    
C12   C35   S    
C32   H4    S    
C36   H5    S    
C3    H11   S    
C12   O3    A    
C26   C30   A    
Cu2   N1    S    
C14   C16   A    
Cu1   O1    S    
C15   C17   A    
C12   O2    A    
C23   C34   S    
C18   C22   A    
C3    N1    A    
C17   H1    S    
C7    O8    A    
Cu2   O8    S    
C13   C17   A    
C32   C33   A    
C19   C24   A    
C2    H10   S    
C2    C37   A    
C38   H7    S    
C4    H13   S    
C18   C20   A    
C23   C25   A    
C1    C33   S    
Cu1   O5    S    
C29   H20   S    
C6    C39   A    
C5    C38   A    
