data_mof_unit_57198.cif
_audit_creation_date              2012-10-26T20:46:56-0400
_audit_creation_method            fapswitch 2.2
_symmetry_space_group_name_H-M    P1
_symmetry_Int_Tables_number       1
_space_group_crystal_system       triclinic
_cell_length_a                    15.07877
_cell_length_b                    13.844153
_cell_length_c                    10.875408
_cell_angle_alpha                 89.754074
_cell_angle_beta                  91.091711
_cell_angle_gamma                 89.970213
_cell_volume                      2269.83843748

loop_
_atom_site_label
_atom_site_type_symbol
_atom_type_description
_atom_site_fract_x
_atom_site_fract_y
_atom_site_fract_z
_atom_type_partial_charge
C1    C     C_R   0.329878 0.499971 0.502559 0.532772
C2    C     C_R   0.439460 0.892687 0.425098 -0.121304
C3    C     C_R   0.558857 0.893002 0.574087 -0.121204
C4    C     C_R   0.441924 0.790284 0.423785 0.372889
C5    C     C_R   0.557426 0.790605 0.576092 0.379304
C6    C     C_R   0.499086 0.945302 0.499209 0.007440
C7    C     C_R   0.498659 0.500012 0.264883 0.563508
C8    C     C_R   0.496518 0.499720 0.735120 0.561849
C9    C     C_2   0.473903 0.420048 0.935052 0.237709
C10   C     C_2   0.457959 0.429496 0.067605 0.260057
C11   C     C_2   0.479636 0.500604 0.865972 -0.144135
C12   C     C_R   0.670048 0.499881 0.501454 0.550094
C13   C     C_2   0.499920 0.499055 0.132129 -0.119474
C14   C     C_R   0.092290 0.579835 0.477432 0.232420
C15   C     C_R   0.903847 0.564118 0.588470 0.261051
C16   C     C_R   0.184710 0.581529 0.475532 -0.145419
C17   C     C_R   0.811956 0.568672 0.575782 -0.124660
C18   C     C_R   0.233491 0.499523 0.509663 -0.090670
C19   C     C_R   0.766366 0.499061 0.506861 -0.077467
C20   C     C_R   0.190003 0.417082 0.552439 -0.150757
C21   C     C_R   0.812713 0.425789 0.447850 -0.155839
C22   C     C_R   0.098007 0.416441 0.563133 0.259788
C23   C     C_R   0.048560 0.496970 0.521546 0.071740
C24   C     C_R   0.905420 0.425463 0.449552 0.238221
C25   C     C_3   0.419351 0.276771 0.856209 0.054988
C26   C     C_3   0.421263 0.178967 0.922135 -0.257097
C27   C     C_3   0.338796 0.119456 0.890814 -0.500343
C28   C     C_3   0.315121 0.379372 0.097771 -0.009074
C29   C     C_3   0.269334 0.423169 0.208428 -0.241946
C30   C     C_3   0.172571 0.446468 0.177706 -0.503159
C31   C     C_3   0.379360 0.763956 0.229301 0.000598
C32   C     C_3   0.286581 0.799320 0.191566 -0.278489
C33   C     C_3   0.280199 0.821166 0.054071 -0.485488
C34   C     C_R   0.951248 0.494460 0.521499 0.075339
C35   C     C_3   0.619205 0.764304 0.771230 -0.001873
C36   C     C_3   0.710270 0.804456 0.808887 -0.275903
C37   C     C_3   0.717744 0.819958 0.947530 -0.486241
C38   C     C_3   0.038695 0.669390 0.315228 0.002694
C39   C     C_3   0.022909 0.775210 0.280628 -0.248182
C40   C     C_3   0.008728 0.788295 0.142314 -0.497645
C41   C     C_3   0.969915 0.584888 0.778020 0.009692
C42   C     C_3   0.903472 0.612499 0.876597 -0.268658
C43   C     C_3   0.924551 0.561198 0.998274 -0.501938
C44   C     C_3   0.069472 0.331135 0.740024 0.006149
C45   C     C_R   0.578192 0.106524 0.479245 0.201868
C46   C     C_3   0.124307 0.242042 0.776628 -0.250409
C47   C     C_3   0.078465 0.148229 0.739088 -0.404094
C48   C     C_3   0.940563 0.359095 0.263435 -0.000888
C49   C     C_3   0.978674 0.267955 0.205569 -0.252062
C50   C     C_3   0.970446 0.270754 0.065464 -0.500368
C51   C     C_3   0.726962 0.081586 0.528397 -0.006175
C52   C     C_3   0.803707 0.119645 0.451960 -0.261258
C53   C     C_3   0.884018 0.144475 0.533240 -0.456039
C54   C     C_3   0.271642 0.088917 0.466593 -0.008187
C55   C     C_3   0.197491 0.013744 0.468499 -0.247847
C56   C     C_R   0.420147 0.106869 0.517053 0.188975
C57   C     C_3   0.119837 0.043491 0.384390 -0.501877
C58   C     C_R   0.575774 0.208816 0.476208 0.041474
C59   C     C_R   0.423418 0.209193 0.520651 0.008917
C60   C     C_R   0.499110 0.054345 0.498585 0.056592
Cu1   Cu    Cu3+1 0.500000 0.596430 0.500000 1.037176
Cu2   Cu    Cu3+1 0.500000 0.403570 0.500000 0.955202
H1    H     H_    0.465394 0.570710 0.905737 0.026051
H2    H     H_    0.425233 0.189928 0.023178 0.209709
H3    H     H_    0.278679 0.156064 0.925098 0.132221
H4    H     H_    0.344225 0.047417 0.935492 0.146599
H5    H     H_    0.332009 0.109346 0.789834 0.190059
H6    H     H_    0.303222 0.426961 0.015737 0.092532
H7    H     H_    0.283232 0.308892 0.076535 0.134727
H8    H     H_    0.272513 0.370932 0.286280 0.183659
H9    H     H_    0.303772 0.490740 0.236393 0.169582
H10   H     H_    0.168120 0.507327 0.110964 0.129964
H11   H     H_    0.137767 0.466946 0.262500 0.154046
H12   H     H_    0.539443 0.554062 0.087465 0.026767
H13   H     H_    0.139163 0.382438 0.137462 0.143802
H14   H     H_    0.394294 0.698034 0.175550 0.152842
H15   H     H_    0.430126 0.818733 0.203552 0.103011
H16   H     H_    0.237029 0.742954 0.214458 0.164658
H17   H     H_    0.270368 0.865762 0.243336 0.151139
H18   H     H_    0.329221 0.877390 0.028965 0.145035
H19   H     H_    0.212663 0.848149 0.030169 0.147410
H20   H     H_    0.292826 0.754688 0.000271 0.144943
H21   H     H_    0.607253 0.697347 0.825119 0.156548
H22   H     H_    0.565949 0.816152 0.796772 0.100860
H23   H     H_    0.217853 0.646260 0.444083 0.175565
H24   H     H_    0.762692 0.753138 0.780962 0.177818
H25   H     H_    0.721874 0.874215 0.761111 0.150269
H26   H     H_    0.666593 0.872077 0.977668 0.153108
H27   H     H_    0.784347 0.849348 0.971479 0.147156
H28   H     H_    0.709166 0.750357 0.997131 0.145797
H29   H     H_    0.981780 0.624911 0.281810 0.131978
H30   H     H_    0.099950 0.644987 0.268413 0.104207
H31   H     H_    0.963676 0.802705 0.328785 0.185560
H32   H     H_    0.081433 0.818433 0.310840 0.162773
H33   H     H_    0.065196 0.757300 0.091502 0.145066
H34   H     H_    0.775996 0.623943 0.624307 0.167050
H35   H     H_    0.003628 0.866481 0.120091 0.143317
H36   H     H_    0.946209 0.752576 0.112122 0.152160
H37   H     H_    0.036674 0.611287 0.806831 0.148748
H38   H     H_    0.974869 0.504680 0.772931 0.105638
H39   H     H_    0.905399 0.691914 0.890857 0.166495
H40   H     H_    0.835409 0.592066 0.845711 0.158408
H41   H     H_    0.918193 0.481845 0.986923 0.143739
H42   H     H_    0.877084 0.584827 0.068945 0.142310
H43   H     H_    0.992981 0.578564 0.030740 0.135545
H44   H     H_    0.003469 0.325759 0.783236 0.138094
H45   H     H_    0.227507 0.353698 0.579818 0.119890
H46   H     H_    0.102272 0.396197 0.781035 0.073020
H47   H     H_    0.190577 0.245407 0.734142 0.141716
H48   H     H_    0.134512 0.241888 0.878109 0.100136
H49   H     H_    0.012108 0.143222 0.781280 0.137085
H50   H     H_    0.119201 0.085833 0.771032 0.125513
H51   H     H_    0.070979 0.144594 0.637554 0.187489
H52   H     H_    0.976637 0.423602 0.229051 0.125735
H53   H     H_    0.869578 0.364665 0.234233 0.121362
H54   H     H_    0.049622 0.260000 0.233316 0.169117
H55   H     H_    0.942337 0.203785 0.240083 0.161886
H56   H     H_    0.776787 0.369685 0.398905 0.121002
H57   H     H_    0.899670 0.276244 0.036057 0.150978
H58   H     H_    0.998568 0.203454 0.026987 0.143027
H59   H     H_    0.007349 0.333271 0.027953 0.128007
H60   H     H_    0.749254 0.014713 0.576698 0.146773
H61   H     H_    0.710809 0.134735 0.601669 0.110655
H62   H     H_    0.823141 0.063802 0.384422 0.171896
H63   H     H_    0.782295 0.185241 0.400263 0.162958
H64   H     H_    0.867531 0.203763 0.597448 0.177205
H65   H     H_    0.939480 0.168426 0.474948 0.199697
H66   H     H_    0.906081 0.080034 0.586804 0.130194
H67   H     H_    0.420863 0.263303 0.756189 0.157779
H68   H     H_    0.292781 0.098827 0.369503 0.128625
H69   H     H_    0.244496 0.157960 0.501850 0.131887
H70   H     H_    0.223478 0.942826 0.438048 0.173012
H71   H     H_    0.173678 0.005295 0.564001 0.173427
H72   H     H_    0.140895 0.045322 0.287075 0.140564
H73   H     H_    0.094825 0.115975 0.410113 0.158323
H74   H     H_    0.065002 0.990578 0.393130 0.146456
H75   H     H_    0.635281 0.247833 0.453975 0.137199
H76   H     H_    0.364388 0.248808 0.542600 0.114196
H77   H     H_    0.391798 0.931011 0.367495 0.121153
H78   H     H_    0.355426 0.314458 0.872618 0.089801
H79   H     H_    0.605819 0.931698 0.631731 0.111145
H80   H     H_    0.481121 0.138211 0.894285 0.166303
N1    N     N_R   0.500000 0.258690 0.500000 -0.273102
N2    N     N_R   0.500000 0.741330 0.500000 -0.199815
O1    O     O_R   0.371460 0.581430 0.500010 -0.455706
O2    O     O_3   0.405813 0.361678 0.126458 -0.544008
O3    O     O_3   0.380308 0.737801 0.355446 -0.543838
O4    O     O_3   0.619283 0.738596 0.645217 -0.539813
O5    O     O_3   0.045233 0.662062 0.444728 -0.530566
O6    O     O_3   0.946911 0.629809 0.664422 -0.534436
O7    O     O_3   0.056039 0.335891 0.610581 -0.534832
O8    O     O_3   0.951463 0.352096 0.392491 -0.549988
O9    O     O_3   0.654713 0.056783 0.449297 -0.577419
O10   O     O_3   0.342791 0.056868 0.543114 -0.592780
O11   O     O_R   0.628540 0.581430 0.499990 -0.452554
O12   O     O_R   0.371470 0.418560 0.500010 -0.535791
O13   O     O_R   0.628530 0.418560 0.499990 -0.524336
O14   O     O_R   0.500000 0.581410 0.321940 -0.496392
O15   O     O_R   0.500000 0.581410 0.678060 -0.491861
O16   O     O_R   0.500010 0.418540 0.321940 -0.441734
O17   O     O_R   0.499990 0.418540 0.678060 -0.463358
O18   O     O_3   0.496320 0.330004 0.889198 -0.532190

loop_
_geom_bond_atom_site_label_1
_geom_bond_atom_site_label_2
_ccdc_geom_bond_type
C45   C60   A    
C38   H30   S    
C51   H61   S    
C41   C42   S    
C37   H26   S    
C1    O1    A    
C28   H7    S    
C3    H79   S    
Cu2   N1    S    
C3    C6    A    
C25   H67   S    
C7    O14   A    
C54   H69   S    
C26   C27   S    
C29   C30   S    
C37   H28   S    
C50   H58   S    
C2    H77   S    
C36   C37   S    
C28   H6    S    
C11   H1    S    
C8    O17   A    
Cu1   O15   S    
C40   H36   S    
C38   C39   S    
Cu2   O17   S    
C47   H50   S    
Cu1   O11   S    
C12   C19   S    
C47   H51   S    
C43   H43   S    
C26   H2    S    
C43   H42   S    
C39   H31   S    
Cu1   O1    S    
C24   O8    S    
C54   C55   S    
C58   N1    A    
C49   H55   S    
C35   C36   S    
C41   H37   S    
C57   H74   S    
C12   O13   A    
C53   H65   S    
C9    C10   S    
C15   C34   A    
C18   C20   A    
Cu1   Cu2   S    
C20   H45   S    
C31   O3    S    
C59   N1    A    
C5    O4    S    
C2    C6    A    
C50   H59   S    
C42   H40   S    
C44   C46   S    
C31   H15   S    
C44   H46   S    
C36   H25   S    
C54   H68   S    
C45   C58   A    
C41   H38   S    
C44   O7    S    
C50   H57   S    
C6    C60   S    
C25   H78   S    
C56   O10   S    
C40   H35   S    
C30   H11   S    
C35   H21   S    
C5    N2    A    
C41   O6    S    
C59   H76   S    
C36   H24   S    
C25   C26   S    
C55   H71   S    
C4    O3    S    
C38   H29   S    
C24   C34   A    
C56   C60   A    
C14   C23   A    
C1    O12   A    
C2    C4    A    
C39   H32   S    
C4    N2    A    
C21   H56   S    
C27   H3    S    
C53   H66   S    
Cu1   N2    S    
C31   C32   S    
C25   O18   S    
C35   H22   S    
C23   C34   S    
C1    C18   S    
Cu2   O13   S    
C17   H34   S    
C46   C47   S    
C9    C11   D    
C10   O2    S    
C48   H53   S    
C58   H75   S    
C48   C49   S    
C20   C22   A    
C49   C50   S    
C55   C57   S    
C16   H23   S    
Cu2   O16   S    
C57   H72   S    
C21   C24   A    
C45   O9    S    
C42   C43   S    
C12   O11   A    
C42   H39   S    
C39   C40   S    
C52   C53   S    
C48   H52   S    
C29   H8    S    
C33   H20   S    
C15   C17   A    
C22   O7    S    
C28   C29   S    
C38   O5    S    
C19   C21   A    
C3    C5    A    
C10   C13   D    
C54   O10   S    
C30   H10   S    
C52   H63   S    
C33   H18   S    
C7    O16   A    
C44   H44   S    
C28   O2    S    
C56   C59   A    
C37   H27   S    
C32   C33   S    
C48   O8    S    
C51   C52   S    
C27   H4    S    
Cu1   O14   S    
C32   H17   S    
C30   H13   S    
C52   H62   S    
C31   H14   S    
C8    C11   S    
C47   H49   S    
C14   O5    S    
C17   C19   A    
Cu2   O12   S    
C14   C16   A    
C35   O4    S    
C9    O18   S    
C43   H41   S    
C27   H5    S    
C53   H64   S    
C32   H16   S    
C7    C13   S    
C49   H54   S    
C13   H12   S    
C16   C18   A    
C55   H70   S    
C46   H47   S    
C51   H60   S    
C22   C23   A    
C57   H73   S    
C46   H48   S    
C40   H33   S    
C51   O9    S    
C26   H80   S    
C8    O15   A    
C33   H19   S    
C15   O6    S    
C29   H9    S    
