data_mof_unit_43445.cif
_audit_creation_date              2012-12-10T19:07:35-0500
_audit_creation_method            fapswitch 2.2
_symmetry_space_group_name_H-M    P1
_symmetry_Int_Tables_number       1
_space_group_crystal_system       triclinic
_cell_length_a                    10.839691
_cell_length_b                    10.908966
_cell_length_c                    9.558707
_cell_angle_alpha                 91.121026
_cell_angle_beta                  90.693161
_cell_angle_gamma                 90.853238
_cell_volume                      1129.88696472

loop_
_atom_site_label
_atom_site_type_symbol
_atom_type_description
_atom_site_fract_x
_atom_site_fract_y
_atom_site_fract_z
_atom_type_partial_charge
C1    C     C_R   0.496650 0.262951 0.498492 0.870202
C2    C     C_R   0.938577 0.489716 0.625034 -0.091962
C3    C     C_3   0.937847 0.580470 0.744095 0.427632
C4    C     C_3   0.077585 0.576101 0.745121 0.506049
C5    C     C_R   0.502791 0.066411 0.617064 -0.085595
C6    C     C_R   0.488103 0.130768 0.495242 -0.282956
C7    C     C_R   0.463140 0.061989 0.371052 0.555041
C8    C     C_R   0.461075 0.933000 0.373323 0.531421
C9    C     C_R   0.486427 0.870511 0.499395 -0.311960
C10   C     C_R   0.502378 0.942864 0.619812 -0.000522
C11   C     C_3   0.536180 0.944136 0.771627 0.529766
C12   C     C_R   0.262448 0.496959 0.499247 0.851158
C13   C     C_3   0.536605 0.084444 0.766857 -0.368322
C14   C     C_R   0.599925 0.543595 0.076479 0.133646
C15   C     C_R   0.408851 0.442121 0.071412 0.725540
C16   C     C_R   0.408648 0.442738 0.922750 -0.130513
C17   C     C_R   0.599715 0.544105 0.928985 0.203906
C18   C     C_3   0.647465 0.672451 0.930731 -0.443660
C19   C     C_3   0.652605 0.669695 0.088630 -0.425724
C20   C     C_R   0.496261 0.737534 0.500676 0.908018
C21   C     C_R   0.737739 0.498295 0.500370 0.807722
C22   C     C_R   0.065668 0.487716 0.624292 -0.124612
C23   C     C_R   0.129355 0.484632 0.498382 -0.005692
C24   C     C_R   0.062459 0.466208 0.372708 -0.140965
C25   C     C_R   0.933706 0.467082 0.373504 -0.197230
C26   C     C_R   0.870922 0.486910 0.499914 0.010045
Cu1   Cu    Cu3+1 0.499990 0.499980 0.640670 1.004357
Cu2   Cu    Cu3+1 0.500010 0.500020 0.359330 1.065149
H1    H     H_    0.461759 0.128092 0.827797 0.247137
H2    H     H_    0.333835 0.397784 0.865015 0.159822
H3    H     H_    0.575762 0.733274 0.891372 0.265828
H4    H     H_    0.118163 0.534846 0.840272 0.021351
N1    N     N_R   0.500790 0.500930 0.147930 -0.231205
N2    N     N_R   0.500790 0.500890 0.852020 -0.212908
O1    O     O_R   0.500000 0.319640 0.618810 -0.601578
O2    O     O_R   0.500010 0.319680 0.381230 -0.508654
O3    O     O_R   0.319650 0.499970 0.618810 -0.580403
O4    O     O_R   0.319660 0.500010 0.381230 -0.535166
O5    O     O_R   0.499990 0.680320 0.618770 -0.552857
O6    O     O_R   0.500000 0.680360 0.381190 -0.545347
O7    O     O_R   0.680340 0.499990 0.618770 -0.580721
O8    O     O_R   0.680350 0.500030 0.381190 -0.609620
H5    H     H_    0.108948 0.456953 0.273549 0.208139
H6    H     H_    0.628905 0.906573 0.793437 0.062024
H7    H     H_    0.629946 0.126707 0.781407 0.152096
F1    F     F_    0.316255 0.382821 0.137175 -0.638993
H8    H     H_    0.739028 0.683247 0.883223 0.240112
H9    H     H_    0.748228 0.670569 0.132059 0.196763
H10   H     H_    0.589623 0.736059 0.138557 0.287052
H11   H     H_    0.884119 0.457864 0.274704 0.159970
F2    F     F_    0.894116 0.693141 0.702945 -0.616582
H12   H     H_    0.895153 0.543575 0.839898 -0.003307
F3    F     F_    0.132607 0.686177 0.708338 -0.557785
F4    F     F_    0.440671 0.118087 0.247944 -0.573990
F5    F     F_    0.433382 0.870847 0.252375 -0.594338
F6    F     F_    0.440680 0.899434 0.851997 -0.576778

loop_
_geom_bond_atom_site_label_1
_geom_bond_atom_site_label_2
_ccdc_geom_bond_type
C2    C22   A    
C3    H12   S    
C6    C7    A    
C18   H3    S    
C4    F3    S    
C4    C22   S    
C9    C10   A    
C19   H10   S    
C9    C20   S    
C5    C13   S    
C12   C23   S    
Cu2   O4    S    
C23   C24   A    
Cu1   O1    S    
C18   H8    S    
C14   N1    A    
C17   C18   S    
C5    C10   A    
C2    C26   A    
C13   H7    S    
C11   C13   S    
C14   C17   A    
C1    O1    A    
C4    H4    S    
Cu1   O3    S    
C21   O7    A    
C14   C19   S    
C8    F5    S    
Cu2   O8    S    
C21   C26   S    
Cu2   N1    S    
C2    C3    S    
C7    F4    S    
Cu1   N2    S    
C12   O4    A    
C5    C6    A    
C20   O6    A    
C10   C11   S    
Cu2   O6    S    
C16   H2    S    
C3    C4    S    
C11   H6    S    
C7    C8    A    
C24   C25   A    
Cu2   O2    S    
C18   C19   S    
C17   N2    A    
C13   H1    S    
C12   O3    A    
C24   H5    S    
C20   O5    A    
Cu1   O7    S    
C22   C23   A    
C3    F2    S    
C21   O8    A    
C1    C6    S    
C15   F1    S    
C16   N2    A    
C25   C26   A    
C19   H9    S    
C25   H11   S    
C15   N1    A    
C11   F6    S    
C15   C16   A    
C1    O2    A    
Cu1   O5    S    
C8    C9    A    
Cu1   Cu2   S    
