data_mof_unit_56871.cif
_audit_creation_date              2012-12-11T15:55:46-0500
_audit_creation_method            fapswitch 2.2
_symmetry_space_group_name_H-M    P1
_symmetry_Int_Tables_number       1
_space_group_crystal_system       triclinic
_cell_length_a                    6.97862
_cell_length_b                    14.510604
_cell_length_c                    16.088559
_cell_angle_alpha                 90.024172
_cell_angle_beta                  89.77537
_cell_angle_gamma                 90.218583
_cell_volume                      1629.16718704

loop_
_atom_site_label
_atom_site_type_symbol
_atom_type_description
_atom_site_fract_x
_atom_site_fract_y
_atom_site_fract_z
_atom_type_partial_charge
O1    O     O_R   0.505680 0.583900 0.413320 -0.542000
O2    O     O_R   0.176010 0.594950 0.586080 -0.507793
O3    O     O_R   0.005680 0.416100 0.586680 -0.530948
C1    C     C_R   0.344446 0.616692 0.615288 0.709765
O4    O     O_R   0.175960 0.594930 0.413930 -0.516410
O5    O     O_R   0.005640 0.416080 0.413300 -0.542208
C2    C     C_R   0.345211 0.617517 0.385587 0.739728
O6    O     O_R   0.505720 0.583920 0.586700 -0.545716
O7    O     O_3   0.339190 0.441320 0.500000 -0.389273
V1    V     V_3+5 0.064350 0.510890 0.500000 1.497617
O8    O     O_R   0.675920 0.405050 0.413920 -0.547330
C3    C     C_R   0.844799 0.382693 0.385413 0.695633
O9    O     O_R   0.675960 0.405070 0.586070 -0.560783
C4    C     C_R   0.844261 0.382136 0.614041 0.707038
V2    V     V_3+5 0.564340 0.489110 0.500000 1.400755
O10   O     O_3   0.839370 0.558680 0.500000 -0.351928
C5    C     C_R   0.025813 0.298044 0.723520 -0.036339
C6    C     C_R   0.853552 0.314494 0.683132 -0.043443
C7    C     C_R   0.698976 0.257562 0.704488 -0.168581
H1    H     H_    0.573703 0.259313 0.667495 0.110403
C8    C     C_R   0.713064 0.191805 0.768316 -0.147820
H2    H     H_    0.597410 0.143948 0.778899 0.152106
C9    C     C_R   0.881422 0.182352 0.814448 -0.049548
C10   C     C_R   0.040146 0.234591 0.788923 -0.027955
C11   C     C_3   0.224665 0.199127 0.754486 -0.020392
C12   C     C_3   0.202167 0.265287 0.681569 0.333629
H3    H     H_    0.339246 0.220676 0.797653 0.061244
H4    H     H_    0.303626 0.324340 0.677071 0.012976
C13   C     C_R   0.031014 0.191043 0.245947 0.144949
C14   C     C_R   0.017922 0.257088 0.309386 -0.154730
H5    H     H_    0.133517 0.262836 0.353851 0.138885
C15   C     C_R   0.855624 0.313231 0.317702 -0.080159
C16   C     C_R   0.705155 0.302426 0.260861 -0.138168
H6    H     H_    0.578023 0.344720 0.265688 0.125383
C17   C     C_R   0.719055 0.238543 0.195806 -0.147345
H7    H     H_    0.602026 0.233648 0.151986 0.146573
C18   C     C_R   0.881862 0.182276 0.186704 -0.080204
C19   C     C_R   0.189089 0.707077 0.732659 0.477312
C20   C     C_R   0.202416 0.772524 0.796724 -0.207873
H8    H     H_    0.073526 0.790460 0.830718 0.137799
C21   C     C_R   0.378836 0.813349 0.817463 -0.101537
C22   C     C_R   0.542533 0.788696 0.771663 -0.122719
H9    H     H_    0.680565 0.819301 0.785520 0.150180
C23   C     C_R   0.529559 0.725693 0.706031 -0.209848
H10   H     H_    0.657851 0.710129 0.670873 0.198055
C24   C     C_R   0.353496 0.684274 0.685105 -0.160765
C25   C     C_R   0.225584 0.760219 0.311726 0.452644
C26   C     C_R   0.237468 0.822497 0.244946 -0.310313
H11   H     H_    0.135326 0.878369 0.241745 0.169516
C27   C     C_R   0.380339 0.814253 0.183664 -0.189235
C28   C     C_R   0.514983 0.742250 0.190377 0.457228
C29   C     C_R   0.500753 0.678795 0.256460 -0.280779
H12   H     H_    0.599580 0.621467 0.258783 0.145748
C30   C     C_R   0.356715 0.686597 0.317309 -0.188723
O11   O     O_R   0.229200 0.915950 0.913350 -0.536464
O12   O     O_R   0.559090 0.905000 0.086080 -0.521106
O13   O     O_R   0.729280 0.083880 0.086680 -0.536142
C31   C     C_R   0.390030 0.882356 0.114475 0.782661
O14   O     O_R   0.558920 0.904980 0.913920 -0.544404
O15   O     O_R   0.729110 0.083860 0.913300 -0.546766
C32   C     C_R   0.390000 0.882407 0.885570 0.738664
O16   O     O_R   0.229360 0.915970 0.086730 -0.547590
O17   O     O_3   0.395680 0.058580 0.000030 -0.365121
V3    V     V_3+5 0.670570 0.989070 0.999990 1.467790
O18   O     O_R   0.058820 0.094950 0.913870 -0.529616
C33   C     C_R   0.890889 0.115466 0.884066 0.715650
O19   O     O_R   0.058990 0.094970 0.086020 -0.526713
C34   C     C_R   0.890796 0.115222 0.116426 0.713637
V4    V     V_3+5 0.170560 0.010930 0.999930 1.465770
O20   O     O_3   0.895590 0.941310 0.999960 -0.375912
O21   O     O_3   0.012219 0.669241 0.714409 -0.554755
C35   C     C_3   0.978166 0.594694 0.768743 -0.262601
H13   H     H_    0.966183 0.618440 0.834327 0.132751
H14   H     H_    0.091320 0.541134 0.762742 0.114741
H15   H     H_    0.839743 0.561999 0.751776 0.154447
O22   O     O_3   0.080282 0.769918 0.369624 -0.553354
C36   C     C_3   0.142642 0.831728 0.431585 -0.178047
H16   H     H_    0.170247 0.901569 0.405420 0.154821
H17   H     H_    0.272595 0.805584 0.463749 0.114809
H18   H     H_    0.027596 0.838364 0.478965 0.171499
O23   O     O_3   0.647166 0.728127 0.127359 -0.562438
C37   C     C_3   0.831927 0.748251 0.157567 -0.167972
H19   H     H_    0.838597 0.818525 0.185257 0.141231
H20   H     H_    0.934361 0.746765 0.104680 0.149669
H21   H     H_    0.879322 0.695767 0.203333 0.135608
I1    I     I_    0.223315 0.053785 0.722614 -0.405354
O24   O     O_3   0.153016 0.221211 0.605714 -0.524445
C38   C     C_3   0.315322 0.210681 0.554356 -0.149967
H22   H     H_    0.415532 0.159190 0.580582 0.153720
H23   H     H_    0.389889 0.277128 0.543139 0.135190
H24   H     H_    0.267591 0.184259 0.493107 0.161250
I2    I     I_    0.273503 0.102888 0.251395 -0.479439

loop_
_geom_bond_atom_site_label_1
_geom_bond_atom_site_label_2
_ccdc_geom_bond_type
C31   O16   A    
O24   C38   S    
C21   C22   A    
C4    C6    S    
C17   H7    S    
C21   C32   S    
C1    O6    A    
O23   C37   S    
C20   C21   A    
C1    C24   S    
C36   H16   S    
C23   H10   S    
O14   V3    S    
C5    C12   S    
C9    C33   S    
C7    C8    A    
C25   O22   S    
O5    C3    A    
C19   C20   A    
V2    O10   S    
C18   C34   S    
C6    C7    A    
O8    V2    S    
O17   V4    S    
C23   C24   A    
C12   O24   S    
C9    C10   A    
O12   V3    S    
O1    V2    S    
V3    O20   S    
O7    V1    S    
C28   O23   S    
C26   C27   A    
O15   C33   A    
O9    C4    A    
C3    C15   S    
C22   C23   A    
C35   H15   S    
C29   C30   A    
C16   H6    S    
C36   H17   S    
O14   C32   A    
C5    C10   A    
C28   C29   A    
C27   C31   S    
C10   C11   S    
C35   H14   S    
C20   H8    S    
O4    C2    A    
C27   C28   A    
C11   C12   S    
O19   C34   A    
O16   V4    S    
O19   V4    S    
O2    C1    A    
C13   C14   A    
C25   C26   A    
C38   H24   S    
C5    C6    A    
O22   C36   S    
O11   V4    S    
O3    C4    A    
C25   C30   A    
C26   H11   S    
C38   H23   S    
O18   C33   A    
O6    V2    S    
C37   H20   S    
C8    C9    A    
C22   H9    S    
O13   C34   A    
O2    V1    S    
C29   H12   S    
O13   V3    S    
C36   H18   S    
C19   O21   S    
C17   C18   A    
O1    C2    A    
C35   H13   S    
O5    V1    S    
O8    C3    A    
C11   H3    S    
C37   H21   S    
C12   H4    S    
O15   V3    S    
C15   C16   A    
C7    H1    S    
O9    V2    S    
O7    V2    S    
O4    V1    S    
O3    V1    S    
V1    O10   S    
C14   C15   A    
C14   H5    S    
O18   V4    S    
O11   C32   A    
C11   I1    S    
C16   C17   A    
O12   C31   A    
V4    O20   S    
C19   C24   A    
O17   V3    S    
O21   C35   S    
C38   H22   S    
C37   H19   S    
C13   C18   A    
C2    C30   S    
C8    H2    S    
C13   I2    S    
