data_mof_unit_44857.cif
_audit_creation_date              2012-12-10T20:25:42-0500
_audit_creation_method            fapswitch 2.2
_symmetry_space_group_name_H-M    P1
_symmetry_Int_Tables_number       1
_space_group_crystal_system       triclinic
_cell_length_a                    8.58467
_cell_length_b                    10.651925
_cell_length_c                    9.893364
_cell_angle_alpha                 89.355099
_cell_angle_beta                  98.978012
_cell_angle_gamma                 90.623027
_cell_volume                      893.502908125

loop_
_atom_site_label
_atom_site_type_symbol
_atom_type_description
_atom_site_fract_x
_atom_site_fract_y
_atom_site_fract_z
_atom_type_partial_charge
C1    C     C_R   0.506163 0.259743 0.501504 0.881753
C2    C     C_R   0.601561 0.938604 0.396178 -0.043343
C3    C     C_R   0.553904 0.870646 0.507187 -0.187237
C4    C     C_R   0.541070 0.933936 0.627273 0.104363
C5    C     C_3   0.425581 0.920112 0.725044 -0.428979
C6    C     C_3   0.422584 0.062113 0.727981 -0.480606
C7    C     C_R   0.366671 0.469063 0.053450 0.245502
C8    C     C_R   0.624984 0.545438 0.089441 -0.100600
C9    C     C_R   0.623983 0.549711 0.945511 -0.018406
C10   C     C_R   0.366452 0.469251 0.911413 0.216499
C11   C     C_3   0.275006 0.349462 0.895065 -0.498596
C12   C     C_R   0.201167 0.500315 0.463952 0.967719
C13   C     C_3   0.276559 0.348583 0.048972 -0.479561
C14   C     C_R   0.514321 0.739606 0.501180 0.900091
C15   C     C_R   0.798834 0.500809 0.536004 0.973548
C16   C     C_2   0.035691 0.500337 0.444759 -0.345082
C17   C     C_2   0.964254 0.503003 0.555025 -0.374832
C18   C     C_R   0.536688 0.061616 0.628443 0.146008
C19   C     C_R   0.539046 0.128718 0.507522 -0.125661
C20   C     C_R   0.588106 0.069008 0.395717 -0.270620
H1    H     H_    0.973186 0.497198 0.340344 0.191507
H2    H     H_    0.155227 0.362063 0.835634 0.210441
H3    H     H_    0.343645 0.272825 0.859811 0.211290
H4    H     H_    0.157651 0.360820 0.077891 0.220441
H5    H     H_    0.346733 0.270752 0.103081 0.218714
H6    H     H_    0.026707 0.506970 0.659320 0.184137
H7    H     H_    0.611990 0.122952 0.307523 0.201233
H8    H     H_    0.311464 0.877593 0.677494 0.212459
H9    H     H_    0.479459 0.877107 0.824066 0.211035
H10   H     H_    0.306304 0.102315 0.684254 0.200998
H11   H     H_    0.477926 0.099409 0.828702 0.217650
H12   H     H_    0.725337 0.581310 0.158332 0.217590
N1    N     N_R   0.498950 0.499140 0.142680 -0.135981
N2    N     N_R   0.498950 0.499180 0.857030 -0.157320
O1    O     O_R   0.500020 0.316790 0.614690 -0.616736
O2    O     O_R   0.500000 0.316760 0.385350 -0.627310
O3    O     O_R   0.271760 0.500010 0.587850 -0.614131
O4    O     O_R   0.271740 0.499970 0.358500 -0.611617
O5    O     O_R   0.500000 0.683240 0.614650 -0.649803
O6    O     O_R   0.499980 0.683210 0.385310 -0.588909
O7    O     O_R   0.728260 0.500030 0.641500 -0.650673
O8    O     O_R   0.728240 0.499990 0.412150 -0.604367
Zn1   Zn    Zn3+2 0.500010 0.500020 0.653130 0.936122
Zn2   Zn    Zn3+2 0.499990 0.499980 0.346870 0.978807
C21   C     C_2   0.754343 0.616873 0.894288 0.416142
H13   H     H_    0.733352 0.668719 0.798823 0.116332
O9    O     O_2   0.886550 0.619042 0.961154 -0.597916
C22   C     C_2   0.663721 0.879033 0.281100 0.947977
O10   O     O_2   0.753950 0.790517 0.303054 -0.634488
O11   O     O_R   0.624911 0.927770 0.148404 -0.822042
H14   H     H_    0.675508 0.879686 0.078995 0.336459

loop_
_geom_bond_atom_site_label_1
_geom_bond_atom_site_label_2
_ccdc_geom_bond_type
O3    Zn1   S    
C7    C10   A    
O5    Zn1   S    
O4    Zn2   S    
C16   H1    S    
C20   H7    S    
C5    H8    S    
C11   C13   S    
C11   H2    S    
C19   C20   A    
C7    C13   S    
C4    C18   A    
C22   O11   S    
C2    C3    A    
C10   N2    A    
C21   H13   S    
C9    C21   S    
O7    Zn1   S    
C1    O1    A    
C5    C6    S    
C3    C14   S    
O8    Zn2   S    
C17   H6    S    
C15   O8    A    
C11   H3    S    
C22   O10   D    
C6    H10   S    
O11   H14   S    
C5    H9    S    
C8    N1    A    
C21   O9    D    
C12   O4    A    
C9    N2    A    
C6    C18   S    
O2    Zn2   S    
C1    C19   S    
C10   C11   S    
C7    N1    A    
C14   O6    A    
C3    C4    A    
C8    H12   S    
C16   C17   D    
O6    Zn2   S    
O1    Zn1   S    
C15   O7    A    
C18   C19   A    
C12   O3    A    
C15   C17   S    
C8    C9    A    
C6    H11   S    
C2    C22   S    
C14   O5    A    
C1    O2    A    
N1    Zn2   S    
C2    C20   A    
N2    Zn1   S    
C12   C16   S    
C13   H4    S    
C4    C5    S    
C13   H5    S    
