data_mof_unit_65722.cif
_audit_creation_date              2012-12-10T19:30:58-0500
_audit_creation_method            fapswitch 2.2
_symmetry_space_group_name_H-M    P1
_symmetry_Int_Tables_number       1
_space_group_crystal_system       triclinic
_cell_length_a                    17.726562
_cell_length_b                    16.423912
_cell_length_c                    23.553024
_cell_angle_alpha                 89.999904
_cell_angle_beta                  90.224435
_cell_angle_gamma                 90.0
_cell_volume                      6857.16288961

loop_
_atom_site_label
_atom_site_type_symbol
_atom_type_description
_atom_site_fract_x
_atom_site_fract_y
_atom_site_fract_z
_atom_type_partial_charge
C1    C     C_R   0.355199 0.500004 0.499952 0.798257
C2    C     C_R   0.522068 0.428370 0.700521 -0.226271
C3    C     C_R   0.477468 0.424759 0.240412 -0.100172
C4    C     C_R   0.522536 0.424760 0.759588 -0.100169
C5    C     C_R   0.500657 0.491981 0.208599 0.343494
C6    C     C_R   0.499340 0.491980 0.791401 0.343492
C7    C     C_R   0.846369 0.573863 0.499694 -0.148135
C8    C     C_R   0.153594 0.426244 0.499483 -0.148713
C9    C     C_R   0.153631 0.573863 0.500307 -0.148135
C10   C     C_R   0.846406 0.426244 0.500517 -0.148713
C11   C     C_R   0.767728 0.573943 0.499706 -0.183652
C12   C     C_R   0.644800 0.500004 0.500048 0.798258
C13   C     C_R   0.232235 0.426122 0.499473 -0.187754
C14   C     C_R   0.232272 0.573943 0.500294 -0.183651
C15   C     C_R   0.767765 0.426122 0.500527 -0.187755
C16   C     C_R   0.727739 0.500021 0.500096 -0.038949
C17   C     C_R   0.272260 0.500021 0.499904 -0.038949
C18   C     C_R   0.885596 0.500064 0.500085 0.146297
C19   C     C_R   0.114403 0.500064 0.499915 0.146297
C20   C     C_R   0.500755 0.500060 0.390634 0.807631
C21   C     C_R   0.499245 0.500060 0.609365 0.807631
C22   C     C_1   0.966176 0.500080 0.500027 -0.055055
C23   C     C_R   0.524302 0.563062 0.236112 -0.141570
C24   C     C_1   0.033824 0.500080 0.499973 -0.055055
C25   C     C_R   0.547444 0.828910 0.536647 -0.257110
C26   C     C_R   0.452010 0.171076 0.463757 -0.268380
C27   C     C_R   0.452556 0.828910 0.463353 -0.257107
C28   C     C_R   0.547990 0.171076 0.536243 -0.268381
C29   C     C_R   0.546629 0.743030 0.535977 0.103909
C30   C     C_R   0.452859 0.256963 0.464400 0.078430
C31   C     C_R   0.453371 0.743031 0.464023 0.103914
C32   C     C_R   0.547141 0.256963 0.535600 0.078432
C33   C     C_R   0.500000 0.873056 0.500000 0.142063
C34   C     C_R   0.475689 0.563059 0.763887 -0.141570
C35   C     C_R   0.500000 0.126927 0.500000 0.146127
C36   C     C_1   0.500000 0.962683 0.500000 -0.030158
C37   C     C_1   0.500000 0.037298 0.500000 -0.033681
C38   C     C_R   0.567073 0.487123 0.880686 0.534392
C39   C     C_R   0.432924 0.487121 0.119314 0.534392
C40   C     C_R   0.432225 0.487212 0.880534 0.535932
C41   C     C_R   0.567772 0.487216 0.119466 0.535933
C42   C     C_R   0.430991 0.485959 0.940072 -0.016840
C43   C     C_R   0.569006 0.485962 0.059928 -0.016841
C44   C     C_R   0.499912 0.485591 0.970040 -0.017524
C45   C     C_R   0.524927 0.567574 0.295394 -0.062484
C46   C     C_R   0.500085 0.485591 0.029959 -0.017525
C47   C     C_R   0.568658 0.485775 0.940235 -0.015858
C48   C     C_R   0.431339 0.485772 0.059765 -0.015858
C49   C     C_R   0.362758 0.485525 0.970214 -0.161285
C50   C     C_R   0.637239 0.485532 0.029786 -0.161284
C51   C     C_R   0.362930 0.485420 0.029448 -0.161877
C52   C     C_R   0.637067 0.485426 0.970551 -0.161878
C53   C     C_1   0.552059 0.641871 0.321183 0.269456
C54   C     C_1   0.447926 0.641866 0.678815 0.269455
C55   C     C_R   0.475065 0.567572 0.704605 -0.062487
C56   C     C_R   0.501292 0.499495 0.327858 -0.091011
C57   C     C_R   0.498707 0.499495 0.672142 -0.091010
C58   C     C_R   0.477937 0.428369 0.299479 -0.226272
Cu1   Cu    Cu3+1 0.500000 0.580420 0.500000 0.963803
Cu2   Cu    Cu3+1 0.500000 0.419580 0.500000 0.944646
H1    H     H_    0.309026 0.485643 0.948164 0.189736
H2    H     H_    0.457613 0.614779 0.789012 0.144563
H3    H     H_    0.459415 0.375389 0.323009 0.158148
H4    H     H_    0.540594 0.375392 0.676991 0.158145
H5    H     H_    0.459268 0.369557 0.219274 0.143954
H6    H     H_    0.540739 0.369559 0.780726 0.143954
H7    H     H_    0.876546 0.631241 0.499367 0.134959
H8    H     H_    0.123389 0.368882 0.499163 0.134148
H9    H     H_    0.123454 0.631241 0.500633 0.134960
H10   H     H_    0.876611 0.368882 0.500837 0.134148
H11   H     H_    0.738343 0.631760 0.499388 0.154519
H12   H     H_    0.690971 0.485652 0.051836 0.189736
H13   H     H_    0.261592 0.368292 0.499123 0.152134
H14   H     H_    0.261657 0.631760 0.500612 0.154519
H15   H     H_    0.738408 0.368292 0.500876 0.152134
H16   H     H_    0.584922 0.860530 0.565612 0.137781
H17   H     H_    0.414091 0.139452 0.435120 0.137526
H18   H     H_    0.415078 0.860531 0.434388 0.137781
H19   H     H_    0.585909 0.139452 0.564880 0.137526
H20   H     H_    0.583490 0.709834 0.564436 0.119402
H21   H     H_    0.415578 0.290157 0.436246 0.115772
H22   H     H_    0.416510 0.709834 0.435564 0.119401
H23   H     H_    0.584422 0.290157 0.563753 0.115772
H24   H     H_    0.309327 0.485460 0.051360 0.189382
H25   H     H_    0.690670 0.485469 0.948639 0.189382
H26   H     H_    0.542373 0.614783 0.210987 0.144560
N1    N     N_R   0.499563 0.488206 0.852214 -0.466192
N2    N     N_R   0.500434 0.488206 0.147786 -0.466193
N3    N     N_R   0.500000 0.701220 0.500000 -0.168764
N4    N     N_R   0.500000 0.298780 0.500000 -0.166684
N5    N     N_1   0.573833 0.701441 0.341767 -0.272973
N6    N     N_1   0.426147 0.701433 0.658230 -0.272969
O1    O     O_R   0.391260 0.567930 0.500000 -0.585738
O2    O     O_2   0.367625 0.488327 0.148563 -0.538439
O3    O     O_2   0.366748 0.487243 0.851108 -0.534800
O4    O     O_2   0.633249 0.487250 0.148892 -0.534799
O5    O     O_R   0.608740 0.432070 0.500000 -0.587304
O6    O     O_R   0.608740 0.567930 0.500000 -0.585738
O7    O     O_R   0.391260 0.432070 0.500000 -0.587304
O8    O     O_R   0.499980 0.567930 0.417880 -0.576433
O9    O     O_R   0.500020 0.432070 0.582120 -0.583981
O10   O     O_R   0.500020 0.567930 0.582120 -0.576433
O11   O     O_R   0.499980 0.432070 0.417880 -0.583982
O12   O     O_2   0.632371 0.488333 0.851437 -0.538440

loop_
_geom_bond_atom_site_label_1
_geom_bond_atom_site_label_2
_ccdc_geom_bond_type
C15   H15   S    
C8    C13   A    
C23   C45   A    
C2    C4    A    
C30   N4    A    
Cu2   O7    S    
C1    O7    A    
C29   N3    A    
C2    C57   A    
C20   O11   A    
C27   C33   A    
C21   C57   S    
C31   H22   S    
C14   H14   S    
C40   N1    A    
C36   C37   T    
C35   C37   S    
C9    H9    S    
C10   C15   A    
C11   H11   S    
C41   O4    S    
C15   C16   A    
C34   H2    S    
C33   C36   S    
Cu1   N3    S    
C32   H23   S    
C28   H19   S    
C50   H12   S    
C38   O12   S    
C5    N2    S    
C9    C19   A    
C48   C51   A    
C32   N4    A    
C12   C16   S    
C28   C35   A    
C44   C46   A    
C49   C51   A    
C23   H26   S    
C5    C23   A    
C53   N5    T    
C50   C52   A    
Cu2   O11   S    
C12   O6    A    
C44   C47   A    
C20   C56   S    
C21   O9    A    
C27   H18   S    
C40   C42   A    
C45   C53   S    
C34   C55   A    
Cu1   O8    S    
C41   C43   A    
C14   C17   A    
C3    H5    S    
C42   C44   A    
C39   N2    A    
C2    H4    S    
C25   C29   A    
C46   C48   A    
C8    C19   A    
C49   H1    S    
C27   C31   A    
C26   H17   S    
C28   C32   A    
C45   C56   A    
C4    C6    A    
Cu2   O5    S    
C31   N3    A    
C6    N1    S    
C6    C34   A    
C7    C11   A    
C9    C14   A    
C39   O2    S    
C54   N6    T    
C11   C16   A    
C20   O8    A    
C7    C18   A    
C12   O5    A    
C38   C47   A    
C21   O10   A    
C10   H10   S    
C13   H13   S    
C8    H8    S    
C55   C57   A    
C22   C24   T    
C40   O3    S    
Cu2   O9    S    
C58   H3    S    
C41   N2    A    
C54   C55   S    
C52   H25   S    
C18   C22   S    
Cu1   O10   S    
C3    C5    A    
C43   C50   A    
C26   C30   A    
C47   C52   A    
Cu2   N4    S    
C1    C17   S    
C13   C17   A    
C38   N1    A    
C25   H16   S    
C30   H21   S    
C19   C24   S    
C4    H6    S    
C29   H20   S    
C10   C18   A    
C56   C58   A    
C43   C46   A    
C42   C49   A    
C7    H7    S    
C3    C58   A    
C26   C35   A    
Cu1   Cu2   S    
C1    O1    A    
Cu1   O6    S    
Cu1   O1    S    
C51   H24   S    
C25   C33   A    
C39   C48   A    
