data_mof_unit_13633.cif
_audit_creation_date              2013-03-05T15:46:52-0500
_audit_creation_method            fapswitch 2.2
_symmetry_space_group_name_H-M    P1
_symmetry_Int_Tables_number       1
_space_group_crystal_system       triclinic
_cell_length_a                    15.090781
_cell_length_b                    15.200248
_cell_length_c                    14.884772
_cell_angle_alpha                 108.62929
_cell_angle_beta                  109.312526
_cell_angle_gamma                 110.472365
_cell_volume                      2627.80776447

loop_
_atom_site_label
_atom_site_type_symbol
_atom_site_description
_atom_site_fract_x
_atom_site_fract_y
_atom_site_fract_z
_atom_type_partial_charge
C1    C     C_R   0.195703 0.991327 0.902228 0.188463
C2    C     C_R   0.765902 0.952343 0.037781 0.229048
N1    N     N_R   0.293810 0.002730 0.945950 -0.057518
N2    N     N_R   0.706190 0.997270 0.054050 -0.060522
C3    C     C_R   0.800967 0.206890 0.300864 0.163344
C4    C     C_R   0.241018 0.775426 0.683983 0.210160
N3    N     N_R   0.706160 0.152130 0.208910 -0.058188
N4    N     N_R   0.293840 0.847870 0.791090 -0.056894
C5    C     C_R   0.407725 0.971838 0.221850 -0.124881
C6    C     C_R   0.591250 0.096262 0.791354 -0.153239
H1    H     H_    0.323169 0.937845 0.199814 0.102995
H2    H     H_    0.674886 0.155689 0.823156 0.090536
N5    N     N_R   0.443140 0.945920 0.152090 -0.048320
N6    N     N_R   0.556860 0.054080 0.847910 -0.042385
C7    C     C_R   0.590174 0.310556 0.025345 0.181642
C8    C     C_R   0.409863 0.705191 0.010754 0.186762
N7    N     N_R   0.556830 0.208940 0.002760 -0.064458
N8    N     N_R   0.443170 0.791060 0.997240 -0.058294
C9    C     C_R   0.590131 0.065592 0.313642 -0.092994
C10   C     C_R   0.410877 0.009895 0.703728 -0.080102
H3    H     H_    0.673540 0.120785 0.377243 0.124560
H4    H     H_    0.331715 0.999448 0.661408 0.145888
N9    N     N_R   0.556790 0.002750 0.208910 -0.038782
N10   N     N_R   0.443210 0.997250 0.791090 -0.041084
C11   C     C_R   0.407227 0.220091 0.949385 -0.128733
C12   C     C_R   0.590698 0.792251 0.094304 -0.085007
H5    H     H_    0.323385 0.199610 0.916152 0.168647
H6    H     H_    0.673122 0.820032 0.151135 0.168063
N11   N     N_R   0.443180 0.152110 0.945950 -0.053885
N12   N     N_R   0.556820 0.847890 0.054050 -0.051550
C13   C     C_R   0.801590 0.302524 0.214686 -0.128601
C14   C     C_R   0.256868 0.689535 0.780233 -0.157204
H7    H     H_    0.833562 0.362078 0.192638 0.114372
H8    H     H_    0.249654 0.627067 0.801127 0.145274
N13   N     N_R   0.706170 0.208950 0.152090 -0.050790
N14   N     N_R   0.293830 0.791050 0.847910 -0.060628
C15   C     C_R   0.198980 0.908509 0.001450 -0.171777
C16   C     C_R   0.743709 0.027337 0.930907 -0.155392
H9    H     H_    0.173994 0.857697 0.035367 0.108699
H10   H     H_    0.742780 0.051682 0.870620 0.125423
N15   N     N_R   0.293800 0.945910 0.002760 -0.050632
N16   N     N_R   0.706200 0.054090 0.997240 -0.059031
C17   C     C_R   0.136702 0.935760 0.938479 -0.007905
C18   C     C_R   0.786897 0.968681 0.958147 -0.019116
C19   C     C_R   0.860286 0.302401 0.307512 -0.019086
C20   C     C_R   0.221324 0.676387 0.677140 -0.012024
C21   C     C_R   0.498412 0.048811 0.324162 0.028214
C22   C     C_R   0.500991 0.069229 0.700004 0.030160
C23   C     C_R   0.497777 0.319756 0.999876 0.069016
C24   C     C_R   0.500844 0.702000 0.066056 0.023000
Ni1   Ni    Ni4+2 0.369690 0.999990 0.869700 0.258409
Ni2   Ni    Ni4+2 0.630310 0.000010 0.130300 0.264677
Ni3   Ni    Ni4+2 0.369670 0.869670 0.000000 0.206290
Ni4   Ni    Ni4+2 0.630330 0.130330 0.000000 0.202419
H11   H     H_    0.181000 0.114649 0.506373 0.156530
H12   H     H_    0.779372 0.942574 0.546265 0.143026
C25   C     C_R   0.346092 0.235260 0.634180 -0.113301
C26   C     C_R   0.620348 0.812302 0.413176 -0.106974
H13   H     H_    0.379900 0.224220 0.580640 0.145834
H14   H     H_    0.577633 0.836332 0.452629 0.129263
C27   C     C_R   0.414636 0.312869 0.744620 -0.142359
C28   C     C_R   0.561643 0.721287 0.309603 -0.150239
H15   H     H_    0.500420 0.361919 0.774198 0.126623
H16   H     H_    0.474051 0.675114 0.271228 0.118738
C29   C     C_R   0.371164 0.332904 0.813802 0.095065
C30   C     C_R   0.615949 0.689719 0.257065 0.074931
C31   C     C_R   0.257066 0.274709 0.769900 0.215858
C32   C     C_R   0.731221 0.749445 0.311920 0.241850
C33   C     C_R   0.189384 0.194959 0.659637 -0.064771
C34   C     C_R   0.789276 0.840392 0.415832 -0.086851
H17   H     H_    0.101923 0.149943 0.625689 0.172609
H18   H     H_    0.877517 0.886703 0.457869 0.174857
C35   C     C_R   0.233842 0.174966 0.592044 -0.101909
C36   C     C_R   0.734007 0.872085 0.466018 -0.111586
C37   C     C_R   0.454884 0.524477 0.944882 0.185506
C38   C     C_R   0.546402 0.498372 0.126236 0.204274
C39   C     C_R   0.501536 0.605771 0.052652 -0.030199
C40   C     C_R   0.493740 0.415220 0.017947 -0.047452
C41   C     C_R   0.551899 0.596140 0.144260 -0.058751
C42   C     C_R   0.442447 0.425303 0.927153 -0.064325
C43   C     C_R   0.045131 0.455622 0.389282 -0.148644
C44   C     C_R   0.063340 0.500526 0.593697 -0.150691
H19   H     H_    0.037429 0.438513 0.310218 0.115820
H20   H     H_    0.066195 0.518047 0.671335 0.122827
C45   C     C_R   0.136121 0.547902 0.481727 -0.109721
C46   C     C_R   0.973583 0.410086 0.502604 -0.124859
H21   H     H_    0.198414 0.602497 0.473953 0.138746
H22   H     H_    0.909146 0.360505 0.511863 0.135359
C47   C     C_R   0.142095 0.572216 0.583024 0.171963
C48   C     C_R   0.962962 0.388907 0.400284 0.170555
C49   C     C_R   0.596574 0.161462 0.621445 -0.176712
C50   C     C_R   0.398681 0.047218 0.426136 -0.164368
H23   H     H_    0.674344 0.205200 0.695786 0.118863
H24   H     H_    0.320620 0.001222 0.351944 0.127685
C51   C     C_R   0.595813 0.157472 0.526773 -0.157021
C52   C     C_R   0.399502 0.049058 0.519603 -0.191889
H25   H     H_    0.673203 0.198150 0.531219 0.121055
H26   H     H_    0.321976 0.003589 0.512743 0.148002
C53   C     C_R   0.497435 0.090922 0.426649 0.144619
C54   C     C_R   0.499032 0.098865 0.615655 0.130206
C55   C     C_R   0.944357 0.842294 0.899306 0.161213
C56   C     C_R   0.960323 0.046581 0.956409 0.149509
C57   C     C_R   0.858616 0.855220 0.902630 -0.204406
C58   C     C_R   0.048041 0.035288 0.963136 -0.203025
H27   H     H_    0.784993 0.786922 0.882593 0.154782
H28   H     H_    0.123135 0.105537 0.988523 0.153740
C59   C     C_R   0.867417 0.956447 0.933782 0.079437
C60   C     C_R   0.040664 0.935244 0.934018 0.093482
I1    I     I_    0.123294 0.999497 0.758921 -0.462003
I2    I     I_    0.863600 0.922907 0.150169 -0.391963
I3    I     I_    0.182230 0.308493 0.864358 -0.506298
I4    I     I_    0.822654 0.706755 0.243487 -0.374784
I5    I     I_    0.416947 0.552849 0.807258 -0.450721
I6    I     I_    0.607964 0.473070 0.262271 -0.399977
C61   C     C_3   0.929822 0.730530 0.857989 -0.457993
C62   C     C_3   0.921600 0.688275 0.745457 -0.194515
C63   C     C_3   0.898265 0.572479 0.700475 -0.907950
H29   H     H_    0.965103 0.568464 0.756489 0.252527
H30   H     H_    0.819790 0.518421 0.691237 0.264560
H31   H     H_    0.892297 0.543884 0.618962 0.267545
H32   H     H_    0.854591 0.690554 0.687298 0.220460
H33   H     H_    0.999044 0.739558 0.751200 0.221121
H34   H     H_    0.997427 0.730510 0.917350 0.188929
H35   H     H_    0.853938 0.673407 0.850645 0.201249
C64   C     C_3   0.968400 0.151439 0.963201 -0.411025
C65   C     C_3   0.985040 0.230100 0.070703 -0.211392
C66   C     C_3   0.958229 0.314246 0.055462 -0.942234
H36   H     H_    0.008556 0.356718 0.026413 0.279365
H37   H     H_    0.870535 0.274899 0.995021 0.250325
H38   H     H_    0.975094 0.374822 0.133433 0.245194
H39   H     H_    0.933849 0.188418 0.099313 0.216229
H40   H     H_    0.071533 0.271422 0.135544 0.205204
H41   H     H_    0.038675 0.195845 0.954792 0.220388
H42   H     H_    0.898339 0.133539 0.890267 0.187684
I7    I     I_    0.867650 0.134938 0.383638 -0.449393
I8    I     I_    0.152807 0.792569 0.552497 -0.412795
C67   C     C_3   0.699665 0.386530 0.045585 -0.445270
C68   C     C_3   0.691233 0.422346 0.959429 -0.274288
C69   C     C_3   0.803476 0.487249 0.974441 -0.849361
H43   H     H_    0.857351 0.559883 0.056895 0.292262
H44   H     H_    0.841889 0.437064 0.964279 0.250218
H45   H     H_    0.794789 0.513555 0.912032 0.244161
H46   H     H_    0.640543 0.349701 0.876897 0.191709
H47   H     H_    0.653674 0.473442 0.965468 0.227506
H48   H     H_    0.746170 0.457531 0.128711 0.239207
H49   H     H_    0.743596 0.341948 0.038275 0.185147
C70   C     C_3   0.295656 0.638475 0.987647 -0.466338
C71   C     C_3   0.293171 0.632645 0.087552 -0.247657
C72   C     C_3   0.176927 0.583878 0.068260 -0.873642
H50   H     H_    0.143196 0.636122 0.056296 0.251767
H51   H     H_    0.123827 0.502225 0.994950 0.277359
H52   H     H_    0.177093 0.576868 0.140316 0.253137
H53   H     H_    0.325405 0.580485 0.103150 0.218780
H54   H     H_    0.344247 0.714810 0.160310 0.197015
H55   H     H_    0.246970 0.675083 0.961602 0.191869
H56   H     H_    0.257470 0.555466 0.920083 0.228872

loop_
_geom_bond_atom_site_label_1
_geom_bond_atom_site_label_2
_geom_bond_distance
_ccdc_geom_bond_type
C64   H42   1.105110 S    
C26   C28   1.397201 A    
C30   C32   1.413907 A    
C65   C66   1.528979 S    
N7    N11   1.392987 A    
C2    N2    1.343923 A    
C70   C71   1.529495 S    
C38   C41   1.389850 A    
C56   C64   1.522666 S    
C63   H30   1.111726 S    
C58   H28   1.086146 S    
C72   H50   1.111131 S    
C20   C47   1.431749 S    
C46   C48   1.392158 A    
C23   C40   1.415975 S    
C30   C41   1.488534 S    
C44   C47   1.398124 A    
C62   H33   1.111243 S    
N2    Ni2   1.861155 S    
C8    C70   1.509814 S    
C14   N14   1.319121 A    
C67   H48   1.109453 S    
C9    H3    1.072431 S    
C38   C40   1.405579 A    
N3    Ni2   1.886804 S    
C16   N16   1.317119 A    
C68   H46   1.111081 S    
C72   H51   1.110823 S    
C32   I4    2.120392 S    
C69   H45   1.110592 S    
C46   H22   1.083923 S    
C25   H13   1.080244 S    
C26   H14   1.082515 S    
C61   C62   1.533970 S    
C50   C52   1.378393 A    
C21   C53   1.461062 S    
C62   C63   1.525746 S    
N5    N9    1.392987 A    
C27   H15   1.078763 S    
N4    N14   1.388492 A    
C4    I8    2.124990 S    
N6    N10   1.392987 A    
C33   H17   1.082486 S    
C5    N5    1.331173 A    
C28   H16   1.077785 S    
N14   Ni3   1.861180 S    
N8    Ni3   1.893562 S    
C1    I1    2.117063 S    
C1    C17   1.371208 A    
C2    I2    2.116759 S    
C10   N10   1.331003 A    
C2    C18   1.395882 A    
C29   C31   1.412535 A    
C52   H26   1.080327 S    
C34   C36   1.396067 A    
C38   I6    2.148077 S    
C13   H7    1.071895 S    
C33   C35   1.395875 A    
N8    N12   1.392988 A    
C49   C54   1.401240 A    
C70   H55   1.111371 S    
C37   C42   1.375678 A    
C14   C20   1.366392 A    
C55   C60   1.405675 A    
C45   H21   1.083220 S    
C55   C57   1.388954 A    
C29   C42   1.484971 S    
N13   Ni4   1.861177 S    
C71   H54   1.112255 S    
C43   H19   1.076555 S    
N5    Ni3   1.860668 S    
C39   C41   1.406507 A    
C11   N11   1.319669 A    
C22   C54   1.458157 S    
C61   H34   1.107099 S    
C62   H32   1.112570 S    
C28   C30   1.404507 A    
C67   H49   1.106985 S    
H12   C36   1.082491 S    
C71   C72   1.526565 S    
C6    N6    1.337960 A    
C72   H52   1.110459 S    
C3    N3    1.325514 A    
N1    Ni1   1.861154 S    
C4    N4    1.346644 A    
C44   C46   1.361909 A    
C3    C19   1.363590 A    
C1    N1    1.325368 A    
C14   H8    1.071891 S    
C15   C17   1.367875 A    
C9    N9    1.337699 A    
C66   H37   1.110620 S    
C16   C18   1.358936 A    
C19   C48   1.426954 S    
C49   H23   1.081213 S    
C37   C39   1.404951 A    
C65   H40   1.111606 S    
C50   H24   1.079895 S    
C40   C42   1.404448 A    
C56   C59   1.416101 A    
C57   H27   1.085022 S    
C56   C58   1.368954 A    
C70   H56   1.110340 S    
C5    H1    1.075396 S    
N4    Ni1   1.886804 S    
N15   Ni3   1.893243 S    
C10   C22   1.374650 A    
C6    H2    1.080340 S    
C37   I5    2.161358 S    
C43   C48   1.397695 A    
C31   I3    2.123806 S    
N6    Ni4   1.860671 S    
C10   H4    1.074602 S    
C5    C21   1.387099 A    
C44   H20   1.081969 S    
C6    C22   1.378217 A    
C64   C65   1.534604 S    
C55   C61   1.514933 S    
C13   N13   1.340858 A    
C63   H31   1.110204 S    
C71   H53   1.109878 S    
C66   H36   1.110457 S    
C24   C39   1.415984 S    
C58   C60   1.393315 A    
C26   C36   1.395380 A    
N11   Ni1   1.887228 S    
C18   C59   1.431458 S    
C64   H41   1.112194 S    
C3    I7    2.130143 S    
N12   Ni2   1.887228 S    
N1    N15   1.388373 A    
C45   C47   1.396020 A    
C61   H35   1.112767 S    
C4    C20   1.390692 A    
C25   C35   1.395277 A    
C8    C24   1.374608 A    
C57   C59   1.400241 A    
C69   H43   1.110244 S    
C51   H25   1.080843 S    
C25   C27   1.395239 A    
C11   H5    1.074501 S    
C67   C68   1.530927 S    
C12   H6    1.072123 S    
C12   C24   1.360346 A    
C66   H38   1.103409 S    
C15   H9    1.079306 S    
C68   H47   1.108865 S    
C63   H29   1.111542 S    
N16   Ni4   1.893242 S    
C16   H10   1.072310 S    
C69   H44   1.111047 S    
N9    Ni2   1.860549 S    
N2    N16   1.388373 A    
C65   H39   1.107760 S    
N10   Ni1   1.860551 S    
C52   C54   1.402089 A    
N3    N13   1.388492 A    
C51   C53   1.404005 A    
C17   C60   1.425817 S    
C7    C23   1.388555 A    
C15   N15   1.332854 A    
C11   C23   1.368336 A    
C68   C69   1.527143 S    
C49   C51   1.387009 A    
H11   C35   1.082411 S    
C27   C29   1.403467 A    
C8    N8    1.331321 A    
C13   C19   1.373661 A    
C9    C21   1.388264 A    
C32   C34   1.400488 A    
C34   H18   1.082607 S    
C31   C33   1.400134 A    
C7    N7    1.328411 A    
N7    Ni4   1.893563 S    
C43   C45   1.384276 A    
C50   C53   1.399656 A    
C7    C67   1.506066 S    
C12   N12   1.326354 A    
