data_mof_unit_60477.cif
_audit_creation_date              2012-12-10T17:49:25-0500
_audit_creation_method            fapswitch 2.2
_symmetry_space_group_name_H-M    P1
_symmetry_Int_Tables_number       1
_space_group_crystal_system       triclinic
_cell_length_a                    23.536922
_cell_length_b                    23.536961
_cell_length_c                    46.950512
_cell_angle_alpha                 89.999878
_cell_angle_beta                  89.999841
_cell_angle_gamma                 89.909359
_cell_volume                      26009.9696267

loop_
_atom_site_label
_atom_site_type_symbol
_atom_type_description
_atom_site_fract_x
_atom_site_fract_y
_atom_site_fract_z
_atom_type_partial_charge
C1    C     C_R   0.000032 0.390219 0.500052 0.885004
C2    C     C_R   0.609781 0.999968 0.499947 0.885112
C3    C     C_R   0.999968 0.609781 0.500052 0.885003
C4    C     C_R   0.390219 0.000032 0.499947 0.885114
C5    C     C_R   0.500032 0.890219 0.000052 0.885005
C6    C     C_R   0.109781 0.499968 0.999947 0.885119
C7    C     C_R   0.499968 0.109781 0.000052 0.885003
C8    C     C_R   0.890219 0.500032 0.999947 0.885119
C9    C     C_R   0.999999 0.500002 0.354103 0.267289
C10   C     C_R   0.500000 0.000000 0.354132 0.218191
C11   C     C_R   1.000000 0.500000 0.645824 0.224927
C12   C     C_R   0.499999 0.000000 0.645917 0.262926
C13   C     C_R   0.499999 0.000001 0.854103 0.267310
C14   C     C_R   1.000000 0.500000 0.854132 0.218192
C15   C     C_R   0.500000 0.000000 0.145824 0.224927
C16   C     C_R   1.000000 0.500000 0.145917 0.262905
C17   C     C_1   0.000073 0.329752 0.500017 -0.191029
C18   C     C_1   0.670248 0.999927 0.499981 -0.190544
C19   C     C_1   0.999927 0.670248 0.500017 -0.191030
C20   C     C_1   0.329752 0.000073 0.499981 -0.190544
C21   C     C_1   0.500073 0.829752 0.000017 -0.191029
C22   C     C_1   0.170248 0.499927 0.999981 -0.190545
C23   C     C_1   0.499927 0.170248 0.000017 -0.191029
C24   C     C_1   0.829752 0.500073 0.999981 -0.190545
C25   C     C_1   0.000051 0.278823 0.499991 0.013546
C26   C     C_1   0.721177 0.999949 0.500008 0.013768
C27   C     C_1   0.999949 0.721177 0.499991 0.013546
C28   C     C_1   0.278823 0.000051 0.500008 0.013768
C29   C     C_1   0.500051 0.778823 0.999991 0.013544
C30   C     C_1   0.221177 0.499949 0.000008 0.013765
C31   C     C_1   0.499949 0.221177 0.999991 0.013545
C32   C     C_1   0.778823 0.500051 0.000008 0.013765
C33   C     C_1   0.000018 0.219299 0.499984 0.014896
C34   C     C_1   0.780701 0.999982 0.500015 0.014938
C35   C     C_1   0.999982 0.780701 0.499984 0.014896
C36   C     C_1   0.219299 0.000018 0.500015 0.014938
C37   C     C_1   0.500018 0.719299 0.999984 0.014896
C38   C     C_1   0.280701 0.499982 0.000015 0.014938
C39   C     C_1   0.499982 0.280701 0.999984 0.014896
C40   C     C_1   0.719299 0.500018 0.000015 0.014938
C41   C     C_1   1.000000 0.168363 0.499991 -0.175847
C42   C     C_1   0.831637 0.000001 0.500008 -0.175828
C43   C     C_1   0.000000 0.831637 0.499992 -0.175846
C44   C     C_1   0.168363 0.999999 0.500008 -0.175828
C45   C     C_1   0.500000 0.668363 0.999992 -0.175847
C46   C     C_1   0.331637 0.500001 0.000008 -0.175828
C47   C     C_1   0.500000 0.331637 0.999992 -0.175847
C48   C     C_1   0.668363 0.499999 0.000008 -0.175829
C49   C     C_R   0.107878 0.999991 0.500001 0.880299
C50   C     C_R   0.999991 0.107878 0.499999 0.880300
C51   C     C_R   0.892122 0.000009 0.500001 0.880299
C52   C     C_R   0.000009 0.892122 0.499999 0.880300
C53   C     C_R   0.607878 0.499991 0.000001 0.880299
C54   C     C_R   0.499991 0.607878 0.999999 0.880301
C55   C     C_R   0.392122 0.500009 0.000001 0.880299
C56   C     C_R   0.500009 0.392122 0.999999 0.880301
C57   C     C_R   0.000000 0.500000 0.444469 0.924298
C58   C     C_R   0.500000 0.000000 0.444473 0.859302
C59   C     C_R   1.000000 0.500000 0.555528 0.859137
C60   C     C_R   0.500000 1.000000 0.555531 0.924971
C61   C     C_R   0.500000 0.000000 0.944469 0.924300
C62   C     C_R   0.000000 0.500000 0.944473 0.859301
C63   C     C_R   0.500000 0.000000 0.055528 0.859136
C64   C     C_R   0.000000 0.500000 0.055531 0.924992
C65   C     C_R   0.022548 0.454412 0.190371 0.512072
C66   C     C_R   0.544857 0.976041 0.190244 0.512953
C67   C     C_R   0.977452 0.545588 0.190370 0.512072
C68   C     C_R   0.455142 0.023960 0.190244 0.512953
C69   C     C_R   0.044655 0.475662 0.809613 0.512250
C70   C     C_R   0.522388 0.954334 0.809690 0.512420
C71   C     C_R   0.955345 0.524339 0.809613 0.512249
C72   C     C_R   0.477610 0.045667 0.809690 0.512420
C73   C     C_R   0.522574 0.954425 0.690371 0.512072
C74   C     C_R   0.044857 0.476040 0.690244 0.512954
C75   C     C_R   0.477425 0.045575 0.690371 0.512073
C76   C     C_R   0.955143 0.523961 0.690244 0.512953
C77   C     C_R   0.544655 0.975662 0.309613 0.512249
C78   C     C_R   0.022361 0.454322 0.309690 0.512419
C79   C     C_R   0.455345 0.024338 0.309613 0.512250
C80   C     C_R   0.977638 0.545681 0.309689 0.512419
C81   C     C_R   0.977110 0.546636 0.220125 -0.021431
C82   C     C_R   0.454192 0.024516 0.220010 -0.022460
C83   C     C_R   0.022889 0.453365 0.220125 -0.021431
C84   C     C_R   0.545808 0.975485 0.220010 -0.022460
C85   C     C_R   0.954289 0.524667 0.779845 -0.021232
C86   C     C_R   0.477159 0.046667 0.779936 -0.021654
C87   C     C_R   0.045711 0.475334 0.779845 -0.021232
C88   C     C_R   0.522839 0.953334 0.779936 -0.021654
C89   C     C_R   0.477082 0.046622 0.720125 -0.021433
C90   C     C_R   0.954192 0.524516 0.720010 -0.022461
C91   C     C_R   0.522916 0.953379 0.720125 -0.021433
C92   C     C_R   0.045807 0.475484 0.720010 -0.022460
C93   C     C_R   0.454289 0.024666 0.279845 -0.021230
C94   C     C_R   0.977188 0.546681 0.279935 -0.021651
C95   C     C_R   0.545711 0.975334 0.279845 -0.021231
C96   C     C_R   0.022811 0.453321 0.279936 -0.021651
C97   C     C_R   1.000000 0.500001 0.235059 -0.020228
C98   C     C_R   0.500000 0.000000 0.234951 -0.020013
C99   C     C_R   1.000000 0.500000 0.764905 -0.020143
C100  C     C_R   0.499999 0.000001 0.765001 -0.020238
C101  C     C_R   0.499999 0.000000 0.735060 -0.020229
C102  C     C_R   1.000000 0.500000 0.734951 -0.020013
C103  C     C_R   0.500000 0.000000 0.264905 -0.020144
C104  C     C_R   1.000000 0.500001 0.265001 -0.020238
C105  C     C_R   0.954429 0.592914 0.235202 -0.157133
C106  C     C_R   0.408820 0.048941 0.235095 -0.157469
C107  C     C_R   0.045570 0.407087 0.235203 -0.157134
C108  C     C_R   0.591179 0.951059 0.235095 -0.157469
C109  C     C_R   0.908894 0.549064 0.764758 -0.157309
C110  C     C_R   0.454435 0.092921 0.764859 -0.157403
C111  C     C_R   0.091106 0.450937 0.764758 -0.157310
C112  C     C_R   0.545564 0.907081 0.764859 -0.157403
C113  C     C_R   0.454373 0.092887 0.735203 -0.157132
C114  C     C_R   0.908821 0.548942 0.735095 -0.157469
C115  C     C_R   0.545625 0.907114 0.735203 -0.157132
C116  C     C_R   0.091179 0.451058 0.735095 -0.157469
C117  C     C_R   0.408893 0.049063 0.264758 -0.157310
C118  C     C_R   0.954491 0.592948 0.264859 -0.157405
C119  C     C_R   0.591107 0.950938 0.264758 -0.157309
C120  C     C_R   0.045508 0.407054 0.264859 -0.157405
C121  C     C_R   0.037435 0.535318 0.368789 -0.173783
C122  C     C_R   0.539173 0.033337 0.368777 -0.126622
C123  C     C_R   0.962564 0.464685 0.368789 -0.173783
C124  C     C_R   0.460827 0.966664 0.368777 -0.126623
C125  C     C_R   0.033411 0.539111 0.631231 -0.128640
C126  C     C_R   0.464648 0.962599 0.631211 -0.171054
C127  C     C_R   0.966589 0.460889 0.631231 -0.128641
C128  C     C_R   0.535351 0.037401 0.631211 -0.171055
C129  C     C_R   0.537429 0.035323 0.868788 -0.173790
C130  C     C_R   0.039173 0.533336 0.868777 -0.126623
C131  C     C_R   0.462569 0.964679 0.868789 -0.173791
C132  C     C_R   0.960827 0.466664 0.868777 -0.126623
C133  C     C_R   0.533410 0.039111 0.131230 -0.128641
C134  C     C_R   0.964639 0.462608 0.131211 -0.171043
C135  C     C_R   0.466589 0.960889 0.131231 -0.128640
C136  C     C_R   0.035361 0.537391 0.131211 -0.171043
C137  C     C_R   0.037372 0.536217 0.398476 0.136918
C138  C     C_R   0.540450 0.033371 0.398617 0.168738
C139  C     C_R   0.962627 0.463783 0.398476 0.136918
C140  C     C_R   0.459550 0.966630 0.398618 0.168739
C141  C     C_R   0.033534 0.540321 0.601389 0.170153
C142  C     C_R   0.463776 0.962640 0.601524 0.137950
C143  C     C_R   0.966465 0.459680 0.601389 0.170153
C144  C     C_R   0.536224 0.037360 0.601524 0.137950
C145  C     C_R   0.537367 0.036222 0.898476 0.136924
C146  C     C_R   0.040450 0.533370 0.898617 0.168738
C147  C     C_R   0.462633 0.963778 0.898476 0.136927
C148  C     C_R   0.959550 0.466630 0.898618 0.168739
C149  C     C_R   0.533534 0.040321 0.101389 0.170152
C150  C     C_R   0.963767 0.462649 0.101523 0.137940
C151  C     C_R   0.466466 0.959679 0.101389 0.170152
C152  C     C_R   0.036233 0.537351 0.101523 0.137940
C153  C     C_R   0.000000 0.500000 0.413437 -0.106076
C154  C     C_R   0.500000 0.000000 0.413413 -0.183385
C155  C     C_R   1.000000 0.500000 0.586589 -0.182554
C156  C     C_R   0.500000 1.000000 0.586564 -0.106106
C157  C     C_R   0.500000 0.000000 0.913437 -0.106069
C158  C     C_R   1.000000 0.500000 0.913413 -0.183383
C159  C     C_R   0.500000 0.000000 0.086589 -0.182553
C160  C     C_R   0.000000 0.500000 0.086563 -0.106098
H1    H     H_    0.936609 0.629205 0.224160 0.193392
H2    H     H_    0.373188 0.068046 0.224052 0.193424
H3    H     H_    0.063390 0.370796 0.224161 0.193392
H4    H     H_    0.626811 0.931954 0.224052 0.193424
H5    H     H_    0.873309 0.568261 0.775799 0.193369
H6    H     H_    0.436639 0.129223 0.775902 0.193173
H7    H     H_    0.126691 0.431740 0.775798 0.193369
H8    H     H_    0.563360 0.870779 0.775903 0.193173
H9    H     H_    0.436531 0.129167 0.724160 0.193392
H10   H     H_    0.873189 0.568048 0.724052 0.193424
H11   H     H_    0.563467 0.870833 0.724161 0.193392
H12   H     H_    0.126811 0.431953 0.724052 0.193424
H13   H     H_    0.373308 0.068259 0.275799 0.193369
H14   H     H_    0.936717 0.629261 0.275902 0.193173
H15   H     H_    0.626692 0.931742 0.275799 0.193369
H16   H     H_    0.063282 0.370741 0.275902 0.193173
H17   H     H_    0.065961 0.562735 0.357018 0.147129
H18   H     H_    0.568875 0.058196 0.356421 0.156773
H19   H     H_    0.934038 0.437268 0.357018 0.147129
H20   H     H_    0.431125 0.941804 0.356421 0.156773
H21   H     H_    0.058069 0.568931 0.643619 0.151584
H22   H     H_    0.437014 0.934261 0.642969 0.148464
H23   H     H_    0.941930 0.431070 0.643620 0.151585
H24   H     H_    0.562985 0.065739 0.642969 0.148464
H25   H     H_    0.565951 0.062744 0.857017 0.147114
H26   H     H_    0.068876 0.558196 0.856421 0.156773
H27   H     H_    0.434048 0.937257 0.857018 0.147114
H28   H     H_    0.931124 0.441805 0.856421 0.156772
H29   H     H_    0.558068 0.068931 0.143619 0.151585
H30   H     H_    0.936998 0.434277 0.142969 0.148477
H31   H     H_    0.441931 0.931070 0.143620 0.151585
H32   H     H_    0.063003 0.565723 0.142968 0.148477
N1    N     N_R   1.000000 0.500000 0.176257 -0.344957
N2    N     N_R   0.500000 0.000000 0.176152 -0.347236
N3    N     N_R   0.000000 0.500000 0.823750 -0.345401
N4    N     N_R   0.499999 0.000001 0.823785 -0.345574
N5    N     N_R   0.499999 0.000000 0.676257 -0.344961
N6    N     N_R   1.000000 0.500000 0.676152 -0.347236
N7    N     N_R   0.500000 0.000000 0.323750 -0.345401
N8    N     N_R   1.000000 0.500001 0.323785 -0.345569
O1    O     O_R   0.953170 0.417210 0.499940 -0.609644
O2    O     O_R   0.582790 0.953170 0.499940 -0.610785
O3    O     O_R   0.046830 0.582790 0.499940 -0.609644
O4    O     O_R   0.417210 0.046830 0.499940 -0.610784
O5    O     O_R   0.953170 0.582790 0.500060 -0.610776
O6    O     O_R   0.582790 0.046830 0.500060 -0.609573
O7    O     O_R   0.046830 0.417210 0.500060 -0.610776
O8    O     O_R   0.417210 0.953170 0.500060 -0.609573
O9    O     O_R   0.453170 0.917210 0.999940 -0.609641
O10   O     O_R   0.082790 0.453170 0.999940 -0.610788
O11   O     O_R   0.546830 0.082790 0.999940 -0.609642
O12   O     O_R   0.917210 0.546830 0.999940 -0.610788
O13   O     O_R   0.453170 0.082790 0.000060 -0.610777
O14   O     O_R   0.082790 0.546830 0.000060 -0.609569
O15   O     O_R   0.546830 0.917210 0.000060 -0.610777
O16   O     O_R   0.917210 0.453170 0.000060 -0.609569
O17   O     O_R   0.953160 0.500010 0.458010 -0.600578
O18   O     O_R   0.499990 0.953160 0.458010 -0.603665
O19   O     O_R   0.046840 0.499990 0.458010 -0.600577
O20   O     O_R   0.500010 0.046840 0.458010 -0.603665
O21   O     O_R   0.953160 0.499990 0.541990 -0.602717
O22   O     O_R   0.499990 0.046840 0.541990 -0.599708
O23   O     O_R   0.046840 0.500010 0.541990 -0.602718
O24   O     O_R   0.500010 0.953160 0.541990 -0.599709
O25   O     O_R   0.453160 0.000010 0.958010 -0.600580
O26   O     O_R   0.999990 0.453160 0.958010 -0.603665
O27   O     O_R   0.546840 0.999990 0.958010 -0.600580
O28   O     O_R   0.000010 0.546840 0.958010 -0.603665
O29   O     O_R   0.453160 0.999990 0.041990 -0.602717
O30   O     O_R   0.999990 0.546840 0.041990 -0.599716
O31   O     O_R   0.546840 0.000010 0.041990 -0.602718
O32   O     O_R   0.000010 0.453160 0.041990 -0.599715
O33   O     O_2   0.044850 0.410530 0.175591 -0.556137
O34   O     O_2   0.588137 0.952686 0.175429 -0.552791
O35   O     O_2   0.955150 0.589471 0.175591 -0.556137
O36   O     O_2   0.411863 0.047315 0.175429 -0.552791
O37   O     O_2   0.087608 0.451582 0.824378 -0.556708
O38   O     O_2   0.544378 0.910323 0.824490 -0.556167
O39   O     O_2   0.912393 0.548419 0.824378 -0.556708
O40   O     O_2   0.455620 0.089679 0.824490 -0.556166
O41   O     O_2   0.544901 0.910555 0.675591 -0.556130
O42   O     O_2   0.088136 0.452685 0.675429 -0.552791
O43   O     O_2   0.455098 0.089445 0.675591 -0.556130
O44   O     O_2   0.911863 0.547316 0.675429 -0.552791
O45   O     O_2   0.587608 0.951583 0.324378 -0.556708
O46   O     O_2   0.044326 0.410297 0.324490 -0.556176
O47   O     O_2   0.412392 0.048418 0.324378 -0.556709
O48   O     O_2   0.955673 0.589706 0.324489 -0.556176
O49   O     O_R   0.081480 0.000000 0.475630 -0.605426
O50   O     O_R   0.000000 0.081480 0.475630 -0.605685
O51   O     O_R   0.918520 0.000000 0.475630 -0.605425
O52   O     O_R   0.000000 0.918520 0.475630 -0.605685
O53   O     O_R   0.081480 1.000000 0.524370 -0.606610
O54   O     O_R   0.000000 0.918520 0.524370 -0.606356
O55   O     O_R   0.918520 1.000000 0.524370 -0.606611
O56   O     O_R   0.000000 0.081480 0.524370 -0.606356
O57   O     O_R   0.581480 0.500000 0.975630 -0.605426
O58   O     O_R   0.500000 0.581480 0.975630 -0.605685
O59   O     O_R   0.418520 0.500000 0.975630 -0.605425
O60   O     O_R   0.500000 0.418520 0.975630 -0.605686
O61   O     O_R   0.581480 0.500000 0.024370 -0.606610
O62   O     O_R   0.500000 0.418520 0.024370 -0.606356
O63   O     O_R   0.418520 0.500000 0.024370 -0.606611
O64   O     O_R   0.500000 0.581480 0.024370 -0.606356
Zn1   Zn    Zn3+2 0.937490 0.500000 0.500000 0.998078
Zn2   Zn    Zn3+2 0.500000 0.937490 0.500000 0.998321
Zn3   Zn    Zn3+2 0.062510 0.500000 0.500000 0.998078
Zn4   Zn    Zn3+2 0.500000 0.062510 0.500000 0.998322
Zn5   Zn    Zn3+2 0.437490 0.000000 0.000000 0.998081
Zn6   Zn    Zn3+2 0.000000 0.437490 0.000000 0.998323
Zn7   Zn    Zn3+2 0.562510 0.000000 0.000000 0.998080
Zn8   Zn    Zn3+2 0.000000 0.562510 0.000000 0.998323
Zn9   Zn    Zn3+2 0.000000 0.000000 0.468500 0.992032
Zn10  Zn    Zn3+2 0.000000 0.000000 0.531500 0.988555
Zn11  Zn    Zn3+2 0.500000 0.500000 0.968500 0.992031
Zn12  Zn    Zn3+2 0.500000 0.500000 0.031500 0.988552
N9    N     N_2   0.074224 0.574207 0.413138 -0.289548
H33   H     H_    0.111978 0.581736 0.402635 0.229439
C161  C     C_3   0.047226 0.626380 0.422283 -0.726444
H34   H     H_    0.077676 0.651719 0.435101 0.237600
H35   H     H_    0.009512 0.617288 0.435730 0.229225
H36   H     H_    0.033894 0.651817 0.403482 0.242796
N10   N     N_2   0.582278 0.065053 0.414187 -0.280742
H37   H     H_    0.599544 0.044302 0.431502 0.226209
C162  C     C_3   0.622059 0.101310 0.399300 -0.755861
H38   H     H_    0.648233 0.124840 0.415036 0.241754
H39   H     H_    0.598905 0.133036 0.386163 0.247071
H40   H     H_    0.650838 0.075330 0.385783 0.242285
N11   N     N_2   0.925776 0.425793 0.413139 -0.289549
H41   H     H_    0.888021 0.418266 0.402636 0.229439
C163  C     C_3   0.952773 0.373620 0.422283 -0.726446
H42   H     H_    0.922323 0.348281 0.435101 0.237601
H43   H     H_    0.990487 0.382711 0.435730 0.229226
H44   H     H_    0.966105 0.348183 0.403482 0.242797
N12   N     N_2   0.417722 0.934947 0.414187 -0.280743
H45   H     H_    0.400456 0.955698 0.431502 0.226210
C164  C     C_3   0.377941 0.898691 0.399301 -0.755862
H46   H     H_    0.351766 0.875160 0.415037 0.241754
H47   H     H_    0.401094 0.866965 0.386163 0.247071
H48   H     H_    0.349161 0.924671 0.385783 0.242285
N13   N     N_2   0.065403 0.581998 0.585822 -0.280373
H49   H     H_    0.044625 0.599584 0.568596 0.224841
C165  C     C_3   0.102254 0.621256 0.600689 -0.755579
H50   H     H_    0.126081 0.647125 0.584939 0.242052
H51   H     H_    0.133699 0.597653 0.613797 0.253674
H52   H     H_    0.076717 0.650371 0.614237 0.234394
N14   N     N_2   0.425780 0.925793 0.586860 -0.287237
H53   H     H_    0.418225 0.888051 0.597370 0.233678
C166  C     C_3   0.373631 0.952799 0.577687 -0.739640
H54   H     H_    0.348311 0.922349 0.564860 0.240500
H55   H     H_    0.382755 0.990506 0.564241 0.231081
H56   H     H_    0.348159 0.966143 0.596473 0.236712
N15   N     N_2   0.934597 0.418002 0.585822 -0.280373
H57   H     H_    0.955375 0.400416 0.568596 0.224842
C167  C     C_3   0.897745 0.378745 0.600689 -0.755582
H58   H     H_    0.873918 0.352876 0.584939 0.242053
H59   H     H_    0.866300 0.402348 0.613798 0.253674
H60   H     H_    0.923281 0.349630 0.614237 0.234394
N16   N     N_2   0.574220 0.074207 0.586860 -0.287238
H61   H     H_    0.581776 0.111948 0.597370 0.233678
C168  C     C_3   0.626369 0.047200 0.577686 -0.739636
H62   H     H_    0.651688 0.077651 0.564859 0.240500
H63   H     H_    0.617244 0.009494 0.564240 0.231080
H64   H     H_    0.651841 0.033855 0.596472 0.236711
N17   N     N_2   0.574215 0.074216 0.913138 -0.289550
H65   H     H_    0.611968 0.081749 0.902635 0.229441
C169  C     C_3   0.547211 0.126386 0.922284 -0.726458
H66   H     H_    0.577660 0.151729 0.935100 0.237602
H67   H     H_    0.509500 0.117289 0.935732 0.229228
H68   H     H_    0.533873 0.151821 0.903483 0.242793
N18   N     N_2   0.082278 0.565052 0.914187 -0.280743
H69   H     H_    0.099544 0.544302 0.931502 0.226209
C170  C     C_3   0.122060 0.601309 0.899300 -0.755860
H70   H     H_    0.148234 0.624839 0.915037 0.241754
H71   H     H_    0.098907 0.633035 0.886163 0.247071
H72   H     H_    0.150839 0.575329 0.885783 0.242284
N19   N     N_2   0.425787 0.925781 0.913139 -0.289549
H73   H     H_    0.388034 0.918246 0.902636 0.229440
C171  C     C_3   0.452794 0.873613 0.922284 -0.726456
H74   H     H_    0.422347 0.848268 0.935101 0.237601
H75   H     H_    0.490505 0.882712 0.935732 0.229227
H76   H     H_    0.466134 0.848178 0.903483 0.242794
N20   N     N_2   0.917722 0.434948 0.914187 -0.280743
H77   H     H_    0.900456 0.455698 0.931502 0.226209
C172  C     C_3   0.877940 0.398692 0.899301 -0.755861
H78   H     H_    0.851765 0.375161 0.915037 0.241755
H79   H     H_    0.901093 0.366966 0.886163 0.247071
H80   H     H_    0.849161 0.424672 0.885783 0.242285
N21   N     N_2   0.565402 0.081999 0.085822 -0.280372
H81   H     H_    0.544624 0.099583 0.068596 0.224841
C173  C     C_3   0.602252 0.121257 0.100689 -0.755579
H82   H     H_    0.626079 0.147127 0.084939 0.242053
H83   H     H_    0.633697 0.097655 0.113797 0.253674
H84   H     H_    0.576715 0.150372 0.114237 0.234394
N22   N     N_2   0.925764 0.425811 0.086859 -0.287243
H85   H     H_    0.918200 0.388070 0.097369 0.233684
C174  C     C_3   0.873620 0.452828 0.077686 -0.739660
H86   H     H_    0.848295 0.422384 0.064858 0.240503
H87   H     H_    0.882752 0.490534 0.064241 0.231084
H88   H     H_    0.848150 0.466175 0.096473 0.236713
N23   N     N_2   0.434597 0.918002 0.085822 -0.280373
H89   H     H_    0.455375 0.900416 0.068597 0.224841
C175  C     C_3   0.397745 0.878745 0.100689 -0.755578
H90   H     H_    0.373918 0.852876 0.084939 0.242053
H91   H     H_    0.366300 0.902348 0.113798 0.253674
H92   H     H_    0.423281 0.849630 0.114237 0.234393
N24   N     N_2   0.074237 0.574189 0.086859 -0.287241
H93   H     H_    0.081800 0.611929 0.097368 0.233683
C176  C     C_3   0.126381 0.547171 0.077686 -0.739661
H94   H     H_    0.151707 0.577615 0.064858 0.240503
H95   H     H_    0.117249 0.509465 0.064241 0.231084
H96   H     H_    0.151850 0.533823 0.096473 0.236714

loop_
_geom_bond_atom_site_label_1
_geom_bond_atom_site_label_2
_ccdc_geom_bond_type
O7    Zn3   S    
C174  H86   S    
C129  H25   S    
C130  C146  A    
C163  H42   S    
C34   C42   T    
C132  H28   S    
N19   H73   S    
O54   Zn10  S    
C133  H29   S    
C165  H51   S    
C14   C132  A    
N13   H49   S    
C141  N13   S    
C108  H4    S    
C61   O27   A    
C149  N21   S    
C136  H32   S    
C86   C110  A    
C10   C124  A    
C12   C126  A    
C30   C38   S    
C74   C92   A    
C16   N1    S    
O60   Zn11  S    
O29   Zn5   S    
C78   C96   A    
C2    O2    A    
C46   C55   S    
C9    C121  A    
C3    C19   S    
C129  C145  A    
C9    N8    S    
C92   C102  A    
C176  H96   S    
C138  C154  A    
C94   C104  A    
C94   C118  A    
O11   Zn7   S    
C82   C98   A    
O56   Zn10  S    
C56   O60   A    
C78   N8    A    
C136  C152  A    
C4    O8    A    
O4    Zn4   S    
C89   C113  A    
O57   Zn11  S    
C148  N20   S    
C20   C28   T    
C27   C35   S    
C170  H70   S    
C21   C29   T    
C151  N23   S    
C24   C32   T    
C145  C157  A    
C165  H50   S    
C137  C153  A    
C52   O52   A    
C127  C143  A    
C172  H80   S    
C128  C144  A    
C150  C160  A    
C66   O34   S    
C174  H88   S    
C96   C104  A    
C54   O58   A    
C105  C118  A    
C36   C44   T    
C111  H7    S    
C37   C45   T    
C107  C120  A    
C139  N11   S    
C39   C47   T    
C14   C130  A    
C170  H72   S    
C117  H13   S    
C40   C48   T    
C89   C101  A    
C8    O16   A    
C72   N4    A    
C12   C128  A    
C17   C25   T    
C33   C41   T    
C162  H39   S    
O26   Zn6   S    
O18   Zn2   S    
C161  H35   S    
O21   Zn1   S    
C74   O42   S    
C87   C111  A    
C168  H62   S    
O12   Zn8   S    
O3    Zn3   S    
C142  C156  A    
C151  C159  A    
C131  H27   S    
N16   C168  S    
C144  C156  A    
N21   H81   S    
C173  H82   S    
C63   C159  S    
C16   C134  A    
C10   N7    S    
C93   C103  A    
C173  H84   S    
N12   C164  S    
C137  N9    S    
O64   Zn12  S    
C163  H43   S    
O53   Zn10  S    
O24   Zn2   S    
C43   C52   S    
N15   C167  S    
C5    O15   A    
C123  C139  A    
C69   N3    A    
C53   O61   A    
C121  C137  A    
N17   C169  S    
C90   C102  A    
C9    C123  A    
C147  N19   S    
C15   N2    S    
C143  C155  A    
C74   N6    A    
C125  C141  A    
C13   N4    S    
O6    Zn4   S    
C131  C147  A    
C146  N18   S    
C2    O6    A    
C35   C43   T    
C50   O50   A    
O10   Zn6   S    
C90   C114  A    
N9    H33   S    
C164  H47   S    
C93   C117  A    
C91   C101  A    
C95   C103  A    
C166  H55   S    
C48   C53   S    
C81   C105  A    
O55   Zn10  S    
C3    O5    A    
C123  H19   S    
O28   Zn8   S    
C169  H67   S    
C121  H17   S    
C23   C31   T    
C79   O47   S    
C138  N10   S    
C11   C127  A    
C85   C99   A    
N18   C170  S    
C71   N3    A    
C161  H34   S    
C168  H64   S    
C80   O48   S    
N11   H41   S    
C5    C21   S    
O2    Zn2   S    
C109  C114  A    
N22   C174  S    
C107  H3    S    
C67   C81   A    
N20   C172  S    
C175  H92   S    
C105  H1    S    
C16   C136  A    
C63   O31   A    
C167  H60   S    
C22   C30   T    
C7    O11   A    
C146  C158  A    
C5    O9    A    
C1    C17   S    
C92   C116  A    
C68   C82   A    
C11   N6    S    
C64   O30   A    
C58   O18   A    
C62   O28   A    
C100  C101  A    
C8    C24   S    
C55   O59   A    
C82   C106  A    
C38   C46   T    
C50   O56   A    
C75   C89   A    
O50   Zn9   S    
C171  H76   S    
C118  H14   S    
C70   N4    A    
N10   H37   S    
C13   C129  A    
C68   N2    A    
C70   O38   S    
C66   N2    A    
C25   C33   S    
C47   C56   S    
C176  H95   S    
C147  C157  A    
C14   N3    S    
C77   N7    A    
C3    O3    A    
C6    O10   A    
C18   C26   T    
C51   O55   A    
C140  N12   S    
O61   Zn12  S    
N23   C175  S    
O1    Zn1   S    
O19   Zn3   S    
C65   O33   S    
C11   C125  A    
C85   C109  A    
C2    C18   S    
C139  C153  A    
C98   C103  A    
C6    C22   S    
C116  H12   S    
C52   O54   A    
C58   C154  S    
C119  H15   S    
C120  H16   S    
C175  H90   S    
C62   C158  S    
O59   Zn11  S    
C111  C116  A    
C172  H79   S    
C86   C100  A    
C69   C87   A    
C63   O29   A    
C49   O49   A    
C170  H71   S    
C167  H58   S    
C174  H87   S    
C108  C119  A    
N19   C171  S    
C165  H52   S    
C65   N1    A    
N13   C165  S    
C53   O57   A    
C125  H21   S    
N14   H53   S    
C79   N7    A    
C122  C138  A    
C115  H11   S    
N12   H45   S    
C64   O32   A    
C141  C155  A    
C113  H9    S    
C62   O26   A    
C57   C153  S    
C126  C142  A    
C65   C83   A    
C71   O39   S    
C56   O62   A    
N18   H69   S    
C60   C156  S    
C162  H38   S    
C144  N16   S    
C61   C157  S    
C171  H74   S    
C6    O14   A    
C64   C160  S    
C13   C131  A    
N24   C176  S    
O25   Zn5   S    
C88   C100  A    
C59   O23   A    
C10   C122  A    
O17   Zn1   S    
C106  C117  A    
O32   Zn6   S    
C80   C94   A    
C41   C50   S    
C122  H18   S    
O58   Zn11  S    
C124  C140  A    
C60   O22   A    
C75   N5    A    
C72   C86   A    
C173  H83   S    
C1    O1    A    
C142  N14   S    
C54   O64   A    
C169  H66   S    
C76   N6    A    
N15   H57   S    
C57   O17   A    
C135  C151  A    
C84   C108  A    
C91   C115  A    
C106  H2    S    
N17   H65   S    
C97   C104  A    
C95   C119  A    
N16   H61   S    
C88   C112  A    
C99   C102  A    
C73   O41   S    
C28   C36   S    
C83   C97   A    
C29   C37   S    
C150  N22   S    
C76   C90   A    
C80   N8    A    
C44   C49   S    
N20   H77   S    
C152  C160  A    
N10   C162  S    
C127  H23   S    
C164  H46   S    
N24   H93   S    
C128  H24   S    
C70   C88   A    
C166  H54   S    
C67   O35   S    
C81   C97   A    
C55   O63   A    
C76   O44   S    
C79   C93   A    
C162  H40   S    
C7    C23   S    
C4    O4    A    
C15   C135  A    
C112  H8    S    
O22   Zn4   S    
C161  H36   S    
C68   O36   S    
C78   O46   S    
C71   C85   A    
C26   C34   S    
N22   H85   S    
C83   C107  A    
C168  H63   S    
C73   N5    A    
C12   N5    S    
C72   O40   S    
C59   O21   A    
O52   Zn9   S    
O23   Zn3   S    
O8    Zn2   S    
C42   C51   S    
O9    Zn5   S    
N21   C173  S    
C175  H91   S    
C58   O20   A    
C60   O24   A    
O16   Zn6   S    
C19   C27   T    
C87   C99   A    
C143  N15   S    
C167  H59   S    
O14   Zn8   S    
C132  C148  A    
C163  H44   S    
C133  C149  A    
C73   C91   A    
C59   C155  S    
C57   O19   A    
C77   C95   A    
C61   O25   A    
O31   Zn7   S    
N14   C166  S    
C49   O53   A    
C135  H31   S    
C148  C158  A    
C145  N17   S    
C149  C159  A    
C110  C113  A    
C7    O13   A    
C152  N24   S    
C109  H5    S    
O27   Zn7   S    
C171  H75   S    
C45   C54   S    
N9    C161  S    
C164  H48   S    
O49   Zn9   S    
C126  H22   S    
O20   Zn4   S    
C51   O51   A    
C176  H94   S    
C166  H56   S    
C114  H10   S    
C134  C150  A    
C96   C120  A    
O51   Zn9   S    
O5    Zn1   S    
C169  H68   S    
C130  H26   S    
C15   C133  A    
C4    C20   S    
O62   Zn12  S    
N23   H89   S    
C84   C98   A    
C134  H30   S    
C8    O12   A    
C110  H6    S    
O30   Zn8   S    
N11   C163  S    
C31   C39   S    
C77   O45   S    
C32   C40   S    
C1    O7    A    
C124  H20   S    
C75   O43   S    
C66   C84   A    
O63   Zn12  S    
O13   Zn5   S    
O15   Zn7   S    
C172  H78   S    
C67   N1    A    
C69   O37   S    
C112  C115  A    
C140  C154  A    
