data_mof_unit_55008.cif
_audit_creation_date              2012-12-10T16:56:29-0500
_audit_creation_method            fapswitch 2.2
_symmetry_space_group_name_H-M    P1
_symmetry_Int_Tables_number       1
_space_group_crystal_system       triclinic
_cell_length_a                    7.767741
_cell_length_b                    8.556831
_cell_length_c                    15.699596
_cell_angle_alpha                 90.688714
_cell_angle_beta                  85.46894
_cell_angle_gamma                 93.68205
_cell_volume                      1038.07499622

loop_
_atom_site_label
_atom_site_type_symbol
_atom_type_description
_atom_site_fract_x
_atom_site_fract_y
_atom_site_fract_z
_atom_type_partial_charge
C1    C     C_R   0.545846 0.794773 0.497777 0.963084
C2    C     C_3   0.456540 0.354979 0.030916 -0.232159
C3    C     C_1   0.503523 0.496428 0.750756 -0.189211
C4    C     C_1   0.496472 0.503554 0.249243 -0.189236
C5    C     C_3   0.341307 0.450902 0.977434 -0.228675
C6    C     C_3   0.658665 0.549042 0.022565 -0.228646
C7    C     C_3   0.501583 0.496248 0.916974 0.164677
C8    C     C_3   0.498385 0.503700 0.083027 0.164683
C9    C     C_1   0.502881 0.495134 0.826071 -0.078314
C10   C     C_1   0.497103 0.504831 0.173929 -0.078364
C11   C     C_R   0.249824 0.704185 0.068463 0.118487
C12   C     C_R   0.454153 0.205227 0.502223 0.963094
C13   C     C_R   0.254019 0.862583 0.045250 -0.168176
C14   C     C_R   0.127200 0.958605 0.080364 -0.142845
C15   C     C_R   0.995674 0.897480 0.138760 -0.114083
C16   C     C_R   0.990938 0.740247 0.162349 -0.144944
C17   C     C_R   0.116932 0.643620 0.127042 -0.163151
C18   C     C_R   0.750102 0.295784 0.931471 0.118579
C19   C     C_R   0.745618 0.137230 0.954439 -0.168124
C20   C     C_R   0.872319 0.041204 0.919212 -0.142882
C21   C     C_R   0.003994 0.102466 0.860938 -0.114080
C22   C     C_R   0.009033 0.259865 0.837602 -0.144881
C23   C     C_R   0.501380 0.499126 0.661982 0.904757
C24   C     C_R   0.883171 0.356508 0.873031 -0.163226
C25   C     C_R   0.498620 0.500873 0.338018 0.904765
C26   C     C_2   0.570011 0.958303 0.496509 -0.379580
C27   C     C_2   0.429989 0.041697 0.503492 -0.379590
C28   C     C_3   0.384315 0.598490 0.030933 0.072388
C29   C     C_3   0.615654 0.401456 0.969065 0.072358
C30   C     C_3   0.543431 0.644963 0.969084 -0.232127
H1    H     H_    0.580474 0.761802 0.940980 0.132598
H2    H     H_    0.130224 0.080303 0.061933 0.139397
H3    H     H_    0.897287 0.971867 0.165565 0.130236
H4    H     H_    0.888766 0.692834 0.207425 0.148247
H5    H     H_    0.110931 0.521614 0.145299 0.134662
H6    H     H_    0.645388 0.087537 0.999714 0.116414
H7    H     H_    0.869098 0.919396 0.937459 0.139254
H8    H     H_    0.102268 0.028066 0.834033 0.130218
H9    H     H_    0.111334 0.307405 0.792631 0.148235
H10   H     H_    0.889405 0.478648 0.854976 0.134579
H11   H     H_    0.419483 0.238144 0.059023 0.132720
H12   H     H_    0.788704 0.587923 0.042045 0.154960
H13   H     H_    0.211266 0.412022 0.957961 0.154897
H14   H     H_    0.702201 0.009496 0.489851 0.180553
H15   H     H_    0.297798 0.990504 0.510151 0.180550
H16   H     H_    0.013710 0.381984 0.436347 0.191906
H17   H     H_    0.986290 0.618016 0.563653 0.191907
H18   H     H_    0.354085 0.912144 0.999854 0.116444
N1    N     N_2   0.950320 0.457950 0.477300 -0.172937
N2    N     N_2   0.049680 0.542050 0.522700 -0.172933
O1    O     O_R   0.389250 0.738570 0.505570 -0.612076
O2    O     O_R   0.610750 0.261430 0.494430 -0.612070
O3    O     O_R   0.678390 0.711630 0.491020 -0.631629
O4    O     O_R   0.321610 0.288370 0.508980 -0.631622
O5    O     O_R   0.355460 0.513480 0.630490 -0.619016
O6    O     O_R   0.644540 0.486520 0.369510 -0.619007
O7    O     O_R   0.644600 0.486540 0.615950 -0.618426
O8    O     O_R   0.355400 0.513460 0.384050 -0.618454
Zn1   Zn    Zn3+2 0.306940 0.517990 0.509710 0.942902
Zn2   Zn    Zn3+2 0.693060 0.482010 0.490290 0.942913

loop_
_geom_bond_atom_site_label_1
_geom_bond_atom_site_label_2
_ccdc_geom_bond_type
C13   H18   S    
C23   O5    A    
C7    C29   S    
O5    Zn1   S    
C5    C28   S    
C11   C13   A    
C3    C23   S    
C19   C20   A    
C25   O6    A    
C19   H6    S    
C16   H4    S    
C27   H15   S    
C23   O7    A    
C28   C30   S    
C4    C25   S    
C5    H13   S    
C26   H14   S    
C2    H11   S    
C18   C29   S    
C12   O4    A    
C21   C22   A    
C20   H7    S    
C1    O1    A    
H16   N1    S    
C26   C27   D    
C1    C26   S    
N1    Zn2   S    
C11   C28   S    
C2    C29   S    
C3    C9    T    
N2    Zn1   S    
C8    C10   S    
C12   O2    A    
O3    Zn2   S    
C15   H3    S    
N1    N2    D    
H17   N2    S    
O4    Zn1   S    
C30   H1    S    
C8    C28   S    
C22   C24   A    
C2    C5    S    
O1    Zn1   S    
C25   O8    A    
C22   H9    S    
C12   C27   S    
C4    C10   T    
C15   C16   A    
C6    C29   S    
C17   H5    S    
C20   C21   A    
C18   C24   A    
C7    C9    S    
C18   C19   A    
C6    H12   S    
C5    C7    S    
C1    O3    A    
C14   C15   A    
C11   C17   A    
O7    Zn2   S    
C6    C8    S    
O2    Zn2   S    
C24   H10   S    
O8    Zn1   S    
C13   C14   A    
C6    C30   S    
C2    C8    S    
C21   H8    S    
O6    Zn2   S    
C14   H2    S    
C16   C17   A    
C7    C30   S    
