data_mof_unit_65437.cif
_audit_creation_date              2012-12-10T18:47:35-0500
_audit_creation_method            fapswitch 2.2
_symmetry_space_group_name_H-M    P1
_symmetry_Int_Tables_number       1
_space_group_crystal_system       triclinic
_cell_length_a                    19.489465
_cell_length_b                    18.153939
_cell_length_c                    11.719492
_cell_angle_alpha                 90.004886
_cell_angle_beta                  90.211551
_cell_angle_gamma                 89.993688
_cell_volume                      4146.4517087

loop_
_atom_site_label
_atom_site_type_symbol
_atom_type_description
_atom_site_fract_x
_atom_site_fract_y
_atom_site_fract_z
_atom_type_partial_charge
C1    C     C_R   0.367464 0.500000 0.499853 0.870097
C2    C     C_R   0.632536 0.500000 0.500147 0.870103
C3    C     C_R   0.071962 0.499994 0.499799 0.163919
C4    C     C_R   0.928037 0.500006 0.500197 0.163914
C5    C     C_R   0.456157 0.720965 0.430015 0.141560
C6    C     C_R   0.543842 0.279035 0.569986 0.141554
C7    C     C_R   0.543891 0.720959 0.569905 0.142429
C8    C     C_R   0.456110 0.279041 0.430093 0.142432
C9    C     C_R   0.455335 0.798296 0.428651 -0.266612
C10   C     C_R   0.544664 0.201704 0.571350 -0.266614
C11   C     C_R   0.544716 0.798292 0.571265 -0.265116
C12   C     C_R   0.455285 0.201708 0.428734 -0.265115
C13   C     C_R   0.500018 0.838445 0.499970 0.095797
C14   C     C_R   0.499982 0.161554 0.500030 0.095798
C15   C     C_R   0.510736 0.961305 0.601496 -0.165879
C16   C     C_R   0.489264 0.038694 0.398503 -0.165879
C17   C     C_R   0.489275 0.961311 0.398487 -0.163693
C18   C     C_R   0.510725 0.038689 0.601513 -0.163693
C19   C     C_R   0.499989 0.078714 0.500017 0.122260
C20   C     C_R   0.500011 0.921285 0.499983 0.122260
C21   C     C_R   0.499971 0.499998 0.283744 0.815341
C22   C     C_R   0.500029 0.500002 0.716256 0.815342
C23   C     C_1   0.499974 0.499995 0.162183 -0.156949
C24   C     C_1   0.500026 0.500005 0.837817 -0.156949
C25   C     C_1   0.499988 0.499998 0.059826 0.010053
C26   C     C_1   0.500011 0.500002 0.940174 0.010053
C27   C     C_R   0.744943 0.434725 0.523315 0.552516
C28   C     C_R   0.255057 0.565278 0.476694 0.552518
C29   C     C_R   0.255174 0.434666 0.522539 0.552236
C30   C     C_R   0.744826 0.565332 0.477449 0.552234
C31   C     C_R   0.816386 0.435006 0.523195 -0.237133
C32   C     C_R   0.183614 0.564997 0.476813 -0.237136
C33   C     C_R   0.183731 0.434941 0.522399 -0.239759
C34   C     C_R   0.816269 0.565057 0.477588 -0.239758
C35   C     C_R   0.852521 0.500026 0.500351 -0.079293
C36   C     C_R   0.147479 0.499974 0.499646 -0.079288
C37   C     C_R   0.708212 0.500015 0.500308 -0.294860
C38   C     C_R   0.291788 0.499985 0.499691 -0.294870
C39   C     C_R   0.964450 0.557413 0.552982 -0.172266
C40   C     C_R   0.035550 0.442588 0.447011 -0.172267
C41   C     C_R   0.035884 0.557407 0.552787 -0.171158
C42   C     C_R   0.964116 0.442593 0.447211 -0.171156
Cu1   Cu    Cu3+1 0.500000 0.573360 0.500000 1.003217
Cu2   Cu    Cu3+1 0.500000 0.426640 0.500000 1.003216
H1    H     H_    0.843546 0.384445 0.542593 0.176099
H2    H     H_    0.156454 0.615559 0.457423 0.176098
H3    H     H_    0.156671 0.384375 0.541782 0.176816
H4    H     H_    0.843329 0.615622 0.458196 0.176817
H5    H     H_    0.937649 0.601716 0.595780 0.142306
H6    H     H_    0.062350 0.398286 0.404206 0.142303
H7    H     H_    0.062954 0.601701 0.595453 0.143068
H8    H     H_    0.937045 0.398298 0.404550 0.143070
H9    H     H_    0.421479 0.690733 0.375034 0.161238
H10   H     H_    0.578520 0.309267 0.624968 0.161241
H11   H     H_    0.578628 0.690719 0.624784 0.135886
H12   H     H_    0.421373 0.309281 0.375213 0.135889
H13   H     H_    0.419227 0.826304 0.373278 0.142170
H14   H     H_    0.580772 0.173696 0.626725 0.142170
H15   H     H_    0.580842 0.826299 0.626602 0.138008
H16   H     H_    0.419159 0.173701 0.373395 0.138009
H17   H     H_    0.517993 0.932813 0.681767 0.133404
H18   H     H_    0.482007 0.067186 0.318232 0.133404
H19   H     H_    0.482026 0.932825 0.318203 0.134206
H20   H     H_    0.517973 0.067175 0.681797 0.134206
N1    N     N_R   0.500000 0.683620 0.500000 -0.185351
N2    N     N_R   0.500000 0.316380 0.500000 -0.185352
O1    O     O_R   0.400190 0.561980 0.499980 -0.539717
O2    O     O_R   0.599810 0.438020 0.500020 -0.539718
O3    O     O_R   0.599810 0.561980 0.500020 -0.537734
O4    O     O_R   0.400190 0.438020 0.499980 -0.537733
O5    O     O_R   0.500010 0.561950 0.337200 -0.579073
O6    O     O_R   0.499990 0.438050 0.662800 -0.579074
O7    O     O_R   0.499990 0.561950 0.662800 -0.592480
O8    O     O_R   0.500010 0.438050 0.337200 -0.592481
F1    F     F_    0.712210 0.370646 0.547682 -0.659392
F2    F     F_    0.287790 0.629359 0.452336 -0.659388
F3    F     F_    0.288035 0.370571 0.546825 -0.646161
F4    F     F_    0.711964 0.629424 0.453154 -0.646162

loop_
_geom_bond_atom_site_label_1
_geom_bond_atom_site_label_2
_ccdc_geom_bond_type
Cu1   O7    S    
C15   C18   A    
C8    N2    A    
Cu2   N2    S    
C7    H11   S    
C8    H12   S    
C39   C41   A    
C7    C11   A    
C21   O5    A    
C32   C36   A    
C5    H9    S    
C10   H14   S    
C24   C26   T    
C18   C19   A    
C2    O2    A    
C11   H15   S    
C29   C33   A    
C33   C36   A    
C34   C35   A    
C9    C13   A    
C16   C17   A    
C29   C38   A    
Cu2   O4    S    
C2    O3    A    
Cu1   N1    S    
C40   C42   A    
C4    C35   S    
Cu1   O3    S    
C16   H18   S    
C6    H10   S    
C27   F1    S    
C14   C19   S    
C22   O6    A    
C15   C20   A    
C30   C34   A    
C27   C31   A    
C28   C32   A    
C5    N1    A    
C10   C14   A    
C25   C26   S    
C21   O8    A    
C30   C37   A    
C12   H16   S    
Cu1   Cu2   S    
C5    C9    A    
C7    N1    A    
C4    C39   A    
C28   C38   A    
C8    C12   A    
C15   H17   S    
Cu2   O8    S    
C1    C38   S    
C39   H5    S    
C12   C14   A    
C3    C40   A    
C21   C23   S    
C33   H3    S    
C22   C24   S    
Cu2   O2    S    
C34   H4    S    
C28   F2    S    
C3    C41   A    
Cu1   O5    S    
C13   C20   S    
C32   H2    S    
C17   C20   A    
C6    C10   A    
C1    O4    A    
C17   H19   S    
C11   C13   A    
C2    C37   S    
C18   H20   S    
C4    C42   A    
C3    C36   S    
C27   C37   A    
C16   C19   A    
C40   H6    S    
C31   C35   A    
C1    O1    A    
Cu2   O6    S    
C9    H13   S    
C23   C25   T    
C30   F4    S    
C6    N2    A    
C29   F3    S    
Cu1   O1    S    
C31   H1    S    
C22   O7    A    
C41   H7    S    
C42   H8    S    
