data_mof_unit_52506.cif
_audit_creation_date              2012-12-11T14:07:22-0500
_audit_creation_method            fapswitch 2.2
_symmetry_space_group_name_H-M    P1
_symmetry_Int_Tables_number       1
_space_group_crystal_system       triclinic
_cell_length_a                    19.9126
_cell_length_b                    17.116252
_cell_length_c                    15.395552
_cell_angle_alpha                 90.000586
_cell_angle_beta                  53.362809
_cell_angle_gamma                 90.001251
_cell_volume                      4210.55381409

loop_
_atom_site_label
_atom_site_type_symbol
_atom_type_description
_atom_site_fract_x
_atom_site_fract_y
_atom_site_fract_z
_atom_type_partial_charge
C1    C     C_R   0.380197 0.198425 0.990263 0.165269
C2    C     C_R   0.380209 0.801570 0.990248 0.165267
C3    C     C_R   0.880192 0.698424 0.990269 0.165275
C4    C     C_R   0.880210 0.301569 0.990247 0.165271
C5    C     C_R   0.659795 0.908724 0.067258 -0.125883
C6    C     C_R   0.659839 0.091244 0.067183 -0.125864
C7    C     C_R   0.159794 0.408724 0.067260 -0.125879
C8    C     C_R   0.159830 0.591251 0.067199 -0.125871
C9    C     C_R   0.697117 0.157858 0.003938 0.130925
C10   C     C_R   0.697056 0.842097 0.004042 0.130975
C11   C     C_R   0.197102 0.657870 0.003963 0.130939
C12   C     C_R   0.197049 0.342091 0.004052 0.130976
C13   C     C_R   0.616487 0.819153 0.692547 0.022625
C14   C     C_R   0.616478 0.180848 0.692551 0.022631
C15   C     C_R   0.116485 0.319153 0.692548 0.022626
C16   C     C_R   0.116476 0.680850 0.692553 0.022630
C17   C     C_3   0.200043 0.133225 0.520397 -0.371374
C18   C     C_3   0.200041 0.866781 0.520404 -0.371377
C19   C     C_3   0.700039 0.633224 0.520398 -0.371374
C20   C     C_3   0.700041 0.366777 0.520398 -0.371375
C21   C     C_3   0.146355 0.182085 0.624125 -0.380755
C22   C     C_3   0.146369 0.817921 0.624134 -0.380785
C23   C     C_3   0.646359 0.682084 0.624127 -0.380766
C24   C     C_3   0.646364 0.317918 0.624129 -0.380778
C25   C     C_3   0.310446 0.239658 0.438433 -0.435273
C26   C     C_3   0.310434 0.760343 0.438425 -0.435272
C27   C     C_3   0.810445 0.739653 0.438432 -0.435270
C28   C     C_3   0.810439 0.260344 0.438431 -0.435274
C29   C     C_3   0.696751 0.742278 0.411721 0.066596
C30   C     C_3   0.696741 0.257725 0.411726 0.066601
C31   C     C_3   0.196753 0.242280 0.411720 0.066609
C32   C     C_3   0.196729 0.757735 0.411734 0.066599
C33   C     C_3   0.255211 0.188149 0.421063 0.280566
C34   C     C_3   0.255198 0.811859 0.421066 0.280561
C35   C     C_3   0.755208 0.688146 0.421063 0.280566
C36   C     C_3   0.755204 0.311853 0.421064 0.280564
C37   C     C_3   0.662710 0.770405 0.595730 0.329981
C38   C     C_3   0.662703 0.229597 0.595733 0.329984
C39   C     C_3   0.162710 0.270406 0.595731 0.329982
C40   C     C_3   0.162699 0.729600 0.595735 0.329982
C41   C     C_3   0.756040 0.789137 0.539535 -0.384893
C42   C     C_3   0.756031 0.210858 0.539532 -0.384893
C43   C     C_3   0.256039 0.289135 0.539542 -0.384889
C44   C     C_3   0.256027 0.710853 0.539522 -0.384894
C45   C     C_R   0.351747 0.827211 0.218956 -0.083793
C46   C     C_R   0.351754 0.172792 0.218955 -0.083792
C47   C     C_R   0.851751 0.327208 0.218955 -0.083787
C48   C     C_R   0.851752 0.672791 0.218955 -0.083800
C49   C     C_3   0.639715 0.788862 0.517350 -0.448983
C50   C     C_3   0.639700 0.211146 0.517360 -0.448984
C51   C     C_3   0.139721 0.288867 0.517346 -0.448992
C52   C     C_3   0.139685 0.711159 0.517370 -0.448977
C53   C     C_2   0.261096 0.701948 0.995701 -0.128006
C54   C     C_2   0.261029 0.298003 0.995805 -0.128002
C55   C     C_2   0.761112 0.201936 0.995676 -0.128000
C56   C     C_2   0.761025 0.798002 0.995809 -0.127991
C57   C     C_2   0.803846 0.255878 0.918480 -0.178966
C58   C     C_2   0.803788 0.744096 0.918568 -0.178963
C59   C     C_2   0.303833 0.755885 0.918498 -0.178961
C60   C     C_2   0.303784 0.244092 0.918569 -0.178956
C61   C     C_R   0.364568 0.889477 0.898312 -0.156378
C62   C     C_R   0.364554 0.110514 0.898330 -0.156381
C63   C     C_R   0.864570 0.389476 0.898310 -0.156378
C64   C     C_R   0.864546 0.610511 0.898340 -0.156375
C65   C     C_R   0.364801 0.086238 0.316411 -0.123087
C66   C     C_R   0.364795 0.913768 0.316410 -0.123082
C67   C     C_R   0.864797 0.586235 0.316410 -0.123084
C68   C     C_R   0.864798 0.413764 0.316410 -0.123089
C69   C     C_R   0.348363 0.186699 0.933436 0.103925
C70   C     C_R   0.348387 0.813288 0.933404 0.103916
C71   C     C_R   0.848353 0.686697 0.933450 0.103919
C72   C     C_R   0.848389 0.313285 0.933401 0.103916
C73   C     C_R   0.313881 0.856097 0.322215 0.036772
C74   C     C_R   0.313891 0.143911 0.322215 0.036763
C75   C     C_R   0.813887 0.356091 0.322215 0.036767
C76   C     C_R   0.813888 0.643907 0.322215 0.036769
C77   C     C_R   0.652657 0.184603 0.967601 -0.102042
C78   C     C_R   0.652620 0.815369 0.967664 -0.102083
C79   C     C_R   0.152647 0.684611 0.967619 -0.102053
C80   C     C_R   0.152614 0.315364 0.967675 -0.102078
C81   C     C_R   0.606602 0.803219 0.787610 -0.119283
C82   C     C_R   0.606594 0.196783 0.787613 -0.119311
C83   C     C_R   0.106601 0.303219 0.787610 -0.119277
C84   C     C_R   0.106593 0.696784 0.787614 -0.119307
C85   C     C_R   0.596992 0.103615 0.693560 -0.142325
C86   C     C_R   0.596995 0.896384 0.693559 -0.142327
C87   C     C_R   0.096991 0.603617 0.693561 -0.142324
C88   C     C_R   0.096994 0.396384 0.693559 -0.142333
H1    H     H_    0.159299 0.096151 0.510337 0.200249
H2    H     H_    0.159286 0.903849 0.510360 0.200250
H3    H     H_    0.659287 0.596157 0.510343 0.200252
H4    H     H_    0.659290 0.403844 0.510346 0.200249
H5    H     H_    0.578909 0.668447 0.666392 0.189339
H6    H     H_    0.578914 0.331559 0.666403 0.189337
H7    H     H_    0.078906 0.168449 0.666376 0.189343
H8    H     H_    0.078919 0.831568 0.666421 0.189337
H9    H     H_    0.163045 0.165131 0.678701 0.158289
H10   H     H_    0.163094 0.834861 0.678680 0.158286
H11   H     H_    0.663062 0.665133 0.678692 0.158291
H12   H     H_    0.663077 0.334865 0.678685 0.158288
H13   H     H_    0.352180 0.202716 0.447109 0.180649
H14   H     H_    0.352165 0.797283 0.447112 0.180652
H15   H     H_    0.852173 0.702709 0.447116 0.180648
H16   H     H_    0.852169 0.297286 0.447117 0.180650
H17   H     H_    0.773298 0.777385 0.595126 0.168116
H18   H     H_    0.773294 0.222602 0.595120 0.168118
H19   H     H_    0.273294 0.277373 0.595135 0.168115
H20   H     H_    0.273297 0.722587 0.595106 0.168122
H21   H     H_    0.735149 0.785369 0.345583 0.107588
H22   H     H_    0.735134 0.214631 0.345591 0.107588
H23   H     H_    0.235150 0.285368 0.345579 0.107581
H24   H     H_    0.235118 0.714641 0.345600 0.107588
H25   H     H_    0.572697 0.774804 0.557535 0.192886
H26   H     H_    0.572684 0.225212 0.557548 0.192888
H27   H     H_    0.072701 0.274818 0.557528 0.192882
H28   H     H_    0.072670 0.725235 0.557565 0.192891
H29   H     H_    0.648603 0.851725 0.495359 0.142608
H30   H     H_    0.648575 0.148282 0.495373 0.142606
H31   H     H_    0.148618 0.351730 0.495351 0.142609
H32   H     H_    0.148548 0.648295 0.495387 0.142604
H33   H     H_    0.351422 0.278650 0.367422 0.181308
H34   H     H_    0.351413 0.721360 0.367405 0.181306
H35   H     H_    0.851427 0.778640 0.367417 0.181308
H36   H     H_    0.851419 0.221358 0.367414 0.181307
H37   H     H_    0.331485 0.778845 0.195456 0.133852
H38   H     H_    0.331495 0.221158 0.195454 0.133849
H39   H     H_    0.831491 0.278840 0.195454 0.133855
H40   H     H_    0.831493 0.721157 0.195454 0.133852
H41   H     H_    0.797000 0.263858 0.854147 0.125491
H42   H     H_    0.796969 0.736147 0.854206 0.125496
H43   H     H_    0.296984 0.763864 0.854168 0.125489
H44   H     H_    0.296946 0.236132 0.854226 0.125491
H45   H     H_    0.356868 0.916323 0.841145 0.106107
H46   H     H_    0.356844 0.083664 0.841172 0.106115
H47   H     H_    0.856873 0.416321 0.841139 0.106107
H48   H     H_    0.856835 0.583663 0.841182 0.106116
H49   H     H_    0.362665 0.061530 0.382238 0.082419
H50   H     H_    0.362658 0.938479 0.382237 0.082419
H51   H     H_    0.862659 0.561525 0.382239 0.082418
H52   H     H_    0.862663 0.438474 0.382237 0.082419
H53   H     H_    0.660128 0.238351 0.925833 0.104467
H54   H     H_    0.660075 0.761613 0.925919 0.104503
H55   H     H_    0.160112 0.738362 0.925858 0.104472
H56   H     H_    0.160064 0.261606 0.925933 0.104502
H57   H     H_    0.613170 0.747804 0.815216 0.120693
H58   H     H_    0.613155 0.252201 0.815222 0.120700
H59   H     H_    0.113170 0.247804 0.815215 0.120691
H60   H     H_    0.113152 0.752201 0.815226 0.120700
H61   H     H_    0.592939 0.072329 0.635986 0.091962
H62   H     H_    0.592938 0.927668 0.635986 0.091964
H63   H     H_    0.092938 0.572330 0.635986 0.091960
H64   H     H_    0.092937 0.427668 0.635987 0.091966
H65   H     H_    0.674710 0.936057 0.116951 0.108574
H66   H     H_    0.674783 0.063895 0.116835 0.108585
H67   H     H_    0.174717 0.436063 0.116941 0.108573
H68   H     H_    0.174772 0.563902 0.116854 0.108581
H69   H     H_    0.238737 0.092863 0.530173 0.143231
H70   H     H_    0.238739 0.907150 0.530167 0.143228
H71   H     H_    0.738730 0.592855 0.530170 0.143230
H72   H     H_    0.738736 0.407147 0.530166 0.143229
N1    N     N_R   0.408680 0.130160 0.995800 -0.056923
N2    N     N_R   0.408680 0.869840 0.995800 -0.056919
N3    N     N_R   0.908680 0.630160 0.995800 -0.056924
N4    N     N_R   0.908680 0.369840 0.995800 -0.056918
N5    N     N_R   0.421680 0.867580 0.153120 -0.035329
N6    N     N_R   0.421680 0.132420 0.153120 -0.035332
N7    N     N_R   0.921680 0.367580 0.153120 -0.035329
N8    N     N_R   0.921680 0.632420 0.153120 -0.035333
N9    N     N_R   0.403730 0.921770 0.935950 -0.048949
N10   N     N_R   0.403730 0.078230 0.935950 -0.048951
N11   N     N_R   0.903730 0.421770 0.935950 -0.048949
N12   N     N_R   0.903730 0.578230 0.935950 -0.048953
N13   N     N_R   0.426630 0.075970 0.212960 -0.040696
N14   N     N_R   0.426630 0.924030 0.212960 -0.040698
N15   N     N_R   0.926630 0.575970 0.212960 -0.040697
N16   N     N_R   0.926630 0.424030 0.212960 -0.040696
N17   N     N_R   0.591320 0.134600 0.004200 -0.043721
N18   N     N_R   0.591320 0.865400 0.004200 -0.043719
N19   N     N_R   0.091320 0.634600 0.004200 -0.043723
N20   N     N_R   0.091320 0.365400 0.004200 -0.043721
N21   N     N_R   0.578320 0.867660 0.846880 -0.036056
N22   N     N_R   0.578320 0.132340 0.846880 -0.036060
N23   N     N_R   0.078320 0.367660 0.846880 -0.036056
N24   N     N_R   0.078320 0.632340 0.846880 -0.036061
N25   N     N_R   0.573370 0.074390 0.787040 -0.039099
N26   N     N_R   0.573370 0.925610 0.787040 -0.039100
N27   N     N_R   0.073370 0.574390 0.787040 -0.039099
N28   N     N_R   0.073370 0.425610 0.787040 -0.039100
N29   N     N_R   0.596270 0.927870 0.064040 -0.050924
N30   N     N_R   0.596270 0.072130 0.064040 -0.050925
N31   N     N_R   0.096270 0.427870 0.064040 -0.050923
N32   N     N_R   0.096270 0.572130 0.064040 -0.050924
Ni1   Ni    Ni4+2 0.500000 0.131190 0.000000 0.253802
Ni2   Ni    Ni4+2 0.500000 0.868810 0.000000 0.253800
Ni3   Ni    Ni4+2 1.000000 0.631190 0.000000 0.253799
Ni4   Ni    Ni4+2 0.000000 0.368810 0.000000 0.253799
Ni5   Ni    Ni4+2 0.488650 1.000000 0.862740 0.211753
Ni6   Ni    Ni4+2 0.988650 0.500000 0.862740 0.211753
Ni7   Ni    Ni4+2 0.511350 0.000000 0.137260 0.223413
Ni8   Ni    Ni4+2 0.011350 0.500000 0.137260 0.223412
I1    I     I_    0.430897 0.306322 0.997425 -0.499200
I2    I     I_    0.430922 0.693686 0.997416 -0.499227
I3    I     I_    0.930892 0.806322 0.997426 -0.499193
I4    I     I_    0.930927 0.193687 0.997412 -0.499231
I5    I     I_    0.624151 0.681096 0.370761 -0.450304
I6    I     I_    0.624149 0.318912 0.370762 -0.450270
I7    I     I_    0.124150 0.181092 0.370770 -0.450291
I8    I     I_    0.124139 0.818929 0.370773 -0.450265
H73   H     H_    0.768644 0.852117 0.516960 0.173156
H74   H     H_    0.768628 0.147879 0.516953 0.173153
H75   H     H_    0.268644 0.352116 0.516976 0.173156
H76   H     H_    0.268618 0.647875 0.516936 0.173150
H77   H     H_    0.264679 0.696405 0.062977 0.163189
H78   H     H_    0.264605 0.303530 0.063088 0.163187
H79   H     H_    0.764690 0.196393 0.062955 0.163193
H80   H     H_    0.764582 0.803514 0.063110 0.163184

loop_
_geom_bond_atom_site_label_1
_geom_bond_atom_site_label_2
_ccdc_geom_bond_type
C61   C70   A    
N8    N15   A    
C49   H25   S    
C64   H48   S    
C22   H10   S    
N13   Ni7   S    
C3    I3    S    
N7    Ni4   S    
C48   C76   A    
C39   C51   S    
C34   C73   S    
C2    I2    S    
N6    Ni1   S    
C81   N21   A    
C1    I1    S    
N5    Ni2   S    
C2    N2    A    
C6    C9    A    
C68   N16   A    
C26   C44   S    
C54   C60   D    
C68   C75   A    
C20   H4    S    
C59   H43   S    
N14   Ni7   S    
N17   Ni1   S    
C30   H22   S    
C80   N20   A    
C57   H41   S    
C58   H42   S    
C38   C42   S    
N11   Ni6   S    
C32   H24   S    
C78   H54   S    
C55   H79   S    
C5    H65   S    
C58   C71   S    
C4    I4    S    
C14   C38   S    
C30   I6    S    
C13   C81   A    
C16   C84   A    
C37   C49   S    
C45   C73   A    
C64   C71   A    
C28   C42   S    
C28   H16   S    
C32   C52   S    
C15   C88   A    
C63   N11   A    
C26   C34   S    
C49   H29   S    
N19   N32   A    
C20   C24   S    
C45   H37   S    
C80   H56   S    
N8    Ni3   S    
C66   H50   S    
C13   C86   A    
C16   C87   A    
C51   H31   S    
C31   C33   S    
N26   Ni5   S    
N12   Ni6   S    
C9    C55   S    
N28   Ni6   S    
C32   I8    S    
C18   C22   S    
C67   H51   S    
C40   C44   S    
C13   C37   S    
C11   C53   S    
C3    N3    A    
C65   H49   S    
N29   Ni7   S    
C44   H20   S    
C30   C50   S    
C1    N1    A    
N2    Ni2   S    
C87   H63   S    
C1    C69   A    
C88   H64   S    
C7    N31   A    
C17   C33   S    
N16   Ni8   S    
C82   H58   S    
N30   Ni7   S    
C41   H17   S    
C85   H61   S    
C52   H28   S    
C85   N25   A    
C7    C12   A    
C62   N10   A    
C79   H55   S    
C35   C76   S    
N27   Ni6   S    
C61   H45   S    
C18   H2    S    
C84   N24   A    
C17   H1    S    
N31   Ni8   S    
C10   C56   S    
C67   N15   A    
N18   N29   A    
C27   H35   S    
C19   C23   S    
C20   C36   S    
N19   Ni3   S    
C21   H7    S    
C27   C35   S    
N5    N14   A    
C40   C52   S    
C66   C73   A    
C51   H27   S    
C65   C74   A    
C23   H5    S    
C62   C69   A    
C77   N17   A    
C44   H76   S    
N22   N25   A    
C32   C34   S    
C64   N12   A    
C84   H60   S    
C3    C71   A    
C31   I7    S    
C18   H70   S    
C36   C75   S    
C24   H6    S    
C48   H40   S    
C47   N7    A    
C23   H11   S    
C27   C41   S    
C24   C38   S    
C48   N8    A    
N3    Ni3   S    
N21   N26   A    
C22   C40   S    
C6    N30   A    
C4    C72   A    
C4    N4    A    
N23   Ni4   S    
N1    Ni1   S    
N22   Ni1   S    
C43   H19   S    
C29   C49   S    
N21   Ni2   S    
C18   C34   S    
C15   C39   S    
C6    H66   S    
C11   C79   A    
C16   C40   S    
C83   H59   S    
N1    N10   A    
C52   H32   S    
C25   C43   S    
C43   H75   S    
C86   N26   A    
N18   Ni2   S    
C50   H30   S    
C55   C57   D    
N4    Ni4   S    
C79   N19   A    
C68   H52   S    
C61   N9    A    
C14   C82   A    
C46   C74   A    
C17   H69   S    
N9    Ni5   S    
C29   H21   S    
C54   H78   S    
C82   N22   A    
C83   N23   A    
N6    N13   A    
C53   H77   S    
N17   N30   A    
C46   N6    A    
C53   C59   D    
C78   N18   A    
C22   H8    S    
C21   C39   S    
C46   H38   S    
N3    N12   A    
C14   C85   A    
C31   C51   S    
N20   N31   A    
C42   H74   S    
C29   I5    S    
C87   N27   A    
C24   H12   S    
C28   H36   S    
C47   H39   S    
C38   C50   S    
N24   Ni3   S    
C26   H34   S    
C29   C35   S    
C81   H57   S    
N24   N27   A    
C30   C36   S    
C19   H71   S    
C62   H46   S    
C86   H62   S    
C9    C77   A    
C41   H73   S    
C5    C10   A    
C23   C37   S    
N23   N28   A    
C26   H14   S    
C25   H13   S    
N2    N9    A    
C25   H33   S    
C60   C69   S    
C8    N32   A    
C8    C11   A    
C15   C83   A    
C12   C80   A    
C27   H15   S    
C56   C58   D    
N20   Ni4   S    
N32   Ni8   S    
C57   C72   S    
C37   C41   S    
C8    H68   S    
C65   N13   A    
C77   H53   S    
N15   Ni8   S    
C56   H80   S    
C19   H3    S    
C21   H9    S    
C59   C70   S    
C47   C75   A    
C42   H18   S    
C33   C74   S    
C88   N28   A    
C7    H67   S    
C63   C72   A    
C28   C36   S    
C20   H72   S    
C39   C43   S    
C25   C33   S    
N25   Ni5   S    
C31   H23   S    
C5    N29   A    
C66   N14   A    
N4    N11   A    
C19   C35   S    
C67   C76   A    
C60   H44   S    
C10   C78   A    
C50   H26   S    
C2    C70   A    
C45   N5    A    
N10   Ni5   S    
C12   C54   S    
C63   H47   S    
N7    N16   A    
C17   C21   S    
