data_mof_unit_55027.cif
_audit_creation_date              2012-10-26T20:44:07-0400
_audit_creation_method            fapswitch 2.2
_symmetry_space_group_name_H-M    P1
_symmetry_Int_Tables_number       1
_space_group_crystal_system       triclinic
_cell_length_a                    10.829775
_cell_length_b                    9.494027
_cell_length_c                    19.430015
_cell_angle_alpha                 90.300176
_cell_angle_beta                  90.727184
_cell_angle_gamma                 90.604251
_cell_volume                      1997.45788223

loop_
_atom_site_label
_atom_site_type_symbol
_atom_type_description
_atom_site_fract_x
_atom_site_fract_y
_atom_site_fract_z
_atom_type_partial_charge
C1    C     C_R   0.872072 0.504261 0.494688 -0.031484
C2    C     C_R   0.737897 0.501055 0.497988 0.566008
C3    C     C_R   0.497812 0.499530 0.367782 0.591381
C4    C     C_R   0.497160 0.500200 0.632307 0.552180
C5    C     C_R   0.064078 0.391475 0.464107 0.224739
C6    C     C_R   0.937528 0.614626 0.527968 0.221913
C7    C     C_R   0.934963 0.395451 0.460248 0.156975
C8    C     C_R   0.065542 0.606259 0.535216 0.150351
C9    C     C_R   0.413663 0.396715 0.739974 0.213795
C10   C     C_R   0.406224 0.590792 0.259109 0.203037
C11   C     C_R   0.553787 0.398235 0.254107 0.205335
C12   C     C_R   0.128489 0.497211 0.501332 -0.037294
C13   C     C_R   0.548399 0.604175 0.748215 0.225776
C14   C     C_R   0.404176 0.396270 0.811717 -0.125117
C15   C     C_R   0.397838 0.589855 0.187191 -0.129073
C16   C     C_R   0.545528 0.400466 0.182116 -0.127511
C17   C     C_R   0.533529 0.605107 0.819380 -0.111609
C18   C     C_R   0.463464 0.500481 0.851806 -0.064032
C19   C     C_R   0.467000 0.494949 0.148307 -0.055352
C20   C     C_R   0.420998 0.073147 0.457985 0.004545
C21   C     C_R   0.578961 0.926876 0.542038 0.042584
C22   C     C_R   0.578985 0.075879 0.542037 0.037136
C23   C     C_R   0.448368 0.624897 0.965056 -0.114681
C24   C     C_R   0.420991 0.924188 0.458024 0.015516
C25   C     C_R   0.487590 0.499898 0.707717 0.016004
C26   C     C_R   0.487655 0.497820 0.292552 0.038409
C27   C     C_3   0.228290 0.327506 0.693989 0.008882
C28   C     C_3   0.164173 0.217120 0.648008 -0.235278
C29   C     C_3   0.026165 0.245330 0.640427 -0.478935
C30   C     C_3   0.212877 0.641901 0.296465 0.003324
C31   C     C_3   0.139391 0.739688 0.343020 -0.256879
C32   C     C_3   0.001305 0.706034 0.339205 -0.473617
C33   C     C_3   0.595443 0.167695 0.278166 0.013292
C34   C     C_R   0.462419 0.369020 0.034939 -0.112750
C35   C     C_3   0.671978 0.072964 0.325272 -0.252617
C36   C     C_3   0.636411 0.917930 0.315698 -0.467821
C37   C     C_3   0.735945 0.663794 0.702430 0.026712
C38   C     C_3   0.821498 0.656050 0.765863 -0.293272
C39   C     C_3   0.954017 0.624851 0.745066 -0.473287
C40   C     C_R   0.450942 0.623764 0.036700 -0.112173
C41   C     C_R   0.461577 0.370291 0.963265 -0.111710
C42   C     C_R   0.459121 0.495882 0.072363 0.038894
C43   C     C_R   0.455826 0.498374 0.927625 0.034330
C44   C     C_R   0.262282 0.499120 0.500700 0.568625
Cu1   Cu    Cu3+1 0.500000 0.640660 0.500000 0.989348
Cu2   Cu    Cu3+1 0.500000 0.359340 0.500000 0.984065
H1    H     H_    0.358220 0.128342 0.424116 0.145262
H2    H     H_    0.466551 0.268680 0.061066 0.095060
H3    H     H_    0.449473 0.723352 0.064064 0.099693
H4    H     H_    0.468712 0.271186 0.935855 0.104643
H5    H     H_    0.074037 0.219517 0.407725 0.367212
H6    H     H_    0.931264 0.802613 0.570235 0.362810
H7    H     H_    0.801486 0.341436 0.397784 0.359272
H8    H     H_    0.195302 0.656474 0.600956 0.328693
H9    H     H_    0.218270 0.432707 0.669406 0.114113
H10   H     H_    0.182222 0.328445 0.744945 0.124032
H11   H     H_    0.206729 0.217938 0.596279 0.211061
H12   H     H_    0.642004 0.871670 0.575714 0.155448
H13   H     H_    0.176984 0.110856 0.670601 0.184295
H14   H     H_    0.980680 0.237686 0.691205 0.140446
H15   H     H_    0.983363 0.166166 0.604981 0.171519
H16   H     H_    0.010641 0.351807 0.618950 0.141281
H17   H     H_    0.203652 0.532197 0.316240 0.153092
H18   H     H_    0.172941 0.647012 0.243450 0.130102
H19   H     H_    0.172055 0.728076 0.397040 0.188476
H20   H     H_    0.154774 0.850864 0.327317 0.167805
H21   H     H_    0.964629 0.726583 0.286607 0.147631
H22   H     H_    0.951581 0.773580 0.376317 0.166691
H23   H     H_    0.642183 0.133300 0.575687 0.123060
H24   H     H_    0.983798 0.594028 0.352269 0.162511
H25   H     H_    0.608607 0.133005 0.223997 0.123243
H26   H     H_    0.496169 0.155104 0.291890 0.133051
H27   H     H_    0.771645 0.086950 0.313743 0.193491
H28   H     H_    0.657402 0.103946 0.379765 0.205475
H29   H     H_    0.536410 0.901546 0.325075 0.183761
H30   H     H_    0.689714 0.852841 0.352694 0.170781
H31   H     H_    0.657511 0.882510 0.262608 0.145102
H32   H     H_    0.775596 0.742796 0.667173 0.201538
H33   H     H_    0.733654 0.561136 0.674332 0.132613
H34   H     H_    0.358377 0.866902 0.424127 0.139306
H35   H     H_    0.819827 0.757923 0.794264 0.171823
H36   H     H_    0.789272 0.571215 0.800670 0.154354
H37   H     H_    0.957819 0.522928 0.716932 0.148149
H38   H     H_    0.013696 0.618197 0.791799 0.143623
H39   H     H_    0.990400 0.709935 0.711670 0.185126
H40   H     H_    0.348640 0.315300 0.835803 0.123853
H41   H     H_    0.336267 0.662925 0.161910 0.117913
H42   H     H_    0.603197 0.330691 0.152591 0.118714
H43   H     H_    0.581052 0.685830 0.849453 0.129686
H44   H     H_    0.441773 0.725082 0.938963 0.103416
N1    N     N_R   0.500000 0.852070 0.500000 -0.231104
N2    N     N_R   0.500000 0.147930 0.500000 -0.234451
O1    O     O_R   0.319640 0.618740 0.500000 -0.501190
O2    O     O_3   0.873475 0.726723 0.555188 -0.721026
O3    O     O_3   0.873470 0.296086 0.420060 -0.713981
O4    O     O_3   0.125900 0.703705 0.577102 -0.713492
O5    O     O_3   0.354204 0.292584 0.701560 -0.545125
O6    O     O_3   0.338023 0.685847 0.296904 -0.579202
O7    O     O_3   0.635641 0.308899 0.287067 -0.569398
O8    O     O_3   0.616796 0.711906 0.719229 -0.566789
O9    O     O_R   0.680360 0.381260 0.500000 -0.507009
O10   O     O_R   0.680360 0.618740 0.500000 -0.459195
O11   O     O_R   0.319640 0.381260 0.500000 -0.461541
O12   O     O_R   0.500020 0.618830 0.400190 -0.486809
O13   O     O_R   0.499980 0.381170 0.599810 -0.474020
O14   O     O_R   0.499980 0.618830 0.599810 -0.479231
O15   O     O_R   0.500020 0.381170 0.400190 -0.491758
O16   O     O_3   0.130420 0.289984 0.429361 -0.702567

loop_
_geom_bond_atom_site_label_1
_geom_bond_atom_site_label_2
_ccdc_geom_bond_type
C3    O12   A    
C31   H20   S    
C35   H28   S    
C30   H18   S    
H7    O3    S    
C4    O13   A    
C14   C18   A    
C35   C36   S    
C8    O4    S    
Cu1   O1    S    
C4    C25   S    
C9    C25   A    
C28   H11   S    
C15   C19   A    
C20   N2    A    
C28   C29   S    
C36   H29   S    
C39   H38   S    
C10   C15   A    
C38   C39   S    
C27   H9    S    
Cu2   N2    S    
C2    O10   A    
C23   C40   A    
Cu2   O13   S    
C23   C43   A    
C11   O7    S    
C1    C2    S    
C10   O6    S    
C44   O1    A    
C36   H30   S    
C33   H26   S    
C24   H34   S    
C27   O5    S    
C20   C24   A    
H5    O16   S    
C6    O2    S    
C34   C42   A    
H6    O2    S    
C22   H23   S    
H8    O4    S    
C19   C42   S    
C32   H22   S    
C10   C26   A    
C40   C42   A    
C21   C22   A    
C38   H36   S    
C41   C43   A    
C13   C25   A    
C34   C41   A    
C44   O11   A    
Cu2   O9    S    
C29   H15   S    
C1    C6    A    
C17   H43   S    
C14   H40   S    
C5    C12   A    
C5    C7    A    
C27   H10   S    
C6    C8    A    
C11   C26   A    
C3    O15   A    
Cu1   Cu2   S    
C4    O14   A    
C33   O7    S    
C9    C14   A    
C37   C38   S    
Cu1   O12   S    
C37   H33   S    
C11   C16   A    
C31   C32   S    
C29   H14   S    
C8    C12   A    
Cu2   O15   S    
C17   C18   A    
C23   H44   S    
C32   H21   S    
C38   H35   S    
C34   H2    S    
C39   H39   S    
C24   N1    A    
C41   H4    S    
Cu1   O14   S    
C15   H41   S    
C21   N1    A    
C28   H13   S    
C31   H19   S    
C29   H16   S    
C35   H27   S    
C9    O5    S    
C1    C7    A    
C3    C26   S    
C32   H24   S    
C7    O3    S    
Cu2   O11   S    
C30   O6    S    
C2    O9    A    
C13   C17   A    
C36   H31   S    
C13   O8    S    
C39   H37   S    
C21   H12   S    
C12   C44   S    
C18   C43   S    
C30   C31   S    
C16   C19   A    
C33   C35   S    
Cu1   N1    S    
C20   H1    S    
Cu1   O10   S    
C33   H25   S    
C27   C28   S    
C16   H42   S    
C22   N2    A    
C30   H17   S    
C37   H32   S    
C37   O8    S    
C40   H3    S    
C5    O16   S    
