data_mof_unit_7267.cif
_audit_creation_date              2012-12-11T14:44:31-0500
_audit_creation_method            fapswitch 2.2
_symmetry_space_group_name_H-M    P1
_symmetry_Int_Tables_number       1
_space_group_crystal_system       triclinic
_cell_length_a                    25.066916
_cell_length_b                    16.766101
_cell_length_c                    15.735413
_cell_angle_alpha                 89.999976
_cell_angle_beta                  49.242825
_cell_angle_gamma                 89.99993
_cell_volume                      5009.38204894

loop_
_atom_site_label
_atom_site_type_symbol
_atom_type_description
_atom_site_fract_x
_atom_site_fract_y
_atom_site_fract_z
_atom_type_partial_charge
C1    C     C_R   0.350806 0.145701 0.762003 -0.138670
C2    C     C_R   0.666465 0.890690 0.194106 0.013149
C3    C     C_R   0.649195 0.145700 0.237996 -0.138664
C4    C     C_R   0.333535 0.890691 0.805894 0.013154
C5    C     C_R   0.850806 0.645701 0.762003 -0.138664
C6    C     C_R   0.166465 0.390690 0.194106 0.013149
C7    C     C_R   0.149194 0.645701 0.237997 -0.138665
C8    C     C_R   0.833535 0.390690 0.805894 0.013149
C9    C     C_3   0.234793 0.192149 0.414338 -0.116780
C10   C     C_3   0.717262 0.739260 0.594691 -0.082033
C11   C     C_3   0.765208 0.192147 0.585661 -0.116779
C12   C     C_3   0.282735 0.739266 0.405310 -0.082030
C13   C     C_3   0.734790 0.692145 0.414338 -0.116777
C14   C     C_3   0.217263 0.239266 0.594691 -0.082033
C15   C     C_3   0.265208 0.692147 0.585660 -0.116779
C16   C     C_3   0.782736 0.239264 0.405310 -0.082032
C17   C     C_2   0.644577 0.260369 0.137336 -0.082163
C18   C     C_2   0.306450 0.841961 0.983934 -0.093224
C19   C     C_2   0.355424 0.260370 0.862663 -0.082164
C20   C     C_2   0.693550 0.841961 0.016066 -0.093222
C21   C     C_2   0.144575 0.760371 0.137338 -0.082162
C22   C     C_2   0.806450 0.341961 0.983933 -0.093222
C23   C     C_2   0.855423 0.760370 0.862664 -0.082164
C24   C     C_2   0.193550 0.341961 0.016066 -0.093223
C25   C     C_2   0.683122 0.310184 0.146318 -0.099869
C26   C     C_2   0.237444 0.861903 0.052779 -0.113516
C27   C     C_2   0.316878 0.310185 0.853681 -0.099869
C28   C     C_2   0.762556 0.861903 0.947221 -0.113514
C29   C     C_2   0.183122 0.810184 0.146319 -0.099869
C30   C     C_2   0.737444 0.361903 0.052779 -0.113514
C31   C     C_2   0.816878 0.810184 0.853682 -0.099868
C32   C     C_2   0.262556 0.361903 0.947221 -0.113514
C33   C     C_R   0.610779 0.118626 0.592233 -0.251813
C34   C     C_R   0.413012 0.851875 0.405645 -0.245894
C35   C     C_R   0.389222 0.118628 0.407767 -0.251814
C36   C     C_R   0.586987 0.851874 0.594355 -0.245893
C37   C     C_R   0.110778 0.618627 0.592233 -0.251813
C38   C     C_R   0.913012 0.351875 0.405645 -0.245893
C39   C     C_R   0.889220 0.618623 0.407767 -0.251815
C40   C     C_R   0.086987 0.351874 0.594355 -0.245894
C41   C     C_R   0.685516 0.119045 0.406304 0.575399
C42   C     C_R   0.336663 0.851941 0.591097 0.587921
C43   C     C_R   0.314484 0.119047 0.593696 0.575395
C44   C     C_R   0.663335 0.851940 0.408903 0.587926
C45   C     C_R   0.185516 0.619046 0.406304 0.575398
C46   C     C_R   0.836663 0.351941 0.591097 0.587924
C47   C     C_R   0.814483 0.619043 0.593695 0.575400
C48   C     C_R   0.163336 0.351940 0.408903 0.587927
C49   C     C_R   0.560760 0.141002 0.236652 -0.100339
C50   C     C_R   0.423201 0.890568 0.801915 -0.133349
C51   C     C_R   0.439240 0.141003 0.763347 -0.100340
C52   C     C_R   0.576799 0.890568 0.198085 -0.133348
C53   C     C_R   0.060759 0.641003 0.236653 -0.100339
C54   C     C_R   0.923201 0.390568 0.801915 -0.133349
C55   C     C_R   0.939240 0.641003 0.763348 -0.100340
C56   C     C_R   0.076799 0.390568 0.198085 -0.133348
C57   C     C_R   0.381681 0.185927 0.797222 -0.000665
C58   C     C_R   0.646745 0.870217 0.133041 -0.032465
C59   C     C_R   0.618320 0.185927 0.202776 -0.000670
C60   C     C_R   0.353255 0.870217 0.866959 -0.032465
C61   C     C_R   0.881680 0.685927 0.797223 -0.000669
C62   C     C_R   0.146744 0.370217 0.133041 -0.032464
C63   C     C_R   0.118319 0.685928 0.202778 -0.000669
C64   C     C_R   0.853255 0.370217 0.866959 -0.032464
C65   C     C_R   0.674923 0.145826 0.498041 -0.102199
C66   C     C_R   0.363033 0.806390 0.497829 -0.078303
C67   C     C_R   0.325078 0.145830 0.501959 -0.102197
C68   C     C_R   0.636965 0.806388 0.502171 -0.078309
C69   C     C_R   0.174922 0.645828 0.498041 -0.102200
C70   C     C_R   0.863034 0.306389 0.497829 -0.078306
C71   C     C_R   0.825075 0.645823 0.501959 -0.102199
C72   C     C_R   0.136965 0.306389 0.502171 -0.078307
C73   C     C_3   0.291225 0.234195 0.410311 -0.180519
C74   C     C_3   0.660516 0.697462 0.599261 -0.146715
C75   C     C_3   0.708775 0.234192 0.589689 -0.180517
C76   C     C_3   0.339481 0.697466 0.400738 -0.146710
C77   C     C_3   0.791223 0.734189 0.410311 -0.180514
C78   C     C_3   0.160519 0.197465 0.599260 -0.146710
C79   C     C_3   0.208775 0.734192 0.589690 -0.180517
C80   C     C_3   0.839482 0.197465 0.400739 -0.146712
C81   C     C_3   0.736623 0.793970 0.500338 -0.208460
C82   C     C_3   0.215989 0.136540 0.509240 -0.169547
C83   C     C_3   0.263374 0.793974 0.499664 -0.208465
C84   C     C_3   0.784014 0.136539 0.490758 -0.169551
C85   C     C_3   0.236623 0.293975 0.500339 -0.208461
C86   C     C_3   0.715984 0.636536 0.509240 -0.169553
C87   C     C_3   0.763375 0.293973 0.499662 -0.208462
C88   C     C_3   0.284013 0.636540 0.490757 -0.169549
C89   C     C_3   0.680597 0.751915 0.504146 0.203702
C90   C     C_3   0.271630 0.179938 0.504557 0.223429
C91   C     C_3   0.319401 0.751917 0.495853 0.203698
C92   C     C_3   0.728371 0.179935 0.495443 0.223427
C93   C     C_3   0.180599 0.251917 0.504146 0.203700
C94   C     C_3   0.771626 0.679931 0.504557 0.223426
C95   C     C_3   0.819401 0.251917 0.495853 0.203701
C96   C     C_3   0.228371 0.679936 0.495443 0.223426
H1    H     H_    0.303258 0.162277 0.779051 0.197058
H2    H     H_    0.719986 0.897120 0.159692 0.142842
H3    H     H_    0.696743 0.162277 0.220947 0.197061
H4    H     H_    0.280013 0.897121 0.840308 0.142836
H5    H     H_    0.803257 0.662277 0.779052 0.197061
H6    H     H_    0.219986 0.397120 0.159692 0.142841
H7    H     H_    0.196742 0.662277 0.220948 0.197059
H8    H     H_    0.780013 0.397120 0.840308 0.142842
H9    H     H_    0.591080 0.118146 0.677199 0.131624
H10   H     H_    0.439791 0.838371 0.318977 0.139279
H11   H     H_    0.408921 0.118149 0.322801 0.131624
H12   H     H_    0.560208 0.838369 0.681023 0.139279
H13   H     H_    0.091080 0.618147 0.677199 0.131624
H14   H     H_    0.939791 0.338371 0.318977 0.139279
H15   H     H_    0.908919 0.618143 0.322801 0.131625
H16   H     H_    0.060209 0.338370 0.681023 0.139280
H17   H     H_    0.525804 0.154401 0.220865 0.086752
H18   H     H_    0.452219 0.894099 0.830747 0.093106
H19   H     H_    0.474197 0.154401 0.779133 0.086752
H20   H     H_    0.547781 0.894099 0.169253 0.093106
H21   H     H_    0.025803 0.654402 0.220868 0.086753
H22   H     H_    0.952219 0.394099 0.830747 0.093106
H23   H     H_    0.974196 0.654401 0.779134 0.086752
H24   H     H_    0.047781 0.394099 0.169253 0.093105
H25   H     H_    0.744167 0.859498 0.497900 0.116676
H26   H     H_    0.209613 0.070773 0.513150 0.117328
H27   H     H_    0.255831 0.859502 0.502104 0.116676
H28   H     H_    0.790391 0.070772 0.486846 0.117328
H29   H     H_    0.244166 0.359503 0.497901 0.116676
H30   H     H_    0.709607 0.570769 0.513152 0.117328
H31   H     H_    0.755831 0.359501 0.502102 0.116675
H32   H     H_    0.290390 0.570773 0.486844 0.117327
H33   H     H_    0.345799 0.248981 0.333691 0.117639
H34   H     H_    0.605835 0.683246 0.675941 0.124328
H35   H     H_    0.654201 0.248976 0.666311 0.117638
H36   H     H_    0.394162 0.683251 0.324057 0.124328
H37   H     H_    0.845797 0.748973 0.333690 0.117638
H38   H     H_    0.105838 0.183248 0.675940 0.124328
H39   H     H_    0.154201 0.748977 0.666312 0.117639
H40   H     H_    0.894163 0.183249 0.324058 0.124329
H41   H     H_    0.240200 0.173042 0.341501 0.141804
H42   H     H_    0.711434 0.758794 0.667793 0.178339
H43   H     H_    0.759803 0.173041 0.658496 0.141804
H44   H     H_    0.288562 0.758800 0.332209 0.178338
H45   H     H_    0.740196 0.673039 0.341502 0.141804
H46   H     H_    0.211435 0.258799 0.667794 0.178337
H47   H     H_    0.259803 0.673040 0.658495 0.141803
H48   H     H_    0.788564 0.258798 0.332208 0.178339
H49   H     H_    0.219803 0.907327 0.026968 0.165873
H50   H     H_    0.685129 0.300645 0.212372 0.173289
H51   H     H_    0.780197 0.907327 0.973032 0.165872
H52   H     H_    0.314871 0.300646 0.787627 0.173289
H53   H     H_    0.719803 0.407327 0.026968 0.165872
H54   H     H_    0.185129 0.800645 0.212372 0.173290
H55   H     H_    0.280197 0.407327 0.973032 0.165872
H56   H     H_    0.814872 0.800645 0.787627 0.173289
N1    N     N_R   0.389620 0.081040 0.705440 -0.053789
N2    N     N_R   0.610380 0.918960 0.294560 -0.053015
N3    N     N_R   0.610380 0.081040 0.294560 -0.053788
N4    N     N_R   0.389620 0.918960 0.705440 -0.053014
N5    N     N_R   0.889620 0.581040 0.705440 -0.053788
N6    N     N_R   0.110380 0.418960 0.294560 -0.053015
N7    N     N_R   0.110380 0.581040 0.294560 -0.053788
N8    N     N_R   0.889620 0.418960 0.705440 -0.053015
N9    N     N_R   0.582320 0.079840 0.556630 -0.057710
N10   N     N_R   0.417680 0.920160 0.443370 -0.065223
N11   N     N_R   0.417680 0.079840 0.443370 -0.057710
N12   N     N_R   0.582320 0.920160 0.556630 -0.065223
N13   N     N_R   0.082320 0.579840 0.556630 -0.057710
N14   N     N_R   0.917680 0.420160 0.443370 -0.065223
N15   N     N_R   0.917680 0.579840 0.443370 -0.057710
N16   N     N_R   0.082320 0.420160 0.556630 -0.065223
N17   N     N_R   0.627920 0.078930 0.443400 -0.106096
N18   N     N_R   0.372080 0.921070 0.556600 -0.114273
N19   N     N_R   0.372080 0.078930 0.556600 -0.106096
N20   N     N_R   0.627920 0.921070 0.443400 -0.114275
N21   N     N_R   0.127920 0.578930 0.443400 -0.106095
N22   N     N_R   0.872080 0.421070 0.556600 -0.114274
N23   N     N_R   0.872080 0.578930 0.556600 -0.106095
N24   N     N_R   0.127920 0.421070 0.443400 -0.114275
N25   N     N_R   0.555090 0.077730 0.294590 -0.032774
N26   N     N_R   0.444910 0.922270 0.705410 -0.033841
N27   N     N_R   0.444910 0.077730 0.705410 -0.032774
N28   N     N_R   0.555090 0.922270 0.294590 -0.033841
N29   N     N_R   0.055090 0.577730 0.294590 -0.032774
N30   N     N_R   0.944910 0.422270 0.705410 -0.033841
N31   N     N_R   0.944910 0.577730 0.705410 -0.032774
N32   N     N_R   0.055090 0.422270 0.294590 -0.033842
Ni1   Ni    Ni4+2 0.382970 0.000000 0.629840 0.208333
Ni2   Ni    Ni4+2 0.617030 1.000000 0.370160 0.208334
Ni3   Ni    Ni4+2 0.882970 0.500000 0.629840 0.208334
Ni4   Ni    Ni4+2 0.117030 0.500000 0.370160 0.208333
Ni5   Ni    Ni4+2 0.514540 0.000000 0.629840 0.196627
Ni6   Ni    Ni4+2 0.485460 1.000000 0.370160 0.196628
Ni7   Ni    Ni4+2 0.014540 0.500000 0.629840 0.196627
Ni8   Ni    Ni4+2 0.985460 0.500000 0.370160 0.196627
O1    O     O_3   0.748814 0.122852 0.297266 -0.625760
C97   C     C_3   0.770770 0.045654 0.252825 -0.256305
H57   H     H_    0.735246 0.018422 0.241887 0.136714
H58   H     H_    0.775038 0.007959 0.306245 0.121194
H59   H     H_    0.823960 0.049423 0.168663 0.188067
O2    O     O_3   0.288925 0.825519 0.700447 -0.643060
C98   C     C_3   0.219571 0.846653 0.749064 -0.283328
H60   H     H_    0.185758 0.792882 0.788532 0.186112
H61   H     H_    0.213749 0.871981 0.690201 0.105172
H62   H     H_    0.198280 0.890292 0.817199 0.186562
O3    O     O_3   0.251185 0.122850 0.702733 -0.625759
C99   C     C_3   0.229234 0.045651 0.747172 -0.256288
H63   H     H_    0.264756 0.018426 0.758119 0.136715
H64   H     H_    0.224974 0.007953 0.693746 0.121189
H65   H     H_    0.176040 0.049417 0.831330 0.188061
O4    O     O_3   0.711075 0.825519 0.299552 -0.643061
C100  C     C_3   0.780428 0.846656 0.250939 -0.283320
H66   H     H_    0.814243 0.792887 0.211473 0.186112
H67   H     H_    0.786248 0.871986 0.309805 0.105168
H68   H     H_    0.801720 0.890295 0.182804 0.186561
O5    O     O_3   0.248814 0.622852 0.297266 -0.625759
C101  C     C_3   0.270769 0.545654 0.252826 -0.256302
H69   H     H_    0.235246 0.518423 0.241886 0.136714
H70   H     H_    0.275036 0.507959 0.306247 0.121193
H71   H     H_    0.323960 0.549423 0.168665 0.188065
O6    O     O_3   0.788924 0.325519 0.700447 -0.643061
C102  C     C_3   0.719571 0.346655 0.749062 -0.283322
H72   H     H_    0.685757 0.292885 0.788528 0.186112
H73   H     H_    0.713750 0.371984 0.690197 0.105169
H74   H     H_    0.698280 0.390294 0.817197 0.186563
O7    O     O_3   0.751186 0.622850 0.702735 -0.625761
C103  C     C_3   0.729230 0.545653 0.747177 -0.256300
H75   H     H_    0.764755 0.518422 0.758115 0.136714
H76   H     H_    0.724962 0.507957 0.693758 0.121193
H77   H     H_    0.676040 0.549422 0.831339 0.188065
O8    O     O_3   0.211076 0.325519 0.299552 -0.643062
C104  C     C_3   0.280428 0.346657 0.250939 -0.283320
H78   H     H_    0.314244 0.292888 0.211471 0.186112
H79   H     H_    0.286248 0.371986 0.309804 0.105169
H80   H     H_    0.301719 0.390296 0.182804 0.186559
C105  C     C_2   0.336890 0.785176 0.015124 0.536913
H81   H     H_    0.387110 0.756915 0.949492 0.003153
O9    O     O_2   0.308411 0.771678 0.112756 -0.597749
C106  C     C_2   0.633398 0.272603 0.056340 0.544040
H82   H     H_    0.620890 0.221982 0.029105 -0.013390
O10   O     O_2   0.634831 0.339024 0.023256 -0.629595
C107  C     C_2   0.663110 0.785175 0.984876 0.536912
H83   H     H_    0.612891 0.756915 0.050508 0.003153
O11   O     O_2   0.691590 0.771677 0.887244 -0.597749
C108  C     C_2   0.366602 0.272603 0.943659 0.544038
H84   H     H_    0.379110 0.221983 0.970894 -0.013389
O12   O     O_2   0.365170 0.339025 0.976742 -0.629592
C109  C     C_2   0.836890 0.285175 0.015123 0.536911
H85   H     H_    0.887109 0.256914 0.949491 0.003154
O13   O     O_2   0.808411 0.271676 0.112755 -0.597748
C110  C     C_2   0.133395 0.772605 0.056344 0.544037
H86   H     H_    0.120887 0.721985 0.029109 -0.013391
O14   O     O_2   0.134826 0.839027 0.023263 -0.629592
C111  C     C_2   0.163110 0.285176 0.984876 0.536913
H87   H     H_    0.112891 0.256915 0.050508 0.003154
O15   O     O_2   0.191590 0.271678 0.887244 -0.597750
C112  C     C_2   0.866602 0.772602 0.943660 0.544039
H88   H     H_    0.879109 0.721982 0.970895 -0.013390
O16   O     O_2   0.865170 0.839024 0.976744 -0.629592

loop_
_geom_bond_atom_site_label_1
_geom_bond_atom_site_label_2
_ccdc_geom_bond_type
C65   C92   S    
C49   H17   S    
O3    C99   S    
C88   C96   S    
N21   Ni4   S    
C21   C29   D    
C46   O6    S    
C37   C69   A    
C50   C60   A    
C36   H12   S    
C53   C63   A    
C10   C74   S    
C85   H29   S    
C107  H83   S    
C18   C26   D    
C80   C84   S    
C69   C96   S    
C103  H75   S    
C34   C66   A    
C87   H31   S    
C18   C105  S    
C33   C65   A    
C111  H87   S    
C40   H16   S    
C71   C94   S    
C55   H23   S    
O5    C101  S    
C19   C57   S    
C4    H4    S    
N15   Ni8   S    
N2    Ni2   S    
C112  H88   S    
N16   Ni7   S    
C9    C73   S    
C74   C89   S    
C50   N26   A    
N17   Ni2   S    
C104  H80   S    
N2    N28   A    
C48   O8    S    
N29   Ni8   S    
C53   H21   S    
C111  O15   D    
C97   H59   S    
C7    N7    A    
C10   C94   S    
C78   C93   S    
C41   O1    S    
C106  O10   D    
C77   C94   S    
C44   O4    S    
C100  H68   S    
C106  H82   S    
N18   Ni1   S    
C38   N14   A    
C46   N22   A    
C24   C32   D    
C11   H43   S    
C14   C90   S    
C112  O16   D    
C42   N18   A    
C19   C108  S    
N13   Ni7   S    
C29   H54   S    
C85   C93   S    
C15   C79   S    
O7    C103  S    
N20   Ni2   S    
C27   H52   S    
C87   C95   S    
C13   C86   S    
C16   C87   S    
C108  O12   D    
C54   N30   A    
O2    C98   S    
C51   C57   A    
C13   H45   S    
C38   H14   S    
C86   C94   S    
C105  H81   S    
C76   C88   S    
C37   H13   S    
C49   C59   A    
C81   C89   S    
C39   H15   S    
C97   H57   S    
C98   H60   S    
C2    N2    A    
C40   C72   A    
C109  H85   S    
C56   H24   S    
C77   H37   S    
C79   H39   S    
C48   C72   A    
C23   C112  S    
C51   N27   A    
N8    N30   A    
O8    C104  S    
C6    N6    A    
C98   H61   S    
C75   H35   S    
N24   Ni4   S    
C21   C110  S    
C49   N25   A    
C7    H7    S    
C52   H20   S    
C73   H33   S    
N14   N22   A    
C40   N16   A    
C110  O14   D    
N19   Ni1   S    
C45   C69   A    
C14   C78   S    
C34   H10   S    
C35   H11   S    
C47   N23   A    
C42   O2    S    
C33   H9    S    
N9    Ni5   S    
C97   H58   S    
C1    H1    S    
C102  H72   S    
N26   Ni5   S    
C43   N19   A    
C101  H69   S    
O4    C100  S    
C30   H53   S    
C41   C65   A    
N11   N19   A    
C20   C28   D    
C24   C111  S    
N4    Ni1   S    
C41   N17   A    
N3    Ni2   S    
C67   C90   S    
C35   N11   A    
C12   C83   S    
N6    Ni4   S    
C50   H18   S    
C23   C31   D    
N7    Ni4   S    
C26   H49   S    
C33   N9    A    
C44   N20   A    
C104  H78   S    
C53   N29   A    
N22   Ni3   S    
C98   H62   S    
C105  O9    D    
C78   C82   S    
C45   O5    S    
C100  H66   S    
N10   N18   A    
C99   H65   S    
C77   C81   S    
C73   C85   S    
C4    C60   A    
C12   H44   S    
C68   C89   S    
C5    C61   A    
C1    C57   A    
C107  O11   D    
C55   N31   A    
C56   N32   A    
C82   C90   S    
C74   C86   S    
C80   C95   S    
C1    N1    A    
C8    H8    S    
C7    C63   A    
C25   H50   S    
C52   C58   A    
C75   C92   S    
C8    C64   A    
C15   H47   S    
C72   C93   S    
C18   C60   S    
C38   C70   A    
C4    N4    A    
C99   H64   S    
C16   C92   S    
N8    Ni3   S    
C5    N5    A    
C54   H22   S    
C13   C77   S    
C43   O3    S    
C14   H46   S    
C56   C62   A    
C44   C68   A    
C84   H28   S    
C3    N3    A    
C47   C71   A    
C20   C58   S    
N12   Ni5   S    
C8    N8    A    
C103  H77   S    
C9    C93   S    
C12   C76   S    
N10   Ni6   S    
C46   C70   A    
C19   C27   D    
C110  H86   S    
N15   N23   A    
C17   C106  S    
C11   C95   S    
C25   C30   S    
N16   N24   A    
C47   O7    S    
N32   Ni8   S    
C28   H51   S    
C24   C62   S    
N25   Ni6   S    
C22   C30   D    
N4    N26   A    
C16   H48   S    
C27   C32   S    
N6    N32   A    
C28   C31   S    
C42   C66   A    
N5    Ni3   S    
C14   C85   S    
N1    N27   A    
C34   N10   A    
C101  H71   S    
C103  H76   S    
C73   C90   S    
C22   C109  S    
C37   N13   A    
C36   C68   A    
C66   C91   S    
N31   Ni7   S    
C11   C84   S    
C13   C89   S    
C20   C107  S    
C84   C92   S    
C9    C82   S    
C10   C81   S    
N27   Ni5   S    
C80   H40   S    
C5    H5    S    
C17   C25   D    
C86   H30   S    
C6    C62   A    
N23   Ni3   S    
C109  O13   D    
C52   N28   A    
C17   C59   S    
C108  H84   S    
N9    N17   A    
C79   C96   S    
C104  H79   S    
C11   C75   S    
C102  H74   S    
C79   C83   S    
C31   H56   S    
C76   H36   S    
O6    C102  S    
C32   H55   S    
N1    Ni1   S    
C2    H2    S    
C55   C61   A    
C9    H41   S    
C100  H67   S    
C74   H34   S    
C70   C95   S    
N11   Ni6   S    
C101  H70   S    
C102  H73   S    
C6    H6    S    
C83   C91   S    
C39   N15   A    
C2    C58   A    
C51   H19   S    
C21   C63   S    
N14   Ni8   S    
N12   N20   A    
C35   C67   A    
C76   C91   S    
C15   C91   S    
N7    N29   A    
C78   H38   S    
C3    H3    S    
C45   N21   A    
C23   C61   S    
C99   H63   S    
C54   C64   A    
C26   C29   S    
C43   C67   A    
O1    C97   S    
N30   Ni7   S    
C81   H25   S    
C36   N12   A    
C39   C71   A    
C12   C96   S    
N28   Ni6   S    
C10   H42   S    
C22   C64   S    
C16   C80   S    
C88   H32   S    
N13   N21   A    
C82   H26   S    
C83   H27   S    
C75   C87   S    
N3    N25   A    
N5    N31   A    
C15   C88   S    
C48   N24   A    
C3    C59   A    
