data_mof_unit_5537.cif
_audit_creation_date              2012-12-10T18:11:47-0500
_audit_creation_method            fapswitch 2.2
_symmetry_space_group_name_H-M    P1
_symmetry_Int_Tables_number       1
_space_group_crystal_system       triclinic
_cell_length_a                    10.505006
_cell_length_b                    12.635099
_cell_length_c                    13.112441
_cell_angle_alpha                 82.417142
_cell_angle_beta                  90.635651
_cell_angle_gamma                 102.301603
_cell_volume                      1685.34575583

loop_
_atom_site_label
_atom_site_type_symbol
_atom_type_description
_atom_site_fract_x
_atom_site_fract_y
_atom_site_fract_z
_atom_type_partial_charge
Br1   Br    Br    0.223811 0.852125 0.277216 -0.609008
Br2   Br    Br    0.747138 0.701986 0.702647 -0.517337
C1    C     C_R   0.479174 0.439010 0.691044 0.864334
C2    C     C_R   0.455920 0.446984 0.973233 0.087344
C3    C     C_R   0.428301 0.468602 0.868591 0.048064
C4    C     C_R   0.742159 0.500251 0.500564 0.895731
C5    C     C_R   0.458823 0.530445 0.035450 0.040834
C6    C     C_R   0.412268 0.626135 0.998224 0.136757
C7    C     C_R   0.364209 0.637780 0.897458 0.162365
C8    C     C_R   0.372076 0.558652 0.834247 -0.184706
C9    C     C_R   0.511322 0.522044 0.133255 -0.230444
C10   C     C_R   0.456177 0.690780 0.164539 -0.172851
C11   C     C_R   0.459490 0.399924 0.800549 -0.095957
C12   C     C_3   0.067163 0.599170 0.517200 -0.138916
C13   C     C_R   0.313995 0.088498 0.348579 -0.249983
C14   C     C_R   0.654895 0.803114 0.630170 0.433198
C15   C     C_R   0.682823 0.907364 0.658249 -0.262134
C16   C     C_R   0.513004 0.560887 0.308716 0.857611
C17   C     C_R   0.622218 0.986309 0.609505 -0.243897
C18   C     C_R   0.532568 0.961952 0.530737 0.025284
C19   C     C_R   0.505324 0.853957 0.504754 0.132086
C20   C     C_R   0.469410 0.040796 0.477373 -0.037730
C21   C     C_R   0.376773 0.010183 0.400682 0.116880
C22   C     C_R   0.349801 0.902484 0.377412 0.189855
C23   C     C_3   0.965380 0.522798 0.592881 -0.171027
C24   C     C_R   0.415388 0.826975 0.427872 -0.248316
C25   C     C_R   0.495334 0.150087 0.497009 -0.031167
C26   C     C_R   0.343805 0.194659 0.372083 -0.009274
C27   C     C_R   0.257936 0.499715 0.499724 0.861036
C28   C     C_3   0.932587 0.400465 0.484158 -0.150447
C29   C     C_3   0.023067 0.424566 0.574883 0.202084
C30   C     C_3   0.122705 0.499795 0.500236 0.003355
C31   C     C_3   0.034384 0.477180 0.408703 -0.210046
C32   C     C_3   0.976439 0.576398 0.425518 -0.130268
C33   C     C_3   0.053165 0.339254 0.659444 -0.912291
C34   C     C_3   0.877477 0.500086 0.501058 -0.038903
C35   C     C_3   0.307777 0.734476 0.854680 -0.889935
C36   C     C_R   0.413982 0.706679 0.063656 -0.158758
C37   C     C_R   0.501086 0.596315 0.199817 -0.064032
C38   C     C_R   0.487694 0.298652 0.839073 -0.184105
C39   C     C_R   0.493187 0.268808 0.944409 -0.134030
C40   C     C_R   0.480521 0.342850 0.011285 -0.173456
H1    H     H_    0.557953 0.455777 0.161106 0.152719
H2    H     H_    0.647844 0.065067 0.635947 0.147572
H3    H     H_    0.751989 0.927465 0.718275 0.182011
H4    H     H_    0.394010 0.747290 0.405002 0.231069
H5    H     H_    0.066994 0.458871 0.333950 0.153890
H6    H     H_    0.952736 0.638661 0.364573 0.177478
H7    H     H_    0.125503 0.680348 0.530300 0.178354
H8    H     H_    0.933344 0.540462 0.668048 0.181931
H9    H     H_    0.448604 0.749678 0.215782 0.185540
H10   H     H_    0.378938 0.780324 0.038978 0.172533
H11   H     H_    0.962322 0.297646 0.702924 0.244489
H12   H     H_    0.508930 0.243831 0.787790 0.152868
H13   H     H_    0.094297 0.277886 0.624989 0.258449
H14   H     H_    0.124937 0.379408 0.712717 0.232856
H15   H     H_    0.274100 0.729222 0.774511 0.244745
H16   H     H_    0.222819 0.738179 0.902671 0.250778
H17   H     H_    0.382976 0.811090 0.853937 0.243695
H18   H     H_    0.487190 0.315545 0.092305 0.134043
H19   H     H_    0.512959 0.189945 0.974192 0.149476
H20   H     H_    0.332397 0.567302 0.757807 0.163811
H21   H     H_    0.296099 0.255766 0.332434 0.139522
H22   H     H_    0.242907 0.069205 0.289879 0.197822
H23   H     H_    0.564470 0.181398 0.552497 0.122782
H24   H     H_    0.874509 0.319062 0.471457 0.155050
N1    N     N_R   0.432930 0.222190 0.444670 -0.103561
N2    N     N_R   0.566370 0.776980 0.554790 -0.145113
O1    O     O_R   0.467970 0.366730 0.627150 -0.622959
O2    O     O_R   0.510820 0.544830 0.662520 -0.573666
O3    O     O_R   0.664630 0.410960 0.482340 -0.633435
O4    O     O_R   0.707470 0.589060 0.517710 -0.568530
O5    O     O_R   0.489180 0.455170 0.337480 -0.618455
O6    O     O_R   0.532030 0.633270 0.372850 -0.633096
O7    O     O_R   0.292530 0.410940 0.482290 -0.614616
O8    O     O_R   0.335370 0.589040 0.517660 -0.654114
Zn1   Zn    Zn3+2 0.471390 0.381080 0.476380 0.936611
Zn2   Zn    Zn3+2 0.528610 0.618920 0.523620 0.969651

loop_
_geom_bond_atom_site_label_1
_geom_bond_atom_site_label_2
_ccdc_geom_bond_type
C23   C29   S    
C19   C24   A    
C33   H11   S    
C39   C40   A    
O1    Zn1   S    
C17   C18   A    
N1    Zn1   S    
C39   H19   S    
C5    C6    A    
C27   O8    A    
C5    C9    A    
O8    Zn2   S    
C1    O1    A    
C22   C24   A    
C27   C30   S    
C28   C29   S    
C12   H7    S    
O2    Zn2   S    
C23   H8    S    
C11   C38   A    
O4    Zn2   S    
C14   C15   A    
C21   C22   A    
C9    H1    S    
C14   N2    A    
Br2   C14   S    
C7    C8    A    
C3    C11   A    
C35   H16   S    
C1    C11   S    
C13   C21   A    
C16   O6    A    
C8    H20   S    
C6    C36   A    
C2    C5    A    
N2    Zn2   S    
C4    O3    A    
C33   H13   S    
C1    O2    A    
C40   H18   S    
C6    C7    A    
C4    O4    A    
C16   C37   S    
C25   H23   S    
C29   C30   S    
C13   H22   S    
C26   N1    A    
C7    C35   S    
C31   C32   S    
C35   H17   S    
C9    C37   A    
O7    Zn1   S    
C28   H24   S    
C38   C39   A    
C18   C20   A    
C16   O5    A    
C38   H12   S    
C20   C25   A    
C19   N2    A    
C31   H5    S    
C29   C33   S    
C32   H6    S    
O3    Zn1   S    
C10   H9    S    
C17   H2    S    
C28   C31   S    
C33   H14   S    
C15   H3    S    
C2    C3    A    
C12   C32   S    
C27   O7    A    
C28   C34   S    
C30   C31   S    
C10   C37   A    
C3    C8    A    
C13   C26   A    
C2    C40   A    
C36   H10   S    
C15   C17   A    
C4    C34   S    
C32   C34   S    
C12   C23   S    
C10   C36   A    
C25   N1    A    
C24   H4    S    
C23   C34   S    
C26   H21   S    
C12   C30   S    
C18   C19   A    
Br1   C22   S    
O6    Zn2   S    
O5    Zn1   S    
C20   C21   A    
C35   H15   S    
