data_mof_unit_63447.cif
_audit_creation_date              2013-03-05T16:58:08-0500
_audit_creation_method            fapswitch 2.2
_symmetry_space_group_name_H-M    P1
_symmetry_Int_Tables_number       1
_space_group_crystal_system       triclinic
_cell_length_a                    17.582599
_cell_length_b                    16.857217
_cell_length_c                    23.486555
_cell_angle_alpha                 90.067273
_cell_angle_beta                  92.965312
_cell_angle_gamma                 90.001367
_cell_volume                      6951.9409303

loop_
_atom_site_label
_atom_site_type_symbol
_atom_site_description
_atom_site_fract_x
_atom_site_fract_y
_atom_site_fract_z
_atom_type_partial_charge
O1    O     O_R   0.389110 0.566570 0.500000 -0.569526
O2    O     O_R   0.610890 0.433430 0.500000 -0.576035
O3    O     O_R   0.610890 0.566570 0.500000 -0.569502
O4    O     O_R   0.389110 0.433430 0.500000 -0.576001
C1    C     C_R   0.353170 0.499663 0.502244 0.977711
C2    C     C_R   0.646827 0.499664 0.497860 0.979307
O5    O     O_R   0.499970 0.566560 0.416150 -0.615240
O6    O     O_R   0.500030 0.433440 0.583850 -0.558852
O7    O     O_R   0.500030 0.566560 0.583850 -0.615937
O8    O     O_R   0.499970 0.433440 0.416150 -0.559267
C3    C     C_R   0.501631 0.499827 0.389024 0.947388
C4    C     C_R   0.498173 0.499956 0.610960 0.946086
Zn1   Zn    Zn3+2 0.500000 0.588860 0.500000 1.080422
Zn2   Zn    Zn3+2 0.500000 0.411140 0.500000 1.124060
C5    C     C_R   0.549182 0.543155 0.880834 0.560823
C6    C     C_R   0.433707 0.497923 0.118455 0.562769
N1    N     N_R   0.483726 0.519984 0.851909 -0.360208
N2    N     N_R   0.500413 0.517040 0.147296 -0.360629
C7    C     C_R   0.419501 0.500260 0.878981 0.565047
C8    C     C_R   0.563463 0.540559 0.120230 0.566372
C9    C     C_R   0.419748 0.501320 0.938980 -0.104687
C10   C     C_R   0.561545 0.544850 0.060277 -0.103979
C11   C     C_R   0.488244 0.523706 0.969583 -0.045710
C12   C     C_R   0.492777 0.523299 0.029691 -0.046026
C13   C     C_R   0.552731 0.545692 0.940188 -0.062500
C14   C     C_R   0.428553 0.500458 0.059097 -0.063041
C15   C     C_R   0.355330 0.480240 0.969696 0.316830
C16   C     C_R   0.625106 0.568695 0.029587 0.317000
C17   C     C_R   0.360650 0.480035 0.028970 -0.153594
C18   C     C_R   0.619865 0.568632 0.970325 -0.153465
O9    O     O_2   0.611035 0.562423 0.851977 -0.498056
O10   O     O_2   0.372638 0.476410 0.147441 -0.497018
O11   O     O_2   0.356469 0.479670 0.847370 -0.448482
O12   O     O_2   0.627345 0.558413 0.151771 -0.453023
H1    H     H_    0.310970 0.463063 0.051539 0.228519
H2    H     H_    0.669328 0.586331 0.947767 0.228838
C19   C     C_R   0.503361 0.580567 0.240397 -0.058228
C20   C     C_R   0.485847 0.582358 0.758582 -0.054450
H3    H     H_    0.501188 0.638165 0.219991 0.176902
H4    H     H_    0.485321 0.640263 0.778592 0.176774
C21   C     C_R   0.504296 0.575292 0.299236 -0.185175
C22   C     C_R   0.489752 0.576309 0.700035 -0.186105
H5    H     H_    0.504148 0.630057 0.323159 0.216071
H6    H     H_    0.490836 0.630811 0.675916 0.214793
C23   C     C_R   0.505195 0.500918 0.326542 -0.128504
C24   C     C_R   0.491988 0.501578 0.673232 -0.128266
C25   C     C_R   0.509710 0.431070 0.293016 0.311980
C26   C     C_R   0.486472 0.432090 0.706880 0.312266
C27   C     C_R   0.508523 0.437444 0.233893 -0.109941
C28   C     C_R   0.482922 0.439249 0.765735 -0.112463
H7    H     H_    0.510933 0.384539 0.207817 0.183118
H8    H     H_    0.480131 0.386576 0.791928 0.185577
C29   C     C_R   0.504325 0.511685 0.207821 0.223675
C30   C     C_R   0.483437 0.513901 0.791430 0.220590
C31   C     C_R   0.857471 0.535182 0.525316 0.223460
C32   C     C_R   0.161521 0.413520 0.530940 0.220155
C33   C     C_R   0.142327 0.535843 0.476196 0.222779
C34   C     C_R   0.838573 0.413783 0.469231 0.220180
C35   C     C_R   0.779169 0.550619 0.520443 0.186937
C36   C     C_R   0.239854 0.428890 0.535878 0.207336
C37   C     C_R   0.220677 0.551142 0.480807 0.187415
C38   C     C_R   0.760274 0.429290 0.464087 0.207750
C39   C     C_R   0.729766 0.495670 0.492305 -0.348045
C40   C     C_R   0.270251 0.495648 0.508100 -0.349132
C41   C     C_R   0.886104 0.465968 0.500931 -0.210450
C42   C     C_R   0.113826 0.466218 0.499969 -0.210852
C43   C     C_1   0.966203 0.456773 0.500685 0.227536
C44   C     C_1   0.033746 0.456861 0.500273 0.227159
C45   C     C_R   0.458444 0.833569 0.457710 0.175187
C46   C     C_R   0.554298 0.167132 0.533436 0.180810
C47   C     C_R   0.541562 0.833751 0.542226 0.174388
C48   C     C_R   0.445722 0.167056 0.466471 0.180956
C49   C     C_R   0.458736 0.749295 0.458515 0.314189
C50   C     C_R   0.553263 0.251310 0.533183 0.345239
C51   C     C_R   0.541145 0.749471 0.541537 0.312724
C52   C     C_R   0.446778 0.251236 0.466756 0.345273
N3    N     N_R   0.500000 0.707230 0.500000 -0.187206
N4    N     N_R   0.500000 0.292770 0.500000 -0.181621
C53   C     C_R   0.500047 0.876529 0.499932 -0.150848
C54   C     C_R   0.500002 0.124227 0.499949 -0.151518
C55   C     C_1   0.500032 0.964069 0.499919 0.199658
C56   C     C_1   0.500013 0.036710 0.499925 0.201026
Br1   Br    Br    0.257305 0.450064 0.936044 -0.249510
Br2   Br    Br    0.721974 0.602578 0.063264 -0.254531
Br3   Br    Br    0.399074 0.696232 0.399704 -0.283509
Br4   Br    Br    0.628376 0.306169 0.580774 -0.276749
Br5   Br    Br    0.599976 0.696688 0.600867 -0.276507
Br6   Br    Br    0.371891 0.306012 0.419010 -0.274919
Br7   Br    Br    0.520569 0.325285 0.322728 -0.281822
Br8   Br    Br    0.480818 0.325659 0.677622 -0.281242
N5    N     N_R   0.908345 0.591493 0.553346 0.250754
O13   O     O_R   0.906663 0.665745 0.538256 -0.220706
O14   O     O_R   0.957035 0.568555 0.593599 -0.306478
N6    N     N_R   0.130120 0.346587 0.559578 0.251370
O15   O     O_R   0.147020 0.334433 0.613457 -0.243558
O16   O     O_R   0.082824 0.298850 0.532305 -0.260952
N7    N     N_R   0.091279 0.592702 0.449088 0.250907
O17   O     O_R   0.093034 0.666600 0.465172 -0.221308
O18   O     O_R   0.042367 0.570610 0.408688 -0.305968
N8    N     N_R   0.870129 0.347284 0.440087 0.251343
O19   O     O_R   0.853499 0.335877 0.386066 -0.246551
O20   O     O_R   0.917308 0.299205 0.467056 -0.261008
N9    N     N_R   0.750617 0.621404 0.545181 0.256573
O21   O     O_R   0.766539 0.636247 0.598873 -0.250803
O22   O     O_R   0.727209 0.678852 0.511723 -0.284151
N10   N     N_R   0.288459 0.377328 0.570051 0.263092
O23   O     O_R   0.289122 0.301343 0.560249 -0.269605
O24   O     O_R   0.330709 0.406332 0.612136 -0.347664
N11   N     N_R   0.249052 0.622378 0.456690 0.257212
O25   O     O_R   0.232137 0.638505 0.403350 -0.251297
O26   O     O_R   0.273416 0.678972 0.490660 -0.286713
N12   N     N_R   0.711795 0.378269 0.429284 0.262694
O27   O     O_R   0.710961 0.302149 0.438383 -0.269545
O28   O     O_R   0.669680 0.407949 0.387431 -0.349093
Br9   Br    Br    0.401069 0.890655 0.398618 -0.241702
Br10  Br    Br    0.630217 0.110439 0.579538 -0.224082
Br11  Br    Br    0.598887 0.891099 0.601311 -0.239981
Br12  Br    Br    0.369832 0.110259 0.420309 -0.223483

loop_
_geom_bond_atom_site_label_1
_geom_bond_atom_site_label_2
_geom_bond_distance
_ccdc_geom_bond_type
C34   C38   1.400406 A    
C42   C44   1.417197 S    
C31   C35   1.400014 A    
C16   Br2   1.926710 S    
C25   Br7   1.921598 S    
C33   C42   1.403877 A    
C48   C52   1.419167 A    
O3    C2    1.295001 A    
C37   N11   1.429199 S    
C27   H7    1.083336 S    
C47   C53   1.402218 A    
C55   C56   1.224527 T    
C25   C27   1.391963 A    
O5    C3    1.293232 A    
C28   C30   1.394830 A    
O1    C1    1.295274 A    
C7    C9    1.409049 A    
C12   C14   1.407721 A    
C20   C22   1.383974 A    
N11   O26   1.301173 A    
C27   C29   1.394198 A    
C5    C13   1.392806 A    
C15   C17   1.390453 A    
N10   O23   1.301312 A    
C22   C24   1.409076 A    
C33   C37   1.400177 A    
O7    Zn1   2.005311 S    
C31   N5    1.439504 S    
N2    C29   1.422597 S    
C31   C41   1.403951 A    
C41   C43   1.417179 S    
C46   C50   1.419133 A    
C28   H8    1.083355 S    
C11   C12   1.409885 A    
C45   C49   1.420767 A    
C52   Br6   1.921863 S    
O3    Zn1   1.985619 S    
C8    O12   1.346960 S    
C26   C28   1.392047 A    
C9    C15   1.419391 A    
C20   H4    1.083113 S    
C26   Br8   1.921199 S    
O4    Zn2   1.985619 S    
C21   H5    1.080235 S    
O2    C2    1.285222 A    
C22   H6    1.080590 S    
N12   O28   1.300305 A    
N12   O27   1.301309 A    
N7    O18   1.301287 A    
N7    O17   1.301206 A    
C24   C26   1.419909 A    
C23   C25   1.420201 A    
C6    C14   1.393086 A    
Zn1   N3    1.995389 S    
C47   Br11  1.930878 S    
C46   C54   1.404985 A    
C43   C44   1.188123 T    
C34   N8    1.438922 S    
C4    C24   1.472426 S    
O8    Zn2   2.005311 S    
N5    O13   1.301210 A    
C53   C55   1.475688 S    
C46   Br10  1.928876 S    
C32   C36   1.400319 A    
C1    C40   1.473024 S    
C2    C39   1.472335 S    
C37   C40   1.410461 A    
C32   N6    1.438916 S    
C38   C39   1.419211 A    
N5    O14   1.301291 A    
C34   C41   1.400230 A    
C20   C30   1.390744 A    
O6    C4    1.290044 A    
C33   N7    1.439450 S    
N8    O20   1.301178 A    
N9    O22   1.301167 A    
C6    N2    1.362185 A    
C50   Br4   1.921860 S    
N6    O16   1.301178 A    
C51   N3    1.381100 A    
C49   Br3   1.911968 S    
C51   Br5   1.912388 S    
C8    C10   1.408691 A    
C9    C11   1.420992 A    
C7    O11   1.346925 S    
C10   C12   1.421094 A    
C3    C23   1.472197 S    
O1    Zn1   1.985602 S    
C36   N10   1.435533 S    
C13   C18   1.398823 A    
C5    N1    1.362748 A    
C45   Br9   1.930856 S    
O6    Zn2   2.004444 S    
C52   N4    1.377900 A    
O4    C1    1.285310 A    
C5    O9    1.350671 S    
C6    O10   1.350593 S    
C17   H1    1.083553 S    
C35   C39   1.410095 A    
C18   H2    1.083553 S    
C36   C40   1.419672 A    
C35   N9    1.428985 S    
C16   C18   1.390158 A    
C19   C29   1.390397 A    
C48   C54   1.405017 A    
C21   C23   1.408633 A    
N11   O25   1.301548 A    
C47   C51   1.420802 A    
N10   O24   1.300284 A    
C32   C42   1.399977 A    
C15   Br1   1.926677 S    
N8    O19   1.301262 A    
N1    C7    1.365572 A    
C54   C56   1.475289 S    
N2    C8    1.365193 A    
Zn2   N4    1.995389 S    
C19   C21   1.384131 A    
N6    O15   1.301261 A    
O2    Zn2   1.985602 S    
O7    C4    1.292624 A    
C45   C53   1.402202 A    
O8    C3    1.289470 A    
O5    Zn1   2.004444 S    
C11   C13   1.407556 A    
C38   N12   1.435491 S    
C14   C17   1.398790 A    
C19   H3    1.083092 S    
C50   N4    1.377933 A    
C48   Br12  1.928850 S    
N9    O21   1.301530 A    
C49   N3    1.380963 A    
C10   C16   1.419181 A    
N1    C30   1.423757 S    
