data_mof_unit_58930.cif
_audit_creation_date              2012-12-10T17:39:22-0500
_audit_creation_method            fapswitch 2.2
_symmetry_space_group_name_H-M    P1
_symmetry_Int_Tables_number       1
_space_group_crystal_system       triclinic
_cell_length_a                    12.311618
_cell_length_b                    13.115193
_cell_length_c                    27.764892
_cell_angle_alpha                 77.843864
_cell_angle_beta                  101.289621
_cell_angle_gamma                 116.337873
_cell_volume                      3900.81204283

loop_
_atom_site_label
_atom_site_type_symbol
_atom_type_description
_atom_site_fract_x
_atom_site_fract_y
_atom_site_fract_z
_atom_type_partial_charge
C1    C     C_R   0.854989 0.286405 0.503687 0.783722
C2    C     C_R   0.027057 0.417898 0.732459 0.174641
C3    C     C_R   0.997963 0.499992 0.746188 0.241013
C4    C     C_R   0.004995 0.507401 0.898004 -0.106771
C5    C     C_R   0.893112 0.462270 0.867688 -0.036701
C6    C     C_R   0.783097 0.421427 0.887595 -0.200434
C7    C     C_R   0.116215 0.552002 0.877246 -0.131408
C8    C     C_R   0.993246 0.492776 0.645378 -0.145762
C9    C     C_R   0.002184 0.501867 0.354549 -0.098512
C10   C     C_R   0.896520 0.439338 0.022458 0.039465
C11   C     C_R   0.112725 0.573882 0.027837 0.067735
C12   C     C_R   0.998072 0.497773 0.592411 0.844132
C13   C     C_R   0.004730 0.506214 0.050505 0.057170
C14   C     C_R   0.797565 0.357854 0.048026 -0.168140
C15   C     C_R   0.800258 0.352834 0.098798 -0.149586
C16   C     C_R   0.902209 0.428488 0.125717 -0.024879
C17   C     C_R   0.004987 0.505308 0.101615 -0.050367
C18   C     C_R   0.108048 0.581122 0.128564 -0.028585
C19   C     C_R   0.105697 0.579811 0.179029 0.576440
C20   C     C_R   0.904838 0.428223 0.176475 0.604663
C21   C     C_R   0.932515 0.548673 0.268145 0.435950
C22   C     C_R   0.931167 0.546495 0.318485 -0.248259
C23   C     C_R   0.144970 0.713740 0.493505 0.831968
C24   C     C_R   0.074930 0.459441 0.339509 -0.191051
C25   C     C_R   0.075487 0.460483 0.289248 -0.156649
C26   C     C_R   0.004242 0.504627 0.253383 0.272742
C27   C     C_R   0.892533 0.454413 0.970060 0.035878
C28   C     C_R   0.004863 0.507299 0.949013 -0.020080
C29   C     C_R   0.116707 0.559817 0.978867 -0.038703
C30   C     C_R   0.781226 0.420340 0.937759 0.221977
C31   C     C_R   0.227849 0.589832 0.908902 0.357557
C32   C     C_R   0.211690 0.654780 0.054651 -0.157600
C33   C     C_R   0.209614 0.657869 0.104274 -0.149992
C34   C     C_R   0.000675 0.500447 0.407545 0.828334
C35   C     C_R   0.227948 0.591869 0.959523 0.160022
C36   C     C_R   0.269110 0.031216 0.447004 0.263292
C37   C     C_R   0.227382 0.835921 0.485863 -0.091734
C38   C     C_R   0.818283 0.082651 0.530007 -0.209322
C39   C     C_R   0.740282 0.966387 0.539025 0.316155
C40   C     C_R   0.614990 0.931032 0.524639 -0.198443
C41   C     C_R   0.566072 0.010059 0.499180 0.075115
C42   C     C_R   0.648419 0.125008 0.485173 0.075931
C43   C     C_R   0.438327 0.978622 0.486464 0.059480
C44   C     C_R   0.395799 0.060296 0.457878 0.120773
C45   C     C_R   0.893100 0.460819 0.817457 0.589136
C46   C     C_R   0.480338 0.167560 0.438768 -0.208738
C47   C     C_R   0.604143 0.198018 0.451031 -0.179143
C48   C     C_R   0.351418 0.868246 0.501372 -0.195625
C49   C     C_R   0.185866 0.917929 0.460029 -0.254031
C50   C     C_R   0.773201 0.163134 0.504898 -0.163153
C51   C     C_R   0.354020 0.338663 0.581965 -0.297175
C52   C     C_R   0.762771 0.647726 0.433990 0.003156
C53   C     C_R   0.674740 0.690573 0.422763 -0.245031
C54   C     C_R   0.573865 0.643166 0.449232 0.356661
C55   C     C_R   0.555945 0.544238 0.485800 -0.102289
C56   C     C_R   0.110471 0.553080 0.825644 0.568209
C57   C     C_R   0.654088 0.508710 0.497965 0.234746
C58   C     C_R   0.450007 0.481685 0.512494 -0.022171
C59   C     C_R   0.452350 0.397250 0.553709 0.160317
C60   C     C_R   0.551508 0.369457 0.566109 -0.273407
C61   C     C_R   0.648449 0.421918 0.538245 -0.152456
C62   C     C_R   0.338948 0.494155 0.499446 0.056186
C63   C     C_R   0.252018 0.362037 0.569143 0.067842
C64   C     C_R   0.961876 0.574505 0.709488 0.283032
C65   C     C_R   0.958790 0.569600 0.659494 -0.356183
C66   C     C_R   0.024040 0.413688 0.681817 0.217145
Cu1   Cu    Cu3+1 0.098270 0.475420 0.511360 0.958519
Cu2   Cu    Cu3+1 0.901730 0.524580 0.488640 0.928766
H1    H     H_    0.289974 0.719496 0.037264 0.177376
H2    H     H_    0.130548 0.424582 0.366540 0.165704
H3    H     H_    0.288209 0.720426 0.123542 0.194463
H4    H     H_    0.131048 0.426600 0.278070 0.163205
H5    H     H_    0.089132 0.893744 0.449190 0.158549
H6    H     H_    0.451351 0.228391 0.413568 0.188142
H7    H     H_    0.377589 0.804120 0.524473 0.168001
H8    H     H_    0.914601 0.110383 0.542859 0.161730
H9    H     H_    0.559145 0.840625 0.533161 0.155822
H10   H     H_    0.664205 0.278805 0.432199 0.183556
H11   H     H_    0.176453 0.318423 0.591109 0.148202
H12   H     H_    0.553212 0.304240 0.597245 0.158369
H13   H     H_    0.356131 0.275187 0.613793 0.146677
H14   H     H_    0.321192 0.543530 0.465445 0.197331
H15   H     H_    0.842132 0.688061 0.414079 0.151766
H16   H     H_    0.697194 0.393235 0.863778 0.189215
H17   H     H_    0.688361 0.765016 0.394715 0.193810
H18   H     H_    0.718440 0.392544 0.550399 0.205589
H19   H     H_    0.875545 0.580884 0.329284 0.186125
H20   H     H_    0.721720 0.289809 0.116777 0.192493
H21   H     H_    0.718851 0.294059 0.029690 0.183194
H22   H     H_    0.933168 0.628977 0.631549 0.179018
N1    N     N_R   0.000577 0.504767 0.797693 -0.446427
N2    N     N_R   0.004995 0.504185 0.201829 -0.455058
N3    N     N_R   0.246290 0.438210 0.528570 -0.196844
N4    N     N_R   0.754320 0.561170 0.471730 -0.203058
O1    O     O_R   0.972510 0.318140 0.514280 -0.582576
O2    O     O_2   0.808154 0.352935 0.200345 -0.509441
O3    O     O_2   0.212661 0.602991 0.802914 -0.479281
O4    O     O_2   0.202867 0.653695 0.205081 -0.513421
O5    O     O_R   0.806530 0.359640 0.495100 -0.607607
O6    O     O_R   0.082990 0.479270 0.579320 -0.548064
O7    O     O_R   0.917010 0.520770 0.560140 -0.604564
O8    O     O_R   0.193470 0.640360 0.504900 -0.566283
O9    O     O_R   0.027490 0.681860 0.485720 -0.589121
O10   O     O_R   0.082990 0.479230 0.439860 -0.586346
O11   O     O_R   0.917010 0.520730 0.420680 -0.592758
O12   O     O_2   0.786428 0.414916 0.788481 -0.542148
N5    N     N_2   0.053576 0.331380 0.667534 -0.410302
H23   H     H_    0.113441 0.306170 0.692882 0.279458
C67   C     C_3   0.950501 0.235409 0.647703 -0.669845
H24   H     H_    0.891278 0.180571 0.676949 0.223060
H25   H     H_    0.983984 0.182540 0.633713 0.207524
H26   H     H_    0.895470 0.265473 0.616431 0.216865
N6    N     N_2   0.926907 0.653629 0.722912 -0.401809
H27   H     H_    0.856143 0.664677 0.699054 0.257243
C68   C     C_3   0.027303 0.762278 0.732104 -0.663377
H28   H     H_    0.992669 0.816938 0.744063 0.227573
H29   H     H_    0.071284 0.807798 0.697731 0.217948
H30   H     H_    0.095992 0.748933 0.762022 0.262855
Cl1   Cl    Cl    0.369428 0.624760 0.888129 -0.583283
N7    N     N_2   0.338281 0.612791 0.992214 -0.435323
H31   H     H_    0.416376 0.676812 0.978719 0.295716
C69   C     C_3   0.352915 0.510259 0.017054 -0.607785
H32   H     H_    0.437679 0.534416 0.043487 0.232364
H33   H     H_    0.359538 0.463349 0.989561 0.237943
H34   H     H_    0.274574 0.452973 0.038264 0.235633
N8    N     N_2   0.224953 0.114461 0.421850 -0.439914
H35   H     H_    0.141658 0.080457 0.400677 0.261469
C70   C     C_3   0.227708 0.191019 0.453267 -0.679579
H36   H     H_    0.164633 0.141958 0.481987 0.230082
H37   H     H_    0.198452 0.256836 0.430410 0.229104
H38   H     H_    0.321424 0.236087 0.471707 0.238049
N9    N     N_2   0.059502 0.339158 0.769214 -0.437876
H39   H     H_    0.126313 0.376713 0.796854 0.286368
C71   C     C_3   0.957721 0.238686 0.788431 -0.643042
H40   H     H_    0.914066 0.261887 0.813149 0.233077
H41   H     H_    0.991061 0.174777 0.810248 0.229720
H42   H     H_    0.888756 0.198449 0.757839 0.236870
N10   N     N_2   0.787634 0.884056 0.561956 -0.419337
H43   H     H_    0.728207 0.799867 0.558380 0.261715
C72   C     C_3   0.848667 0.897909 0.611867 -0.707970
H44   H     H_    0.881519 0.829527 0.625936 0.227870
H45   H     H_    0.784486 0.890876 0.636808 0.232686
H46   H     H_    0.929147 0.982010 0.612522 0.224295
Cl2   Cl    Cl    0.490983 0.727625 0.439639 -0.673016
Cl3   Cl    Cl    0.845705 0.609188 0.224192 -0.567536
N11   N     N_2   0.667943 0.395613 0.953858 -0.461437
H47   H     H_    0.592145 0.341110 0.933777 0.257483
C73   C     C_3   0.654644 0.495746 0.960653 -0.598453
H48   H     H_    0.567118 0.468165 0.975669 0.230965
H49   H     H_    0.654229 0.551836 0.924577 0.247784
H50   H     H_    0.730025 0.545337 0.987399 0.237325

loop_
_geom_bond_atom_site_label_1
_geom_bond_atom_site_label_2
_ccdc_geom_bond_type
C10   C27   A    
C58   C62   A    
C54   Cl2   S    
C21   C26   A    
C8    C66   A    
N8    H35   S    
N5    C67   S    
C41   C42   A    
N10   H43   S    
C72   H46   S    
C66   N5    S    
C70   H36   S    
C1    O5    A    
C71   H42   S    
C24   H2    S    
C38   H8    S    
C53   C54   A    
C52   C53   A    
C20   N2    A    
C56   O3    S    
C28   C29   A    
C73   H49   S    
N11   H47   S    
C67   H25   S    
C5    C6    A    
C9    C22   A    
C23   O8    A    
C26   N2    S    
C15   C16   A    
C3    N1    S    
C18   C19   A    
C19   N2    A    
C46   C47   A    
C56   N1    A    
C23   O9    A    
N7    C69   S    
N9    H39   S    
C68   H29   S    
C2    N9    S    
N5    H23   S    
Cu2   O9    S    
C52   N4    A    
C43   C48   A    
C51   H13   S    
C1    O1    A    
C42   C47   A    
C62   H14   S    
C39   N10   S    
C59   C60   A    
C21   C22   A    
C27   C30   A    
Cu1   O1    S    
C41   C43   A    
C48   H7    S    
C35   N7    S    
C7    C56   A    
C4    C7    A    
C4    C28   A    
C19   O4    S    
C44   C46   A    
Cu1   O10   S    
C30   N11   S    
N11   C73   S    
C65   H22   S    
C7    C31   A    
Cu1   Cu2   S    
C73   H50   S    
C6    H16   S    
C72   H44   S    
C10   C14   A    
C67   H26   S    
C39   C40   A    
C16   C17   A    
C63   H11   S    
C58   C59   A    
C23   C37   S    
C5    C45   A    
Cu2   N4    S    
C60   C61   A    
C21   Cl3   S    
C52   H15   S    
C43   C44   A    
C14   H21   S    
C37   C49   A    
Cu2   O7    S    
C8    C12   S    
C68   H30   S    
C62   N3    A    
C17   C18   A    
N7    H31   S    
C51   C63   A    
C25   H4    S    
C16   C20   A    
C22   H19   S    
C24   C25   A    
C37   C48   A    
C31   Cl1   S    
C71   H40   S    
N10   C72   S    
Cu1   O6    S    
C42   C50   A    
C40   C41   A    
C6    C30   A    
C11   C32   A    
C57   N4    A    
C55   C57   A    
C9    C34   S    
C31   C35   A    
C36   C44   A    
C51   C59   A    
Cu2   O11   S    
C69   H33   S    
C70   H38   S    
C46   H6    S    
C45   O12   S    
N6    H27   S    
C1    C50   S    
C63   N3    A    
C54   C55   A    
C60   H12   S    
N8    C70   S    
C64   N6    S    
C40   H9    S    
C34   O11   A    
C36   N8    S    
C20   O2    S    
C72   H45   S    
C4    C5    A    
C2    C66   A    
C10   C13   A    
C70   H37   S    
C71   H41   S    
C9    C24   A    
C57   C61   A    
C32   H1    S    
C38   C50   A    
C29   C35   A    
C13   C17   A    
C64   C65   A    
C69   H34   S    
C2    C3    A    
C25   C26   A    
Cu2   O5    S    
C12   O7    A    
C67   H24   S    
C32   C33   A    
C11   C13   A    
C38   C39   A    
C49   H5    S    
C73   H48   S    
C3    C64   A    
C45   N1    A    
C18   C33   A    
C34   O10   A    
C12   O6    A    
C61   H18   S    
C33   H3    S    
C8    C65   A    
C11   C29   A    
N9    C71   S    
C55   C58   A    
C27   C28   A    
Cu1   N3    S    
C14   C15   A    
C53   H17   S    
C47   H10   S    
C69   H32   S    
C36   C49   A    
C68   H28   S    
Cu1   O8    S    
C15   H20   S    
N6    C68   S    
