data_mof_unit_62361.cif
_audit_creation_date              2012-12-11T15:45:13-0500
_audit_creation_method            fapswitch 2.2
_symmetry_space_group_name_H-M    P1
_symmetry_Int_Tables_number       1
_space_group_crystal_system       monoclinic
_cell_length_a                    22.744013
_cell_length_b                    30.445718
_cell_length_c                    19.026882
_cell_angle_alpha                 90.0
_cell_angle_beta                  123.990929
_cell_angle_gamma                 90.0
_cell_volume                      10923.9957613

loop_
_atom_site_label
_atom_site_type_symbol
_atom_type_description
_atom_site_fract_x
_atom_site_fract_y
_atom_site_fract_z
_atom_type_partial_charge
C1    C     C_R   0.126762 0.388850 0.067407 -0.124323
C2    C     C_R   0.947223 0.387208 0.076329 -0.252155
C3    C     C_R   0.733558 1.000000 0.270046 0.100867
C4    C     C_R   0.015883 0.463178 0.223232 -0.119813
C5    C     C_R   0.015884 0.536822 0.223232 -0.119813
C6    C     C_R   0.515884 0.963178 0.223232 -0.119813
C7    C     C_R   0.515884 0.036822 0.223232 -0.119813
C8    C     C_R   0.798405 0.535995 0.807869 -0.134010
C9    C     C_R   0.798405 0.464005 0.807869 -0.134010
C10   C     C_R   0.298405 0.035995 0.807869 -0.134010
C11   C     C_R   0.298405 0.964005 0.807869 -0.134010
C12   C     C_R   0.447223 0.112792 0.076329 -0.252155
C13   C     C_R   0.447223 0.887208 0.076329 -0.252155
C14   C     C_R   0.011134 0.500000 0.262944 0.083917
C15   C     C_R   0.511134 1.000000 0.262944 0.083917
C16   C     C_R   0.756154 0.500000 0.788311 0.052213
C17   C     C_R   0.256154 0.000000 0.788311 0.052213
C18   C     C_R   0.891297 0.363984 0.008263 -0.087404
C19   C     C_R   0.891297 0.636016 0.008263 -0.087405
C20   C     C_R   0.391297 0.863984 0.008263 -0.087404
C21   C     C_R   0.126762 0.611150 0.067407 -0.124324
C22   C     C_R   0.391297 0.136016 0.008263 -0.087405
C23   C     C_3   0.455505 0.541413 0.498753 -0.399031
C24   C     C_3   0.455499 0.458580 0.498766 -0.399034
C25   C     C_3   0.955504 0.041415 0.498756 -0.399033
C26   C     C_3   0.955501 0.958582 0.498763 -0.399031
C27   C     C_3   0.532230 0.458566 0.577132 -0.388953
C28   C     C_3   0.532236 0.541427 0.577119 -0.388955
C29   C     C_3   0.032231 0.958568 0.577128 -0.388955
C30   C     C_3   0.032234 0.041429 0.577122 -0.388956
C31   C     C_1   0.682146 0.500000 0.745556 -0.003485
C32   C     C_R   0.626762 0.888850 0.067407 -0.124324
C33   C     C_1   0.182146 1.000000 0.745556 -0.003485
C34   C     C_3   0.416270 0.500000 0.499067 0.416058
C35   C     C_3   0.916270 0.000000 0.499067 0.416058
C36   C     C_3   0.545931 0.500000 0.631448 0.404069
C37   C     C_3   0.045931 1.000000 0.631448 0.404069
C38   C     C_R   0.060410 0.609052 0.927292 -0.103411
C39   C     C_R   0.060410 0.390948 0.927292 -0.103411
C40   C     C_R   0.560410 0.109052 0.927292 -0.103411
C41   C     C_R   0.560410 0.890948 0.927292 -0.103411
C42   C     C_3   0.494159 0.500007 0.660079 -0.396226
C43   C     C_R   0.626762 0.111149 0.067407 -0.124324
C44   C     C_3   0.994159 0.000003 0.660079 -0.396226
C45   C     C_3   0.416403 0.500007 0.580698 -0.395057
C46   C     C_3   0.916403 0.000003 0.580698 -0.395056
C47   C     C_1   0.619419 0.500000 0.700385 -0.127974
C48   C     C_1   0.119419 1.000000 0.700385 -0.127974
C49   C     C_1   0.346279 0.500000 0.422540 -0.135555
C50   C     C_1   0.846279 1.000000 0.422539 -0.135555
C51   C     C_1   0.293085 0.500000 0.353882 -0.032073
C52   C     C_1   0.793085 1.000000 0.353882 -0.032073
C53   C     C_1   0.161813 0.664646 0.995924 -0.040012
C54   C     C_R   0.877703 0.383398 0.934833 0.695474
C55   C     C_1   0.161813 0.335354 0.995924 -0.040012
C56   C     C_1   0.661813 0.164646 0.995924 -0.040012
C57   C     C_1   0.661813 0.835354 0.995924 -0.040012
C58   C     C_1   0.198652 0.694178 0.998315 0.004690
C59   C     C_1   0.198653 0.305822 0.998315 0.004690
C60   C     C_1   0.698652 0.194178 0.998315 0.004690
C61   C     C_1   0.698653 0.805822 0.998315 0.004690
C62   C     C_1   0.242512 0.728925 0.002859 0.000325
C63   C     C_1   0.242512 0.271075 0.002859 0.000325
C64   C     C_1   0.742512 0.228925 0.002859 0.000325
C65   C     C_R   0.877703 0.616602 0.934833 0.695474
C66   C     C_1   0.742512 0.771075 0.002859 0.000325
C67   C     C_1   0.779525 0.258812 0.006925 -0.003810
C68   C     C_1   0.779525 0.741187 0.006925 -0.003810
C69   C     C_1   0.279525 0.758812 0.006925 -0.003810
C70   C     C_1   0.279525 0.241187 0.006925 -0.003810
C71   C     C_1   0.821637 0.294473 0.010658 0.005130
C72   C     C_1   0.821637 0.705527 0.010658 0.005130
C73   C     C_1   0.321637 0.794473 0.010658 0.005130
C74   C     C_1   0.321637 0.205527 0.010658 0.005130
C75   C     C_R   0.978124 0.463124 0.773889 -0.125012
C76   C     C_R   0.377703 0.883398 0.934833 0.695474
C77   C     C_R   0.978124 0.536876 0.773889 -0.125012
C78   C     C_R   0.478124 0.963124 0.773889 -0.125012
C79   C     C_R   0.478124 0.036876 0.773889 -0.125012
C80   C     C_1   0.855289 0.325609 0.011580 0.053238
C81   C     C_1   0.855289 0.674391 0.011580 0.053238
C82   C     C_1   0.355289 0.825609 0.011580 0.053238
C83   C     C_1   0.355289 0.174391 0.011580 0.053238
C84   C     C_1   0.007071 0.500000 0.335877 -0.048590
C85   C     C_1   0.507071 1.000000 0.335877 -0.048590
C86   C     C_1   0.002696 0.500000 0.396311 0.002718
C87   C     C_R   0.377703 0.116602 0.934833 0.695474
C88   C     C_1   0.502696 1.000000 0.396311 0.002718
C89   C     C_1   0.996984 0.500000 0.466727 -0.005408
C90   C     C_1   0.496984 1.000000 0.466727 -0.005408
C91   C     C_1   0.992129 0.500000 0.526804 -0.004656
C92   C     C_1   0.492130 0.000000 0.526804 -0.004656
C93   C     C_1   0.986977 0.500000 0.597632 0.004818
C94   C     C_1   0.486977 0.000000 0.597632 0.004818
C95   C     C_1   0.983584 0.500000 0.658783 -0.042385
C96   C     C_1   0.483584 0.000000 0.658783 -0.042385
C97   C     C_R   0.194396 0.536041 0.225906 -0.132873
C98   C     C_R   0.947223 0.612792 0.076329 -0.252155
C99   C     C_R   0.194396 0.463958 0.225906 -0.132873
C100  C     C_R   0.694396 0.036041 0.225906 -0.132873
C101  C     C_R   0.694396 0.963959 0.225906 -0.132873
C102  C     C_R   0.119457 0.370726 0.996367 0.078881
C103  C     C_R   0.119457 0.629274 0.996367 0.078881
C104  C     C_R   0.619457 0.870726 0.996367 0.078881
C105  C     C_R   0.619457 0.129274 0.996367 0.078881
C106  C     C_R   0.981382 0.500000 0.733035 0.084189
C107  C     C_R   0.481382 0.000000 0.733035 0.084189
C108  C     C_R   0.233557 0.500000 0.270046 0.100867
F1    F     F_    0.841233 0.364427 0.857097 -0.723349
F2    F     F_    0.841233 0.635573 0.857097 -0.723349
F3    F     F_    0.341233 0.864427 0.857097 -0.723349
F4    F     F_    0.341233 0.135573 0.857097 -0.723349
H1    H     H_    0.164059 0.379184 0.132604 0.100454
H2    H     H_    0.388076 0.470510 0.581873 0.159897
H3    H     H_    0.888079 0.029503 0.581866 0.159897
H4    H     H_    0.888077 0.970505 0.581870 0.159897
H5    H     H_    0.020951 0.429556 0.243962 0.097642
H6    H     H_    0.020951 0.570444 0.243962 0.097642
H7    H     H_    0.520951 0.929556 0.243962 0.097642
H8    H     H_    0.520951 0.070444 0.243962 0.097642
H9    H     H_    0.781662 0.569744 0.797017 0.180045
H10   H     H_    0.781662 0.430256 0.797017 0.180045
H11   H     H_    0.281662 0.069744 0.797017 0.180045
H12   H     H_    0.164059 0.620816 0.132604 0.100454
H13   H     H_    0.281662 0.930256 0.797017 0.180045
H14   H     H_    0.455786 0.542282 0.440405 0.161631
H15   H     H_    0.455780 0.457702 0.440419 0.161631
H16   H     H_    0.955785 0.042287 0.440409 0.161631
H17   H     H_    0.955782 0.957706 0.440415 0.161630
H18   H     H_    0.427826 0.428424 0.498847 0.159824
H19   H     H_    0.427837 0.571574 0.498824 0.159823
H20   H     H_    0.927829 0.928425 0.498840 0.159824
H21   H     H_    0.927834 0.071574 0.498830 0.159824
H22   H     H_    0.503389 0.529517 0.699508 0.161410
H23   H     H_    0.664059 0.879184 0.132604 0.100454
H24   H     H_    0.503384 0.470501 0.699518 0.161409
H25   H     H_    0.003388 0.029512 0.699511 0.161410
H26   H     H_    0.003386 0.970496 0.699515 0.161410
H27   H     H_    0.035411 0.617972 0.861612 0.105626
H28   H     H_    0.035411 0.382028 0.861612 0.105626
H29   H     H_    0.535411 0.117972 0.861612 0.105626
H30   H     H_    0.535411 0.882028 0.861612 0.105626
H31   H     H_    0.971667 0.429519 0.752534 0.106313
H32   H     H_    0.971667 0.570480 0.752534 0.106313
H33   H     H_    0.471667 0.929520 0.752534 0.106313
H34   H     H_    0.664059 0.120816 0.132604 0.100454
H35   H     H_    0.471667 0.070480 0.752534 0.106313
H36   H     H_    0.203797 0.569665 0.247997 0.096861
H37   H     H_    0.203797 0.430335 0.247997 0.096861
H38   H     H_    0.703797 0.069665 0.247996 0.096861
H39   H     H_    0.703797 0.930334 0.247996 0.096861
H40   H     H_    0.976056 0.622824 0.141906 0.140666
H41   H     H_    0.976056 0.377176 0.141906 0.140666
H42   H     H_    0.476056 0.122824 0.141906 0.140666
H43   H     H_    0.476056 0.877176 0.141906 0.140666
H44   H     H_    0.569288 0.542353 0.556293 0.163578
H45   H     H_    0.541800 0.428401 0.615242 0.163702
H46   H     H_    0.569282 0.457631 0.556306 0.163578
H47   H     H_    0.069287 0.042357 0.556296 0.163578
H48   H     H_    0.069284 0.957636 0.556303 0.163578
H49   H     H_    0.541810 0.571596 0.615219 0.163703
H50   H     H_    0.041803 0.928402 0.615236 0.163702
H51   H     H_    0.041808 0.071597 0.615225 0.163703
H52   H     H_    0.388080 0.529508 0.581864 0.159897
N1    N     N_R   0.075400 0.419050 0.040930 -0.043826
N2    N     N_R   0.976800 0.523070 0.840160 -0.044306
N3    N     N_R   0.476800 0.976930 0.840160 -0.044306
N4    N     N_R   0.476800 0.023070 0.840160 -0.044306
N5    N     N_R   0.134210 0.520980 0.157560 -0.040269
N6    N     N_R   0.134210 0.479020 0.157560 -0.040269
N7    N     N_R   0.634210 0.020980 0.157560 -0.040269
N8    N     N_R   0.634210 0.979020 0.157560 -0.040269
N9    N     N_R   0.020160 0.476910 0.158980 -0.038658
N10   N     N_R   0.020160 0.523090 0.158980 -0.038658
N11   N     N_R   0.520160 0.976910 0.158980 -0.038658
N12   N     N_R   0.075400 0.580950 0.040930 -0.043826
N13   N     N_R   0.520160 0.023090 0.158980 -0.038658
N14   N     N_R   0.864590 0.520950 0.843300 -0.045495
N15   N     N_R   0.864590 0.479050 0.843300 -0.045495
N16   N     N_R   0.364590 0.020950 0.843300 -0.045495
N17   N     N_R   0.364590 0.979050 0.843300 -0.045495
N18   N     N_R   0.919150 0.419020 0.955970 -0.110890
N19   N     N_R   0.919150 0.580980 0.955970 -0.110890
N20   N     N_R   0.419150 0.919020 0.955970 -0.110890
N21   N     N_R   0.419150 0.080980 0.955970 -0.110890
N22   N     N_R   0.965610 0.578840 0.046310 -0.067105
N23   N     N_R   0.575400 0.919050 0.040930 -0.043826
N24   N     N_R   0.965610 0.421160 0.046310 -0.067105
N25   N     N_R   0.465610 0.078840 0.046310 -0.067105
N26   N     N_R   0.465610 0.921160 0.046310 -0.067105
N27   N     N_R   0.575400 0.080950 0.040930 -0.043826
N28   N     N_R   0.035610 0.578860 0.956800 -0.046748
N29   N     N_R   0.035610 0.421140 0.956800 -0.046748
N30   N     N_R   0.535610 0.078860 0.956800 -0.046748
N31   N     N_R   0.535610 0.921140 0.956800 -0.046748
N32   N     N_R   0.976800 0.476930 0.840160 -0.044306
Ni1   Ni    Ni4+2 0.047340 0.448440 0.099050 0.204197
Ni2   Ni    Ni4+2 0.047340 0.551560 0.099050 0.204197
Ni3   Ni    Ni4+2 0.547340 0.948440 0.099050 0.204197
Ni4   Ni    Ni4+2 0.547340 0.051560 0.099050 0.204197
Ni5   Ni    Ni4+2 0.950540 0.549450 0.900950 0.253152
Ni6   Ni    Ni4+2 0.950540 0.450550 0.900950 0.253152
Ni7   Ni    Ni4+2 0.450540 0.049450 0.900950 0.253152
Ni8   Ni    Ni4+2 0.450540 0.950550 0.900950 0.253152

loop_
_geom_bond_atom_site_label_1
_geom_bond_atom_site_label_2
_ccdc_geom_bond_type
C58   C62   S    
C66   C68   T    
N7    N8    A    
C44   H25   S    
N20   Ni8   S    
C55   C59   T    
C2    C18   A    
C5    N10   A    
C6    H7    S    
C36   C42   S    
C11   N17   A    
C24   C27   S    
C14   C84   S    
C74   C83   T    
N16   Ni7   S    
N14   N15   A    
C87   N21   A    
C99   N6    A    
C98   H40   S    
N9    N10   A    
C16   C31   S    
C12   N25   A    
C99   H37   S    
C55   C102  S    
C20   C76   A    
C78   N3    A    
N7    Ni4   S    
C1    H1    S    
C46   H3    S    
N8    Ni3   S    
C12   H42   S    
C77   C106  A    
C11   H13   S    
C25   H16   S    
C84   C86   T    
C20   C82   S    
C32   N23   A    
C3    C52   S    
C8    H9    S    
N12   N28   A    
C6    N11   A    
C61   C66   S    
C10   C17   A    
C12   C22   A    
C97   N5    A    
C7    N13   A    
C101  N8    A    
C42   H24   S    
C43   C105  A    
C13   H43   S    
C78   H33   S    
C6    C15   A    
C97   C108  A    
C3    C100  A    
C75   C106  A    
C51   C108  S    
C49   C51   T    
N13   Ni4   S    
C70   C74   S    
C24   H15   S    
C50   C52   T    
N28   Ni5   S    
C54   N18   A    
C69   C73   S    
C79   N4    A    
C89   C91   T    
C25   H21   S    
C72   C81   T    
C9    N15   A    
C24   H18   S    
C15   C85   S    
C75   N32   A    
C21   N12   A    
C7    C15   A    
C32   C104  A    
C43   N27   A    
C8    C16   A    
C31   C47   T    
C40   H29   S    
C53   C103  S    
C100  N7    A    
C17   C33   S    
C30   H51   S    
C45   H2    S    
C71   C80   T    
C19   C98   A    
C44   C46   S    
N26   Ni3   S    
C29   H48   S    
C30   H47   S    
C56   C105  S    
N10   Ni2   S    
C63   C70   T    
N9    Ni1   S    
N19   Ni5   S    
N5    N6    A    
C28   C36   S    
C28   H49   S    
N11   N13   A    
C10   H11   S    
N19   N22   A    
N12   Ni2   S    
N3    N4    A    
C18   C54   A    
C40   N30   A    
C87   F4    S    
C100  H38   S    
C77   N2    A    
N3    Ni8   S    
C101  H39   S    
C24   C34   S    
C13   N26   A    
C56   C60   T    
C30   C37   S    
N23   Ni3   S    
C78   C107  A    
C27   H46   S    
N2    Ni5   S    
C64   C67   T    
C38   C103  A    
C99   C108  A    
C95   C106  S    
N1    Ni1   S    
C91   C93   S    
C39   N29   A    
C90   C92   T    
N15   Ni6   S    
C1    N1    A    
C68   C72   S    
C23   C34   S    
C35   C50   S    
C92   C94   S    
C9    H10   S    
C79   C107  A    
C34   C45   S    
N18   N24   A    
C23   C28   S    
N27   Ni4   S    
C37   C48   S    
C94   C96   T    
N11   Ni3   S    
C5    C14   A    
C26   H17   S    
C75   H31   S    
N21   N25   A    
C25   C35   S    
C23   H14   S    
C62   C69   T    
N25   Ni4   S    
C96   C107  S    
C88   C90   S    
C2    H41   S    
C38   N28   A    
C4    N9    A    
C97   H36   S    
N20   N26   A    
C36   C47   S    
C40   C105  A    
N17   Ni8   S    
N1    N29   A    
N32   Ni6   S    
C73   C82   T    
C26   H20   S    
N16   N17   A    
C39   C102  A    
C65   N19   A    
C85   C88   T    
C25   C30   S    
C57   C104  S    
C39   H28   S    
C11   C17   A    
C34   C49   S    
C44   H26   S    
C13   C20   A    
N23   N31   A    
N18   Ni6   S    
C29   H50   S    
C45   H52   S    
N2    N32   A    
C86   C89   S    
C22   C87   A    
C32   H23   S    
C79   H35   S    
C53   C58   T    
C41   C104  A    
C57   C61   T    
N31   Ni8   S    
C27   C36   S    
C27   H45   S    
C59   C63   S    
N4    Ni7   S    
C46   H4    S    
C5    H6    S    
C60   C64   S    
C10   N16   A    
C22   C83   S    
N21   Ni7   S    
C21   H12   S    
C77   H32   S    
C41   H30   S    
C98   N22   A    
C43   H34   S    
C76   N20   A    
C7    H8    S    
C3    C101  A    
C93   C95   T    
N24   Ni1   S    
C37   C44   S    
C76   F3    S    
N30   Ni7   S    
C42   H22   S    
C19   C65   A    
C67   C71   S    
C4    C14   A    
C4    H5    S    
C2    N24   A    
C65   F2    S    
N27   N30   A    
N29   Ni6   S    
C21   C103  A    
C8    N14   A    
C26   C35   S    
C38   H27   S    
C54   F1    S    
C26   C29   S    
C18   C80   S    
N14   Ni5   S    
C29   C37   S    
C23   H19   S    
C28   H44   S    
C33   C48   T    
N22   Ni2   S    
C41   N31   A    
C19   C81   S    
C35   C46   S    
C1    C102  A    
C42   C45   S    
N6    Ni1   S    
C9    C16   A    
N5    Ni2   S    
