data_mof_unit_38243.cif
_audit_creation_date              2013-03-05T15:41:35-0500
_audit_creation_method            fapswitch 2.2
_symmetry_space_group_name_H-M    P1
_symmetry_Int_Tables_number       1
_space_group_crystal_system       triclinic
_cell_length_a                    24.664662
_cell_length_b                    17.397113
_cell_length_c                    15.610912
_cell_angle_alpha                 89.837249
_cell_angle_beta                  129.564807
_cell_angle_gamma                 90.188121
_cell_volume                      5163.91081837

loop_
_atom_site_label
_atom_site_type_symbol
_atom_site_description
_atom_site_fract_x
_atom_site_fract_y
_atom_site_fract_z
_atom_type_partial_charge
C1    C     C_R   0.346096 0.364596 0.228831 -0.122213
C2    C     C_R   0.346887 0.636281 0.230562 -0.114165
C3    C     C_R   0.846094 0.864598 0.228828 -0.122213
C4    C     C_R   0.846886 0.136279 0.230556 -0.114188
H1    H     H_    0.293693 0.356226 0.200435 0.082211
H2    H     H_    0.294809 0.645027 0.203107 0.083109
H3    H     H_    0.793691 0.856228 0.200431 0.082220
H4    H     H_    0.794804 0.145021 0.203084 0.083138
N1    N     N_R   0.389430 0.421450 0.294590 -0.045950
N2    N     N_R   0.389430 0.578550 0.294590 -0.047447
N3    N     N_R   0.889430 0.921450 0.294590 -0.045953
N4    N     N_R   0.889430 0.078550 0.294590 -0.047451
C5    C     C_R   0.664449 0.383822 0.794531 -0.056744
C6    C     C_R   0.665415 0.613803 0.796538 -0.064739
C7    C     C_R   0.164441 0.883800 0.794505 -0.056814
C8    C     C_R   0.165417 0.113798 0.796540 -0.064734
N5    N     N_R   0.612200 0.424040 0.705410 -0.104937
N6    N     N_R   0.612200 0.575960 0.705410 -0.088643
N7    N     N_R   0.112200 0.924040 0.705410 -0.104933
N8    N     N_R   0.112200 0.075960 0.705410 -0.088629
C9    C     C_R   0.614316 0.397387 0.406701 -0.099609
C10   C     C_R   0.613945 0.601374 0.405676 -0.116788
C11   C     C_R   0.114309 0.897406 0.406680 -0.100001
C12   C     C_R   0.113943 0.101389 0.405679 -0.116794
H5    H     H_    0.590688 0.393782 0.320215 0.137994
H6    H     H_    0.590278 0.597879 0.319565 0.162975
H7    H     H_    0.090621 0.893756 0.320180 0.138806
H8    H     H_    0.090271 0.097920 0.319565 0.162982
N9    N     N_R   0.581780 0.422390 0.443390 -0.048960
N10   N     N_R   0.581780 0.577610 0.443390 -0.049094
N11   N     N_R   0.081780 0.922390 0.443390 -0.048981
N12   N     N_R   0.081780 0.077610 0.443390 -0.049073
C13   C     C_R   0.410390 0.360082 0.593453 -0.159524
C14   C     C_R   0.407935 0.636586 0.594320 -0.163059
C15   C     C_R   0.910380 0.860083 0.593442 -0.159563
C16   C     C_R   0.907878 0.136511 0.594325 -0.163150
H9    H     H_    0.436192 0.347950 0.678849 0.143062
H10   H     H_    0.434610 0.648049 0.680219 0.145959
H11   H     H_    0.936161 0.847957 0.678828 0.143079
H12   H     H_    0.934540 0.147947 0.680228 0.146053
N13   N     N_R   0.419850 0.423100 0.556610 -0.031249
N14   N     N_R   0.419850 0.576900 0.556610 -0.032706
N15   N     N_R   0.919850 0.923100 0.556610 -0.031250
N16   N     N_R   0.919850 0.076900 0.556610 -0.032718
C17   C     C_R   0.689688 0.402046 0.589873 -0.129447
C18   C     C_R   0.689238 0.600231 0.588755 -0.153977
C19   C     C_R   0.189705 0.902108 0.589835 -0.128872
C20   C     C_R   0.189237 0.100236 0.588759 -0.153935
H13   H     H_    0.738616 0.410448 0.671870 0.102476
H14   H     H_    0.737641 0.596749 0.671972 0.152618
H15   H     H_    0.238634 0.910570 0.671813 0.102389
H16   H     H_    0.237640 0.096751 0.671976 0.152620
N17   N     N_R   0.627410 0.423100 0.556610 -0.040344
N18   N     N_R   0.627410 0.576900 0.556610 -0.034624
N19   N     N_R   0.127410 0.923100 0.556610 -0.040387
N20   N     N_R   0.127410 0.076900 0.556610 -0.034615
C21   C     C_R   0.332837 0.361547 0.408500 -0.137146
C22   C     C_R   0.330235 0.635873 0.408759 -0.141330
C23   C     C_R   0.832833 0.861550 0.408492 -0.137119
C24   C     C_R   0.830206 0.135835 0.408748 -0.141388
H17   H     H_    0.284276 0.353635 0.325410 0.080003
H18   H     H_    0.282566 0.645084 0.325049 0.080229
H19   H     H_    0.784272 0.853645 0.325401 0.080004
H20   H     H_    0.782574 0.145075 0.325018 0.080245
N21   N     N_R   0.374220 0.422390 0.443390 -0.041745
N22   N     N_R   0.374220 0.577610 0.443390 -0.041459
N23   N     N_R   0.874220 0.922390 0.443390 -0.041740
N24   N     N_R   0.874220 0.077610 0.443390 -0.041445
C25   C     C_R   0.575199 0.388510 0.798393 0.572458
C26   C     C_R   0.575375 0.610817 0.798677 0.594522
C27   C     C_R   0.075192 0.888481 0.798369 0.572558
C28   C     C_R   0.075372 0.110823 0.798671 0.594535
N25   N     N_R   0.555000 0.424040 0.705410 -0.104193
N26   N     N_R   0.555000 0.575960 0.705410 -0.107849
N27   N     N_R   0.055000 0.924040 0.705410 -0.104197
N28   N     N_R   0.055000 0.075960 0.705410 -0.107854
C29   C     C_R   0.439794 0.360244 0.235826 -0.148805
C30   C     C_R   0.440389 0.640415 0.236899 -0.146173
C31   C     C_R   0.939791 0.860247 0.235820 -0.148760
C32   C     C_R   0.940389 0.140415 0.236899 -0.146112
H21   H     H_    0.476278 0.343823 0.222850 0.091930
H22   H     H_    0.477005 0.656955 0.224068 0.094451
H23   H     H_    0.976270 0.843826 0.222835 0.091912
H24   H     H_    0.977006 0.156957 0.224071 0.094441
N29   N     N_R   0.446630 0.421450 0.294590 -0.044404
N30   N     N_R   0.446630 0.578550 0.294590 -0.044926
N31   N     N_R   0.946630 0.921450 0.294590 -0.044401
N32   N     N_R   0.946630 0.078550 0.294590 -0.044918
C33   C     C_R   0.378337 0.322016 0.197494 0.148856
C34   C     C_R   0.379395 0.679073 0.199461 0.129938
C35   C     C_R   0.878335 0.822019 0.197488 0.148837
C36   C     C_R   0.879395 0.179073 0.199459 0.129839
C37   C     C_R   0.643878 0.361582 0.855896 -0.083054
C38   C     C_R   0.644627 0.636566 0.857202 -0.133659
C39   C     C_R   0.143867 0.861546 0.855860 -0.083190
C40   C     C_R   0.144627 0.136568 0.857200 -0.133640
C41   C     C_R   0.682755 0.383540 0.498090 0.030362
C42   C     C_R   0.682586 0.615617 0.495685 0.014103
C43   C     C_R   0.182790 0.883676 0.498030 0.029743
C44   C     C_R   0.182584 0.115632 0.495692 0.013797
C45   C     C_R   0.357204 0.318755 0.501363 0.021929
C46   C     C_R   0.352093 0.675338 0.502499 0.023848
C47   C     C_R   0.857197 0.818753 0.501349 0.021913
C48   C     C_R   0.851986 0.175205 0.502498 0.023951
Ni1   Ni    Ni4+2 0.382890 0.500000 0.370170 0.200878
Ni2   Ni    Ni4+2 0.882890 0.000000 0.370170 0.200889
Ni3   Ni    Ni4+2 0.618740 0.500000 0.629830 0.228113
Ni4   Ni    Ni4+2 0.118740 1.000000 0.629830 0.228111
Ni5   Ni    Ni4+2 0.514090 0.500000 0.370170 0.214109
Ni6   Ni    Ni4+2 0.014090 0.000000 0.370170 0.214164
Ni7   Ni    Ni4+2 0.487550 0.500000 0.629830 0.287437
Ni8   Ni    Ni4+2 0.987550 1.000000 0.629830 0.287435
C49   C     C_3   0.357368 0.213000 0.610739 -0.422857
C50   C     C_3   0.347899 0.764732 0.622378 -0.424780
C51   C     C_3   0.857369 0.712969 0.610699 -0.422836
C52   C     C_3   0.847472 0.263947 0.622525 -0.425004
H25   H     H_    0.380877 0.251093 0.683770 0.160579
H26   H     H_    0.358390 0.716815 0.678555 0.173725
H27   H     H_    0.880885 0.751046 0.683747 0.160550
H28   H     H_    0.857550 0.215735 0.678025 0.174016
H29   H     H_    0.401107 0.181589 0.623056 0.161262
H30   H     H_    0.399087 0.792033 0.657000 0.156460
H31   H     H_    0.901105 0.681570 0.622990 0.161272
H32   H     H_    0.898839 0.291099 0.657884 0.156409
C53   C     C_3   0.808080 0.656006 0.606664 -0.496982
C54   C     C_3   0.800579 0.321803 0.620850 -0.500436
C55   C     C_3   0.308072 0.156054 0.606714 -0.496974
C56   C     C_3   0.300980 0.822618 0.620658 -0.500450
H33   H     H_    0.827036 0.596129 0.616350 0.158902
H34   H     H_    0.829053 0.377427 0.656435 0.156392
H35   H     H_    0.327043 0.096176 0.616469 0.158854
H36   H     H_    0.329232 0.878446 0.655446 0.156328
H37   H     H_    0.311490 0.168999 0.679651 0.185266
H38   H     H_    0.290702 0.800352 0.676137 0.212489
H39   H     H_    0.811528 0.668906 0.679640 0.185257
H40   H     H_    0.789838 0.299267 0.675630 0.212898
H41   H     H_    0.278741 0.345372 0.558612 0.166705
H42   H     H_    0.249630 0.645629 0.509482 0.170188
H43   H     H_    0.778761 0.845369 0.558633 0.166673
H44   H     H_    0.748809 0.145445 0.507802 0.170149
H45   H     H_    0.711987 0.760933 0.563087 0.168007
H46   H     H_    0.683604 0.231758 0.513625 0.181003
H47   H     H_    0.211907 0.260964 0.562966 0.168023
H48   H     H_    0.184524 0.731965 0.515461 0.181192
C57   C     C_3   0.255447 0.304053 0.488647 -0.399265
C58   C     C_3   0.239915 0.696452 0.457755 -0.404947
C59   C     C_3   0.755456 0.804045 0.488669 -0.399216
C60   C     C_3   0.739517 0.196499 0.456729 -0.404982
C61   C     C_3   0.284807 0.201787 0.404713 -0.559330
C62   C     C_3   0.297089 0.803382 0.428026 -0.570574
C63   C     C_3   0.784777 0.701800 0.404661 -0.559472
C64   C     C_3   0.797515 0.303538 0.428892 -0.570847
C65   C     C_3   0.314822 0.260012 0.501259 0.353109
C66   C     C_3   0.310572 0.734451 0.503030 0.357288
C67   C     C_3   0.814815 0.760006 0.501238 0.353158
C68   C     C_3   0.810445 0.234273 0.503025 0.357416
H49   H     H_    0.760128 0.729911 0.323819 0.167456
H50   H     H_    0.774981 0.283057 0.345072 0.160347
H51   H     H_    0.260159 0.229885 0.323864 0.167417
H52   H     H_    0.274391 0.782548 0.344277 0.160315
H53   H     H_    0.329058 0.168210 0.421442 0.145682
H54   H     H_    0.348322 0.830081 0.461696 0.147203
H55   H     H_    0.829017 0.668215 0.421363 0.145723
H56   H     H_    0.848929 0.330043 0.463208 0.147205
C69   C     C_3   0.730944 0.664702 0.494992 0.204582
C70   C     C_3   0.730732 0.333166 0.499628 0.214028
C71   C     C_3   0.230947 0.164714 0.495008 0.204746
C72   C     C_3   0.230803 0.833333 0.499560 0.213734
C73   C     C_3   0.708037 0.748499 0.489271 -0.393009
C74   C     C_3   0.693680 0.253749 0.457753 -0.395628
C75   C     C_3   0.208008 0.248508 0.489203 -0.393060
C76   C     C_3   0.194087 0.753687 0.458834 -0.395223
C77   C     C_3   0.733176 0.646348 0.398388 0.576078
C78   C     C_3   0.751203 0.364379 0.429264 0.574394
C79   C     C_3   0.233214 0.146326 0.398452 0.576190
C80   C     C_3   0.250702 0.864192 0.428243 0.574530
H57   H     H_    0.757814 0.588454 0.418838 0.056796
H58   H     H_    0.786939 0.414009 0.477161 0.030346
H59   H     H_    0.257873 0.088441 0.418956 0.056053
H60   H     H_    0.286252 0.914106 0.475378 0.030529
H61   H     H_    0.223634 0.338981 0.411314 0.146682
H62   H     H_    0.210811 0.675571 0.371253 0.145691
H63   H     H_    0.723626 0.838967 0.411330 0.146688
H64   H     H_    0.710611 0.176044 0.370103 0.145642
H65   H     H_    0.652211 0.758671 0.415967 0.156109
H66   H     H_    0.641377 0.257329 0.373711 0.151079
H67   H     H_    0.152190 0.258651 0.415843 0.156136
H68   H     H_    0.141554 0.756814 0.375035 0.151111
H69   H     H_    0.288727 0.774229 0.181870 0.121439
H70   H     H_    0.289080 0.225919 0.183165 0.136074
H71   H     H_    0.788739 0.274234 0.181893 0.121260
H72   H     H_    0.789084 0.725917 0.183164 0.136083
H73   H     H_    0.781343 0.391078 0.027917 0.134003
H74   H     H_    0.781742 0.606773 0.033515 0.155630
H75   H     H_    0.281325 0.891054 0.027868 0.133904
H76   H     H_    0.281738 0.106766 0.033527 0.155604
C81   C     C_2   0.689922 0.326798 0.967317 -0.114951
C82   C     C_2   0.690290 0.672477 0.967756 -0.158030
C83   C     C_2   0.189910 0.826767 0.967284 -0.114537
C84   C     C_2   0.190288 0.172481 0.967752 -0.158016
C85   C     C_2   0.758186 0.345004 0.042202 -0.046240
C86   C     C_2   0.758312 0.654256 0.044428 -0.104844
C87   C     C_2   0.258171 0.844982 0.042165 -0.045826
C88   C     C_2   0.258309 0.154256 0.044431 -0.104769
H77   H     H_    0.367036 0.768781 0.087742 0.167168
H78   H     H_    0.365176 0.232511 0.085323 0.135265
H79   H     H_    0.867038 0.268788 0.087748 0.167162
H80   H     H_    0.865172 0.732518 0.085311 0.135265
C89   C     C_2   0.352303 0.751643 0.137473 -0.161308
C90   C     C_2   0.351075 0.249443 0.135851 -0.218556
C91   C     C_2   0.852306 0.251646 0.137480 -0.161052
C92   C     C_2   0.851073 0.749447 0.135843 -0.218560
C93   C     C_2   0.304190 0.791589 0.133250 -0.166775
C94   C     C_2   0.303993 0.208731 0.133870 -0.138327
C95   C     C_2   0.804201 0.291597 0.133272 -0.166825
C96   C     C_2   0.803995 0.708731 0.133867 -0.138295
H81   H     H_    0.669343 0.278982 0.983866 0.105173
H82   H     H_    0.669633 0.721439 0.981846 0.119493
H83   H     H_    0.169331 0.778956 0.983842 0.105015
H84   H     H_    0.169633 0.221448 0.981835 0.119457
O1    O     O_3   0.667640 0.637027 0.288996 -0.610257
C97   C     C_3   0.628150 0.704976 0.235343 -0.250640
H85   H     H_    0.657898 0.759274 0.268170 0.124496
H86   H     H_    0.583886 0.708133 0.236762 0.129430
H87   H     H_    0.604631 0.702017 0.146872 0.156403
O2    O     O_3   0.694124 0.397749 0.325400 -0.613096
C98   C     C_3   0.659211 0.348349 0.232570 -0.252860
H88   H     H_    0.655453 0.288151 0.251259 0.116430
H89   H     H_    0.685346 0.350893 0.195311 0.157185
H90   H     H_    0.604691 0.369513 0.168947 0.166161
O3    O     O_3   0.167687 0.136965 0.289061 -0.610264
C99   C     C_3   0.128211 0.204904 0.235303 -0.250543
H91   H     H_    0.157921 0.259217 0.268261 0.124423
H92   H     H_    0.083827 0.208014 0.236430 0.129504
H93   H     H_    0.104875 0.201975 0.146922 0.156381
O4    O     O_3   0.193277 0.896971 0.324118 -0.612766
C100  C     C_3   0.158197 0.846939 0.231905 -0.253243
H94   H     H_    0.154929 0.786857 0.251611 0.116705
H95   H     H_    0.183887 0.849215 0.193906 0.156834
H96   H     H_    0.103495 0.867684 0.168473 0.165484
C101  C     C_2   0.734309 0.372396 0.827205 0.468719
H97   H     H_    0.763115 0.420456 0.830146 0.080326
O5    O     O_2   0.761058 0.308681 0.853861 -0.601809
C102  C     C_2   0.737407 0.618093 0.835660 0.449539
H98   H     H_    0.765556 0.672385 0.865004 0.012770
O6    O     O_2   0.767765 0.560069 0.843406 -0.650424
C103  C     C_2   0.234294 0.872356 0.827152 0.468782
H99   H     H_    0.263100 0.920407 0.830076 0.080276
O7    O     O_2   0.261036 0.808638 0.853812 -0.601798
C104  C     C_2   0.237414 0.118060 0.835679 0.449549
H100  H     H_    0.265587 0.172337 0.865070 0.012764
O8    O     O_2   0.267748 0.060028 0.843383 -0.650412
O9    O     O_3   0.543545 0.405411 0.844302 -0.578036
C105  C     C_3   0.542485 0.340964 0.898260 -0.296024
H101  H     H_    0.588669 0.342446 0.987969 0.157055
H102  H     H_    0.539166 0.285060 0.860329 0.099738
H103  H     H_    0.495089 0.344843 0.891752 0.168426
O10   O     O_3   0.543353 0.593277 0.843965 -0.581800
C106  C     C_3   0.544251 0.656436 0.901218 -0.269791
H104  H     H_    0.540646 0.713014 0.864128 0.088468
H105  H     H_    0.591436 0.653497 0.990269 0.178543
H106  H     H_    0.497768 0.652042 0.897133 0.170950
O11   O     O_3   0.043537 0.905346 0.844285 -0.577976
C107  C     C_3   0.042391 0.840836 0.898063 -0.295728
H107  H     H_    0.088542 0.842235 0.987782 0.157246
H108  H     H_    0.039070 0.784969 0.860052 0.099552
H109  H     H_    0.994969 0.844706 0.891485 0.168352
O12   O     O_3   0.043347 0.093288 0.843954 -0.581814
C108  C     C_3   0.044238 0.156453 0.901188 -0.269591
H110  H     H_    0.040625 0.213027 0.864080 0.088385
H111  H     H_    0.091426 0.153526 0.990234 0.178489
H112  H     H_    0.997758 0.152057 0.897111 0.170981

loop_
_geom_bond_atom_site_label_1
_geom_bond_atom_site_label_2
_geom_bond_distance
_ccdc_geom_bond_type
C22   H18   1.076345 S    
C62   C80   1.562400 S    
C57   C75   1.519342 S    
C63   C77   1.547185 S    
C58   C76   1.516953 S    
C6    N6    1.342000 A    
C11   C43   1.369640 A    
C14   N14   1.317938 A    
C3    N3    1.332519 A    
C4    H4    1.075325 S    
C106  H106  1.109360 S    
C77   O1    1.427860 S    
H44   C60   1.114299 S    
C31   N31   1.345776 A    
C25   O9    1.387496 S    
O11   C107  1.410599 S    
N31   Ni6   1.876537 S    
C82   H82   1.086355 S    
C30   C34   1.393355 A    
C7    N7    1.342473 A    
N10   N18   1.362592 A    
H43   C59   1.114504 S    
N27   Ni8   1.846932 S    
C14   C46   1.375427 A    
N12   Ni6   1.865436 S    
N18   Ni3   1.855496 S    
C44   C71   1.470244 S    
C10   C42   1.367783 A    
C63   H49   1.105670 S    
H41   C57   1.114498 S    
C8    N8    1.341991 A    
C26   C38   1.400800 A    
C26   O10   1.387545 S    
C76   H68   1.110817 S    
C3    H3    1.075871 S    
N5    Ni3   1.842996 S    
C7    C39   1.393052 A    
O9    C105  1.410586 S    
C27   C39   1.400146 A    
C91   C95   1.342032 D    
C54   H34   1.113486 S    
C104  O8    1.217850 D    
C41   C70   1.462651 S    
H74   C86   1.083852 S    
C57   H61   1.111114 S    
C56   C72   1.560850 S    
C28   O12   1.387524 S    
C100  H94   1.105856 S    
C19   C43   1.369927 A    
O4    C100  1.412091 S    
N8    N28   1.410819 A    
C3    C35   1.386344 A    
C101  H97   1.077367 S    
C12   N12   1.318480 A    
C2    C34   1.386645 A    
C39   C83   1.470874 S    
C61   C65   1.558229 S    
N6    Ni3   1.848552 S    
C85   C95   1.454818 S    
H71   C95   1.086025 S    
C23   N23   1.321678 A    
N2    Ni1   1.875474 S    
C61   H53   1.113949 S    
N9    Ni5   1.868669 S    
C22   N22   1.324223 A    
C5    C101  1.466542 S    
C53   C69   1.567433 S    
C92   C96   1.341672 D    
N3    N31   1.410819 A    
C107  H107  1.107711 S    
C26   N26   1.345768 A    
C60   C74   1.516851 S    
N9    N17   1.362616 A    
C25   N25   1.346453 A    
C22   C46   1.379041 A    
C63   C67   1.558244 S    
C4    N4    1.331910 A    
C59   C67   1.552283 S    
C102  H98   1.084894 S    
C46   C66   1.457470 S    
C31   C35   1.392191 A    
N32   Ni6   1.879609 S    
C32   H24   1.080263 S    
H46   C74   1.114675 S    
C63   H55   1.113956 S    
N1    N29   1.410819 A    
N7    Ni4   1.842996 S    
C30   N30   1.346150 A    
C18   C42   1.379824 A    
C29   N29   1.345772 A    
N6    N26   1.410819 A    
C52   C54   1.523289 S    
C108  H110  1.115239 S    
C32   N32   1.346155 A    
H79   C91   1.086741 S    
N28   Ni8   1.843908 S    
C18   N18   1.328290 A    
N20   Ni4   1.855496 S    
C2    H2    1.075336 S    
N24   Ni2   1.870109 S    
C83   C87   1.339014 D    
C81   H81   1.086014 S    
C56   H36   1.113668 S    
N21   Ni1   1.864399 S    
H80   C92   1.086922 S    
C1    C33   1.386348 A    
C18   H14   1.068124 S    
N25   Ni7   1.846932 S    
N29   Ni5   1.876537 S    
C55   H35   1.113004 S    
C103  O7    1.220480 D    
C69   C73   1.546896 S    
C62   H54   1.113648 S    
C64   H50   1.105865 S    
C70   C78   1.567719 S    
C51   H31   1.112868 S    
C58   H62   1.112206 S    
N10   Ni5   1.865436 S    
C73   H65   1.109028 S    
C1    N1    1.332515 A    
C64   C68   1.554835 S    
C16   H12   1.071278 S    
N30   Ni5   1.879609 S    
C79   O3    1.427845 S    
H78   C90   1.086922 S    
C55   H37   1.110540 S    
C21   N21   1.321684 A    
N26   Ni7   1.843908 S    
N5    N25   1.410819 A    
N4    N32   1.410819 A    
C19   H15   1.071588 S    
C105  H103  1.109349 S    
C106  H105  1.108413 S    
C45   C65   1.458744 S    
C90   C94   1.341678 D    
C9    N9    1.323044 A    
C99   H93   1.107273 S    
C89   C93   1.342024 D    
C52   H28   1.113034 S    
C51   H27   1.111226 S    
C5    C37   1.393040 A    
C101  O5    1.220479 D    
C28   C40   1.400814 A    
C32   C36   1.393350 A    
C15   C47   1.379059 A    
C15   H11   1.070111 S    
N14   Ni7   1.859872 S    
C61   H51   1.105672 S    
C97   H86   1.107529 S    
C82   C86   1.338329 D    
O1    C97   1.417857 S    
C56   H38   1.114252 S    
C84   C88   1.338330 D    
C50   C56   1.523801 S    
C30   H22   1.080265 S    
C80   H60   1.114010 S    
C105  H102  1.115457 S    
C98   H88   1.105695 S    
C58   C66   1.549089 S    
H77   C89   1.086741 S    
C60   H64   1.112002 S    
C52   C68   1.553296 S    
C29   C33   1.392203 A    
C74   H66   1.110563 S    
N3    Ni2   1.881123 S    
H45   C73   1.114634 S    
C17   H13   1.071573 S    
C8    C40   1.392334 A    
C83   H83   1.086015 S    
C28   N28   1.345748 A    
O2    C98   1.411627 S    
C55   C71   1.567418 S    
C64   H56   1.113508 S    
C48   C68   1.457240 S    
C81   C85   1.339016 D    
N17   Ni3   1.861183 S    
H70   C94   1.086048 S    
C50   H26   1.113157 S    
C10   H6    1.073360 S    
H69   C93   1.086024 S    
C6    C102  1.466103 S    
N16   Ni8   1.859872 S    
C6    C38   1.392331 A    
C107  H108  1.115467 S    
C98   H89   1.110457 S    
C7    C103  1.466560 S    
C70   C74   1.551521 S    
C11   H7    1.078893 S    
C100  H95   1.110610 S    
C4    C36   1.386638 A    
N13   Ni7   1.856655 S    
C84   H84   1.086354 S    
C72   C76   1.551628 S    
C13   C45   1.379048 A    
C16   N16   1.317679 A    
C59   C73   1.519323 S    
H76   C88   1.083848 S    
N15   Ni8   1.856655 S    
N22   Ni1   1.870109 S    
C106  H104  1.115248 S    
C2    N2    1.331905 A    
C1    H1    1.075873 S    
C15   N15   1.323966 A    
C19   N19   1.323104 A    
C43   C72   1.463092 S    
C62   H52   1.105913 S    
C49   H25   1.111219 S    
C59   H63   1.111118 S    
C57   C65   1.552296 S    
C20   N20   1.328270 A    
C9    H5    1.079028 S    
N2    N30   1.410819 A    
C8    C104  1.466110 S    
C52   H32   1.113391 S    
C51   C67   1.550521 S    
C99   H92   1.107513 S    
C14   H10   1.071241 S    
C23   H19   1.075552 S    
C87   C93   1.454802 S    
C78   H58   1.113807 S    
C12   H8    1.073348 S    
C49   C65   1.550506 S    
C35   C92   1.466029 S    
C54   C70   1.560484 S    
C27   O11   1.387459 S    
C51   C53   1.535882 S    
C34   C89   1.466862 S    
C79   H59   1.113863 S    
C12   C44   1.367798 A    
N23   Ni2   1.864399 S    
C21   H17   1.075554 S    
C33   C90   1.466037 S    
C49   C55   1.535862 S    
C75   H67   1.109048 S    
C23   C47   1.379800 A    
N4    Ni2   1.875474 S    
C49   H29   1.112861 S    
C21   C45   1.379827 A    
H48   C76   1.114917 S    
C25   C37   1.400164 A    
C20   C44   1.379802 A    
C97   H87   1.107343 S    
C71   C75   1.546870 S    
N19   Ni4   1.861183 S    
C24   H20   1.076298 S    
C13   N13   1.323955 A    
N11   N19   1.362616 A    
C105  H101  1.107826 S    
C108  H111  1.108379 S    
O10   C106  1.409553 S    
C104  H100  1.084883 S    
C64   C78   1.562536 S    
N13   N21   1.362616 A    
C54   H40   1.114114 S    
C40   C84   1.470607 S    
C10   N10   1.318479 A    
C31   H23   1.080082 S    
C53   H39   1.110540 S    
C16   C48   1.375381 A    
C80   O4    1.428515 S    
H73   C85   1.084764 S    
C61   C79   1.547201 S    
H47   C75   1.114623 S    
H42   C58   1.114486 S    
C107  H109  1.109351 S    
C37   C81   1.470898 S    
N7    N27   1.410819 A    
C99   H91   1.101102 S    
N11   Ni6   1.868669 S    
C102  O6    1.217855 D    
C71   C79   1.577247 S    
C50   C66   1.553594 S    
C78   O2    1.428335 S    
C97   H85   1.101136 S    
C88   C94   1.453816 S    
C13   H9    1.070170 S    
C108  H112  1.109359 S    
C42   C69   1.470259 S    
N16   N24   1.362592 A    
C9    C41   1.369567 A    
C17   N17   1.322820 A    
C5    N5    1.342499 A    
C50   H30   1.113540 S    
C53   H33   1.113014 S    
C20   H16   1.068128 S    
C98   H90   1.109070 S    
H75   C87   1.084766 S    
O12   C108  1.409526 S    
C24   N24   1.324093 A    
N15   N23   1.362616 A    
C29   H21   1.080092 S    
C62   C66   1.555073 S    
C100  H96   1.109221 S    
C38   C82   1.470604 S    
O3    C99   1.417853 S    
N14   N22   1.362592 A    
N12   N20   1.362592 A    
C36   C91   1.466872 S    
C17   C41   1.369662 A    
C60   C68   1.548914 S    
C72   C80   1.568310 S    
C86   C96   1.453813 S    
C77   H57   1.113870 S    
C24   C48   1.378895 A    
C69   C77   1.577289 S    
N1    Ni1   1.881123 S    
H72   C96   1.086048 S    
C47   C67   1.458757 S    
C103  H99   1.077359 S    
C11   N11   1.323060 A    
N8    Ni4   1.848552 S    
C27   N27   1.346429 A    
