data_mof_unit_28870.cif
_audit_creation_date              2012-12-10T20:40:58-0500
_audit_creation_method            fapswitch 2.2
_symmetry_space_group_name_H-M    P1
_symmetry_Int_Tables_number       1
_space_group_crystal_system       triclinic
_cell_length_a                    27.739422
_cell_length_b                    10.675231
_cell_length_c                    9.850138
_cell_angle_alpha                 90.166363
_cell_angle_beta                  89.983651
_cell_angle_gamma                 90.108658
_cell_volume                      2916.85187596

loop_
_atom_site_label
_atom_site_type_symbol
_atom_type_description
_atom_site_fract_x
_atom_site_fract_y
_atom_site_fract_z
_atom_type_partial_charge
C1    C     C_R   0.500948 0.260167 0.499496 0.941778
C2    C     C_R   0.277813 0.462116 0.614286 -0.097160
C3    C     C_R   0.253062 0.499081 0.497525 0.315797
C4    C     C_R   0.101778 0.499192 0.496345 -0.052150
C5    C     C_R   0.127273 0.385230 0.496184 -0.020747
C6    C     C_R   0.102099 0.272008 0.496591 -0.135713
C7    C     C_R   0.127473 0.613101 0.496515 -0.020886
C8    C     C_R   0.353463 0.499770 0.499335 -0.035577
C9    C     C_R   0.646630 0.499909 0.499800 -0.037916
C10   C     C_R   0.974378 0.384141 0.484032 0.046518
C11   C     C_R   0.974609 0.614539 0.509904 0.046547
C12   C     C_R   0.406054 0.499923 0.499924 0.867654
C13   C     C_R   0.949271 0.499365 0.497241 0.070775
C14   C     C_R   0.947402 0.273137 0.463002 -0.215355
C15   C     C_R   0.897439 0.274621 0.461397 -0.135774
C16   C     C_R   0.872490 0.386656 0.480096 -0.022335
C17   C     C_R   0.898206 0.499412 0.497836 -0.051672
C18   C     C_R   0.872733 0.612213 0.516190 -0.021345
C19   C     C_R   0.822323 0.610067 0.516761 0.503874
C20   C     C_R   0.822083 0.388893 0.480730 0.505337
C21   C     C_R   0.722142 0.510729 0.622104 -0.101402
C22   C     C_R   0.672065 0.510697 0.622563 -0.215188
C23   C     C_R   0.500241 0.739644 0.499996 0.916530
C24   C     C_R   0.671927 0.488990 0.376803 -0.206823
C25   C     C_R   0.721996 0.488643 0.376792 -0.105465
C26   C     C_R   0.747018 0.499597 0.499325 0.323635
C27   C     C_R   0.025380 0.383589 0.491170 0.046839
C28   C     C_R   0.050711 0.499248 0.496448 0.070420
C29   C     C_R   0.025595 0.614967 0.501934 0.046838
C30   C     C_R   0.052136 0.270913 0.494470 -0.214862
C31   C     C_R   0.102502 0.726377 0.495905 -0.135559
C32   C     C_R   0.947881 0.725606 0.531461 -0.215573
C33   C     C_R   0.897923 0.724213 0.534227 -0.135991
C34   C     C_R   0.593979 0.500008 0.499974 0.879160
C35   C     C_R   0.052544 0.727579 0.498195 -0.214904
C36   C     C_R   0.472112 0.064307 0.590339 0.056192
C37   C     C_R   0.500091 0.127973 0.495533 -0.201530
C38   C     C_R   0.522771 0.063771 0.387641 0.473407
C39   C     C_R   0.522618 0.933358 0.391481 -0.339976
C40   C     C_R   0.499129 0.871268 0.497262 -0.151316
C41   C     C_R   0.471627 0.936534 0.591156 0.128124
C42   C     C_3   0.471439 0.930202 0.742596 -0.455741
C43   C     C_3   0.471692 0.072230 0.741927 -0.459242
C44   C     C_R   0.474139 0.412118 0.071161 0.211980
C45   C     C_R   0.177687 0.387335 0.496449 0.503978
C46   C     C_R   0.528829 0.579411 0.072251 -0.128668
C47   C     C_R   0.528851 0.579368 0.928160 -0.137254
C48   C     C_R   0.473944 0.412567 0.928395 0.210342
C49   C     C_3   0.420585 0.396336 0.923893 -0.518910
C50   C     C_3   0.420958 0.393876 0.077698 -0.496689
C51   C     C_R   0.177880 0.610900 0.496705 0.504123
C52   C     C_R   0.278323 0.536245 0.381590 -0.097433
C53   C     C_R   0.328392 0.536562 0.382344 -0.217010
C54   C     C_R   0.327883 0.462431 0.615277 -0.222316
H1    H     H_    0.346460 0.432109 0.705810 0.153160
H2    H     H_    0.259079 0.564827 0.291227 0.141780
H3    H     H_    0.121497 0.815141 0.493591 0.190600
H4    H     H_    0.964423 0.815399 0.549753 0.139804
H5    H     H_    0.653126 0.480379 0.280859 0.164487
H6    H     H_    0.879101 0.811803 0.550730 0.191244
H7    H     H_    0.741430 0.480171 0.281845 0.138144
H8    H     H_    0.036183 0.818864 0.493947 0.138161
H9    H     H_    0.543082 0.880331 0.317578 0.166600
H10   H     H_    0.437396 0.889561 0.782739 0.205227
H11   H     H_    0.258172 0.433252 0.703967 0.142089
H12   H     H_    0.505015 0.888850 0.784379 0.209792
H13   H     H_    0.437628 0.113122 0.781080 0.197684
H14   H     H_    0.505202 0.113897 0.784446 0.207592
H15   H     H_    0.551328 0.645311 0.126906 0.145066
H16   H     H_    0.551389 0.645160 0.873871 0.145809
H17   H     H_    0.402017 0.480096 0.882520 0.219138
H18   H     H_    0.409650 0.305731 0.877618 0.194541
H19   H     H_    0.401978 0.475030 0.123803 0.217411
H20   H     H_    0.411111 0.301071 0.120546 0.203649
H21   H     H_    0.120938 0.183203 0.498773 0.190416
H22   H     H_    0.653364 0.519453 0.718659 0.161371
H23   H     H_    0.741691 0.519115 0.716859 0.138027
H24   H     H_    0.878422 0.187071 0.445301 0.191306
H25   H     H_    0.963740 0.183318 0.444325 0.139793
H26   H     H_    0.035622 0.179650 0.498627 0.138099
H27   H     H_    0.347396 0.566785 0.292193 0.152049
N1    N     N_R   0.201709 0.499096 0.496783 -0.358057
N2    N     N_R   0.798321 0.499503 0.499025 -0.358733
N3    N     N_R   0.499670 0.499140 0.142800 -0.105692
N4    N     N_R   0.499670 0.499180 0.857150 -0.105993
O1    O     O_R   0.500010 0.316790 0.614690 -0.627638
O2    O     O_2   0.796907 0.281595 0.464033 -0.548923
O3    O     O_2   0.202984 0.719371 0.497932 -0.552197
O4    O     O_2   0.797379 0.717417 0.534003 -0.551521
O5    O     O_R   0.500000 0.316760 0.385350 -0.581415
O6    O     O_R   0.428760 0.500040 0.614660 -0.622329
O7    O     O_R   0.428750 0.500000 0.385310 -0.627997
O8    O     O_R   0.500000 0.683240 0.614650 -0.622492
O9    O     O_R   0.499990 0.683210 0.385310 -0.626982
O10   O     O_R   0.571250 0.500000 0.614690 -0.626763
O11   O     O_R   0.571240 0.499960 0.385340 -0.618188
O12   O     O_2   0.202608 0.278826 0.495432 -0.552488
Zn1   Zn    Zn3+2 0.500000 0.500020 0.653130 0.945848
Zn2   Zn    Zn3+2 0.500000 0.499980 0.346870 0.963749
O13   O     O_3   0.551098 0.129922 0.295332 -0.625598
C55   C     C_3   0.546091 0.085629 0.160215 0.095417
H28   H     H_    0.537914 0.167423 0.094660 0.153737
H29   H     H_    0.515619 0.018644 0.144892 0.123456
C56   C     C_3   0.593862 0.028557 0.112698 -0.328018
H30   H     H_    0.621856 0.103121 0.108970 0.236740
H31   H     H_    0.606077 0.956270 0.185767 0.223702
C57   C     C_3   0.589138 0.968570 0.972634 -0.974284
H32   H     H_    0.562243 0.891418 0.975422 0.252246
H33   H     H_    0.624432 0.929070 0.941220 0.278430
H34   H     H_    0.577999 0.039517 0.896771 0.267575

loop_
_geom_bond_atom_site_label_1
_geom_bond_atom_site_label_2
_ccdc_geom_bond_type
C10   C27   A    
C44   C48   A    
C21   C26   A    
O11   Zn2   S    
C40   C41   A    
C1    O5    A    
C41   C42   S    
C12   O6    A    
C45   N1    A    
C32   H4    S    
C2    H11   S    
C56   H31   S    
O10   Zn1   S    
C6    H21   S    
C55   H28   S    
C26   N2    S    
C47   N4    A    
C36   C37   A    
C34   O11   A    
C50   H20   S    
C5    C6    A    
C9    C22   A    
C15   H24   S    
C23   C40   S    
C20   O2    S    
C53   H27   S    
C18   C19   A    
C46   H15   S    
N4    Zn1   S    
C46   C47   A    
C43   H14   S    
C49   H18   S    
C57   H32   S    
C22   H22   S    
C16   C20   A    
C30   H26   S    
C55   H29   S    
C21   C22   A    
C27   C30   A    
C57   H33   S    
C36   C41   A    
C4    C7    A    
C19   N2    A    
C56   H30   S    
C4    C28   A    
C7    C31   A    
C24   C25   A    
C38   O13   S    
C2    C54   A    
C50   H19   S    
C8    C54   A    
C39   C40   A    
C16   C17   A    
C25   C26   A    
C5    C45   A    
C23   O8    A    
C8    C53   A    
C47   H16   S    
C37   C38   A    
C19   O4    S    
C8    C12   S    
C3    N1    S    
C17   C18   A    
C25   H7    S    
C14   H25   S    
C34   O10   A    
C51   N1    A    
C46   N3    A    
C48   C49   S    
C6    C30   A    
C11   C32   A    
C33   H6    S    
C10   C14   A    
C9    C34   S    
C57   H34   S    
C31   C35   A    
C42   C43   S    
C42   H10   S    
O5    Zn2   S    
C52   C53   A    
C44   C50   S    
C1    O1    A    
C54   H1    S    
C28   C29   A    
C48   N4    A    
N3    Zn2   S    
C12   O7    A    
C4    C5    A    
C44   N3    A    
C10   C13   A    
C51   O3    S    
C3    C52   A    
C9    C24   A    
C1    C37   S    
C55   C56   S    
C39   H9    S    
C29   C35   A    
C23   O9    A    
C13   C17   A    
C32   C33   A    
C31   H3    S    
C2    C3    A    
C7    C51   A    
C45   O12   S    
C11   C13   A    
C38   C39   A    
O9    Zn2   S    
C24   H5    S    
O13   C55   S    
C35   H8    S    
O6    Zn1   S    
O1    Zn1   S    
C18   C33   A    
C52   H2    S    
C11   C29   A    
C43   H13   S    
C49   C50   S    
C49   H17   S    
C20   N2    A    
C21   H23   S    
C27   C28   A    
C42   H12   S    
C14   C15   A    
C36   C43   S    
O8    Zn1   S    
C56   C57   S    
C15   C16   A    
O7    Zn2   S    
