data_mof_unit_22830.cif
_audit_creation_date              2012-12-11T15:44:47-0500
_audit_creation_method            fapswitch 2.2
_symmetry_space_group_name_H-M    P1
_symmetry_Int_Tables_number       1
_space_group_crystal_system       triclinic
_cell_length_a                    19.004917
_cell_length_b                    10.922088
_cell_length_c                    18.743363
_cell_angle_alpha                 90.342347
_cell_angle_beta                  90.198903
_cell_angle_gamma                 89.797508
_cell_volume                      3890.50622636

loop_
_atom_site_label
_atom_site_type_symbol
_atom_type_description
_atom_site_fract_x
_atom_site_fract_y
_atom_site_fract_z
_atom_type_partial_charge
C1    C     C_R   0.759986 0.535544 0.646582 0.533113
C2    C     C_R   0.239245 0.535062 0.353182 0.536448
C3    C     C_R   0.259986 0.035543 0.646582 0.531806
C4    C     C_R   0.739245 0.035062 0.353182 0.535497
C5    C     C_R   0.733714 0.038018 0.550463 -0.127851
C6    C     C_R   0.162562 0.114163 0.479968 -0.166764
C7    C     C_R   0.233703 0.538031 0.550463 -0.127794
C8    C     C_R   0.662564 0.614165 0.479967 -0.166780
C9    C     C_R   0.718642 0.009168 0.479659 -0.125849
C10   C     C_R   0.173840 0.088222 0.552008 -0.161464
C11   C     C_R   0.218632 0.509184 0.479658 -0.126022
C12   C     C_R   0.673842 0.588227 0.552008 -0.161565
C13   C     C_3   0.797762 0.299520 0.417992 -0.279425
C14   C     C_3   0.366338 0.159292 0.534691 -0.256158
C15   C     C_3   0.297790 0.799507 0.417994 -0.278958
C16   C     C_3   0.866342 0.659261 0.534684 -0.256143
C17   C     C_3   0.812358 0.332529 0.495239 -0.281382
C18   C     C_3   0.353434 0.184085 0.456067 -0.262513
C19   C     C_3   0.312383 0.832518 0.495242 -0.281577
C20   C     C_3   0.853438 0.684043 0.456060 -0.262586
C21   C     C_R   0.776593 0.138632 0.566103 0.032449
C22   C     C_R   0.217177 0.161442 0.438449 -0.000362
C23   C     C_R   0.276593 0.638632 0.566104 0.032554
C24   C     C_R   0.717180 0.661437 0.438447 -0.000330
C25   C     C_R   0.003749 0.347165 0.429049 -0.045208
C26   C     C_R   0.010222 0.329434 0.579046 -0.041928
C27   C     C_R   0.503748 0.847162 0.429048 -0.045420
C28   C     C_R   0.510222 0.829433 0.579045 -0.041674
C29   C     C_R   0.968045 0.130684 0.422006 -0.086374
C30   C     C_R   0.992770 0.105044 0.567515 -0.083801
C31   C     C_R   0.468054 0.630675 0.422005 -0.086321
C32   C     C_R   0.492772 0.605042 0.567516 -0.083759
C33   C     C_R   0.960911 0.016775 0.453879 -0.120394
C34   C     C_R   0.974655 0.003385 0.526226 -0.131376
C35   C     C_R   0.460924 0.516766 0.453878 -0.120370
C36   C     C_R   0.474664 0.503380 0.526227 -0.131453
C37   C     C_R   0.997602 0.222938 0.536963 0.007529
C38   C     C_R   0.990082 0.233812 0.462089 -0.007995
C39   C     C_R   0.497603 0.722935 0.536963 0.007674
C40   C     C_R   0.490084 0.733807 0.462089 -0.008138
C41   C     C_R   0.031268 0.437846 0.545669 -0.000726
C42   C     C_R   0.016866 0.453260 0.472732 0.004309
C43   C     C_R   0.531267 0.937846 0.545667 -0.000603
C44   C     C_R   0.516862 0.953258 0.472731 0.004132
C45   C     C_R   0.791555 0.170968 0.638803 0.564653
C46   C     C_R   0.208215 0.172758 0.361116 0.564789
C47   C     C_R   0.291555 0.670968 0.638803 0.564536
C48   C     C_R   0.708216 0.672756 0.361116 0.565062
C49   C     C_R   0.061054 0.535395 0.585452 -0.083793
C50   C     C_R   0.016612 0.575401 0.446671 -0.075686
C51   C     C_R   0.561054 0.035395 0.585450 -0.083741
C52   C     C_R   0.516604 0.075400 0.446670 -0.075761
C53   C     C_R   0.067862 0.651258 0.555891 -0.118273
C54   C     C_R   0.043242 0.672188 0.487293 -0.132001
C55   C     C_R   0.567861 0.151258 0.555886 -0.118271
C56   C     C_R   0.543237 0.172187 0.487290 -0.132020
C57   C     C_R   0.755356 0.088224 0.079500 0.007193
C58   C     C_R   0.252003 0.084227 0.922840 0.046754
C59   C     C_R   0.255833 0.589524 0.080004 0.006123
C60   C     C_R   0.758901 0.547818 0.931315 0.026042
C61   C     C_R   0.813713 0.045112 0.041357 -0.014447
C62   C     C_R   0.185801 0.091569 0.953985 -0.012356
C63   C     C_R   0.316444 0.553486 0.042959 -0.016669
C64   C     C_R   0.703806 0.494103 0.968110 -0.007219
C65   C     C_R   0.816578 0.056167 0.968792 0.055815
C66   C     C_R   0.179759 0.100025 0.026689 0.075251
C67   C     C_R   0.319908 0.564951 0.970282 0.060370
C68   C     C_R   0.698948 0.502684 0.040837 0.070609
C69   C     C_R   0.709752 0.174215 0.969194 -0.155854
C70   C     C_R   0.305277 0.113684 0.040429 -0.160062
C71   C     C_R   0.208418 0.669138 0.968861 -0.143957
C72   C     C_R   0.811661 0.603019 0.045696 -0.158697
C73   C     C_R   0.706473 0.163171 0.043811 -0.158339
C74   C     C_R   0.311883 0.103863 0.966309 -0.087411
C75   C     C_R   0.204927 0.658232 0.043368 -0.130871
C76   C     C_R   0.816572 0.592133 0.971153 -0.101165
C77   C     C_3   0.847373 0.920656 0.038232 -0.184146
C78   C     C_3   0.121633 0.013192 0.947105 -0.204923
C79   C     C_3   0.355831 0.434068 0.040794 -0.183662
C80   C     C_3   0.626649 0.505753 0.955779 -0.199179
C81   C     C_3   0.850712 0.934380 0.958038 0.088060
C82   C     C_3   0.115763 0.021273 0.027613 0.102439
C83   C     C_3   0.359363 0.447687 0.960549 0.095835
C84   C     C_3   0.620308 0.516090 0.035914 0.099948
C85   C     C_R   0.762467 0.111459 0.930612 0.044101
C86   C     C_R   0.238743 0.102811 0.071458 0.048951
C87   C     C_R   0.263837 0.612855 0.931157 0.040700
C88   C     C_R   0.748973 0.569481 0.079950 -0.012793
C89   C     C_R   0.973789 0.343969 0.648350 0.525515
C90   C     C_R   0.029119 0.347894 0.354158 0.520816
C91   C     C_R   0.473787 0.843969 0.648348 0.524350
C92   C     C_R   0.529118 0.847894 0.354158 0.521435
C93   C     C_R   0.988620 0.344829 0.081175 0.019514
C94   C     C_R   0.975290 0.341465 0.933075 0.022679
C95   C     C_R   0.491943 0.842493 0.079527 0.017430
C96   C     C_R   0.481963 0.840792 0.930946 0.022775
C97   C     C_R   0.982174 0.454138 0.042766 0.022881
C98   C     C_R   0.976000 0.451612 0.970219 0.023871
C99   C     C_R   0.482760 0.951803 0.041731 0.012048
C100  C     C_R   0.478509 0.949998 0.969072 0.018893
C101  C     C_R   0.965323 0.232743 0.972079 -0.164912
C102  C     C_R   0.970598 0.235040 0.046825 -0.172090
C103  C     C_R   0.477317 0.730091 0.968843 -0.161897
C104  C     C_R   0.481174 0.731062 0.043493 -0.171313
C105  C     C_3   0.029127 0.564125 0.039270 -0.258701
C106  C     C_3   0.020951 0.561088 0.959223 -0.276689
C107  C     C_3   0.525277 0.067626 0.040253 -0.247829
C108  C     C_3   0.519839 0.064343 0.959911 -0.272271
C109  C     C_R   0.762719 0.525119 0.855092 0.558078
C110  C     C_R   0.240187 0.533452 0.148294 0.544986
C111  C     C_R   0.260984 0.032184 0.852394 0.550029
C112  C     C_R   0.740102 0.033565 0.148285 0.545301
C113  C     C_R   0.774079 0.131093 0.855097 0.558197
C114  C     C_R   0.226834 0.127113 0.146266 0.559091
C115  C     C_R   0.274420 0.631491 0.855333 0.561631
C116  C     C_R   0.728123 0.623147 0.147896 0.548563
C117  C     C_R   0.964556 0.347185 0.856867 0.548289
C118  C     C_R   0.027497 0.347300 0.147908 0.544986
C119  C     C_R   0.467300 0.846879 0.855502 0.546296
C120  C     C_R   0.528290 0.847057 0.147397 0.546347
C121  C     C_R   0.747712 0.079158 0.424594 0.034187
C122  C     C_R   0.240569 0.107044 0.583433 0.004179
C123  C     C_R   0.247712 0.579162 0.424594 0.033991
C124  C     C_R   0.740571 0.607043 0.583431 0.003953
C125  C     C_R   0.797209 0.168669 0.440554 0.010241
C126  C     C_R   0.289248 0.176525 0.545449 0.012370
C127  C     C_R   0.297220 0.668656 0.440556 0.010238
C128  C     C_R   0.789254 0.676516 0.545445 0.012265
C129  C     C_R   0.810748 0.199150 0.510985 0.013444
C130  C     C_R   0.277775 0.202326 0.473950 0.025298
C131  C     C_R   0.310757 0.699137 0.510987 0.013370
C132  C     C_R   0.777782 0.702313 0.473946 0.025444
Cr1   Cr    Cr6+3 0.885860 0.491680 0.749630 1.004297
Cr2   Cr    Cr6+3 0.114140 0.491680 0.250370 1.000985
Cr3   Cr    Cr6+3 0.385860 0.991680 0.749630 1.004878
Cr4   Cr    Cr6+3 0.614140 0.991680 0.250370 1.005465
Cr5   Cr    Cr6+3 0.730490 0.332970 0.748720 0.996006
Cr6   Cr    Cr6+3 0.269510 0.332970 0.251280 0.999873
Cr7   Cr    Cr6+3 0.230490 0.832970 0.748720 0.995204
Cr8   Cr    Cr6+3 0.769510 0.832970 0.251280 0.997765
Cr9   Cr    Cr6+3 0.887570 0.179310 0.750150 0.994391
Cr10  Cr    Cr6+3 0.112430 0.179310 0.249850 0.996098
Cr11  Cr    Cr6+3 0.387570 0.679310 0.750150 0.995942
Cr12  Cr    Cr6+3 0.612430 0.679310 0.249850 0.991784
H1    H     H_    0.089700 0.725718 0.587153 0.123581
H2    H     H_    0.044393 0.763684 0.465486 0.107034
H3    H     H_    0.589702 0.225718 0.587148 0.123594
H4    H     H_    0.544389 0.263682 0.465482 0.107163
H5    H     H_    0.670235 0.228030 0.941861 0.144282
H6    H     H_    0.351796 0.125955 0.073215 0.115537
H7    H     H_    0.166651 0.716258 0.940858 0.138824
H8    H     H_    0.853769 0.647062 0.075110 0.121260
H9    H     H_    0.663242 0.205040 0.072444 0.173060
H10   H     H_    0.364022 0.103435 0.943648 0.150745
H11   H     H_    0.159585 0.693058 0.071400 0.176871
H12   H     H_    0.863534 0.623705 0.944713 0.157189
H13   H     H_    0.810840 0.847926 0.055657 0.195353
H14   H     H_    0.132384 0.919126 0.927360 0.180498
H15   H     H_    0.323340 0.355613 0.058060 0.193633
H16   H     H_    0.603338 0.420935 0.932864 0.163430
H17   H     H_    0.900130 0.919276 0.064039 0.081449
H18   H     H_    0.078243 0.061370 0.918879 0.090244
H19   H     H_    0.408218 0.440722 0.067074 0.105627
H20   H     H_    0.612329 0.591606 0.927529 0.102517
H21   H     H_    0.905222 0.938427 0.936508 0.100900
H22   H     H_    0.068395 0.069389 0.046760 0.113502
H23   H     H_    0.413787 0.457957 0.939716 0.109248
H24   H     H_    0.600730 0.606600 0.054368 0.144203
H25   H     H_    0.083366 0.541254 0.056220 0.167245
H26   H     H_    0.990936 0.640514 0.938053 0.137329
H27   H     H_    0.579985 0.053424 0.058990 0.173842
H28   H     H_    0.487940 0.140779 0.937853 0.144610
H29   H     H_    0.005302 0.646574 0.064688 0.134793
H30   H     H_    0.070612 0.539134 0.930572 0.143297
H31   H     H_    0.497026 0.146533 0.064805 0.151436
H32   H     H_    0.571093 0.047946 0.932972 0.144629
H33   H     H_    0.684508 0.932360 0.467751 0.122682
H34   H     H_    0.133070 0.039821 0.580257 0.140669
H35   H     H_    0.184490 0.432387 0.467750 0.122702
H36   H     H_    0.633070 0.539831 0.580258 0.140654
H37   H     H_    0.245569 0.831995 0.398737 0.155592
H38   H     H_    0.884718 0.564874 0.545795 0.159565
H39   H     H_    0.745535 0.331990 0.398742 0.155251
H40   H     H_    0.384721 0.064906 0.545796 0.159673
H41   H     H_    0.842570 0.319992 0.382063 0.134875
H42   H     H_    0.397340 0.232186 0.561660 0.142442
H43   H     H_    0.342604 0.819959 0.382070 0.135476
H44   H     H_    0.897352 0.732151 0.561647 0.142457
H45   H     H_    0.865392 0.371668 0.503906 0.135039
H46   H     H_    0.378212 0.269518 0.437216 0.138564
H47   H     H_    0.365422 0.871646 0.503915 0.135101
H48   H     H_    0.878226 0.769463 0.437202 0.138459
H49   H     H_    0.768353 0.382910 0.520793 0.148346
H50   H     H_    0.362141 0.102328 0.421505 0.140518
H51   H     H_    0.268380 0.882917 0.520791 0.148437
H52   H     H_    0.862132 0.602278 0.421502 0.140266
H53   H     H_    0.945872 0.938651 0.421814 0.106169
H54   H     H_    0.971415 0.914047 0.550535 0.103850
H55   H     H_    0.445893 0.438639 0.421813 0.106486
H56   H     H_    0.471426 0.414042 0.550537 0.103838
H57   H     H_    0.954718 0.137617 0.366027 0.130088
H58   H     H_    0.006210 0.088915 0.622745 0.131454
H59   H     H_    0.454728 0.637604 0.366026 0.130694
H60   H     H_    0.506210 0.588916 0.622747 0.131345
H61   H     H_    0.993246 0.599537 0.396074 0.138106
H62   H     H_    0.078098 0.522211 0.640101 0.128026
H63   H     H_    0.493236 0.099533 0.396073 0.138482
H64   H     H_    0.578099 0.022211 0.640098 0.127872
O1    O     O_R   0.957020 0.451640 0.669920 -0.517525
O2    O     O_R   0.042980 0.451640 0.330080 -0.526560
O3    O     O_R   0.457020 0.951640 0.669920 -0.517928
O4    O     O_R   0.542980 0.951640 0.330080 -0.526105
O5    O     O_R   0.736470 0.210100 0.823360 -0.508144
O6    O     O_R   0.263530 0.210100 0.176640 -0.511998
O7    O     O_R   0.236470 0.710100 0.823360 -0.508057
O8    O     O_R   0.763530 0.710100 0.176640 -0.504378
O9    O     O_R   0.831960 0.093290 0.830130 -0.527447
O10   O     O_R   0.168040 0.093290 0.169870 -0.505373
O11   O     O_R   0.331960 0.593290 0.830130 -0.524206
O12   O     O_R   0.668040 0.593290 0.169870 -0.527152
O13   O     O_R   0.945600 0.250580 0.824860 -0.513711
O14   O     O_R   0.054400 0.250580 0.175140 -0.510005
O15   O     O_R   0.445600 0.750580 0.824860 -0.513061
O16   O     O_R   0.554400 0.750580 0.175140 -0.513331
O17   O     O_3   0.834640 0.334650 0.749500 -0.264824
O18   O     O_3   0.165360 0.334650 0.250500 -0.261405
O19   O     O_3   0.334640 0.834650 0.749500 -0.261555
O20   O     O_3   0.665360 0.834650 0.250500 -0.259146
O21   O     O_R   0.821450 0.543440 0.674610 -0.496448
O22   O     O_R   0.178550 0.543440 0.325390 -0.499185
O23   O     O_R   0.321450 0.043440 0.674610 -0.497102
O24   O     O_R   0.678550 0.043440 0.325390 -0.499685
O25   O     O_R   0.715320 0.458650 0.668100 -0.535876
O26   O     O_R   0.284680 0.458650 0.331900 -0.526891
O27   O     O_R   0.215320 0.958650 0.668100 -0.536432
O28   O     O_R   0.784680 0.958650 0.331900 -0.527456
O29   O     O_R   0.737170 0.209590 0.674530 -0.507774
O30   O     O_R   0.262830 0.209590 0.325470 -0.499870
O31   O     O_R   0.237170 0.709590 0.674530 -0.507817
O32   O     O_R   0.762830 0.709590 0.325470 -0.500619
O33   O     O_R   0.832710 0.092740 0.669580 -0.511451
O34   O     O_R   0.167290 0.092740 0.330420 -0.520883
O35   O     O_R   0.332710 0.592740 0.669580 -0.511564
O36   O     O_R   0.667290 0.592740 0.330420 -0.520845
O37   O     O_R   0.946290 0.250060 0.676040 -0.519756
O38   O     O_R   0.053710 0.250060 0.323960 -0.520348
O39   O     O_R   0.446290 0.750060 0.676040 -0.520737
O40   O     O_R   0.553710 0.750060 0.323960 -0.519446
O41   O     O_R   0.956270 0.452200 0.830470 -0.520801
O42   O     O_R   0.043730 0.452200 0.169530 -0.524062
O43   O     O_R   0.456270 0.952200 0.830470 -0.520381
O44   O     O_R   0.543730 0.952200 0.169530 -0.521934
O45   O     O_R   0.820760 0.543950 0.823440 -0.504531
O46   O     O_R   0.179240 0.543950 0.176560 -0.508929
O47   O     O_R   0.320760 0.043950 0.823440 -0.505620
O48   O     O_R   0.679240 0.043950 0.176560 -0.506274
O49   O     O_R   0.714570 0.459210 0.828640 -0.525708
O50   O     O_R   0.285430 0.459210 0.171360 -0.526962
O51   O     O_R   0.214570 0.959210 0.828640 -0.530694
O52   O     O_R   0.785430 0.959210 0.171360 -0.527556
H65   H     H_    0.710865 0.984180 0.592784 0.130014
H66   H     H_    0.113349 0.087490 0.455524 0.157957
H67   H     H_    0.210846 0.484202 0.592784 0.130098
H68   H     H_    0.613349 0.587497 0.455524 0.158038
O53   O     O_3   0.806002 0.852006 0.922650 -0.713629
H69   H     H_    0.819785 0.853451 0.871681 0.336729
O54   O     O_3   0.128665 0.908383 0.060144 -0.726390
H70   H     H_    0.099572 0.906542 0.103967 0.326742
O55   O     O_3   0.318690 0.359612 0.924905 -0.711359
H71   H     H_    0.335062 0.358457 0.874723 0.336144
O56   O     O_3   0.585246 0.415233 0.064784 -0.737908
H72   H     H_    0.576616 0.435578 0.115640 0.336803
H73   H     H_    0.956181 0.146485 0.945093 0.122382
H74   H     H_    0.966759 0.150817 0.076628 0.112174
H75   H     H_    0.473141 0.643571 0.940950 0.125326
H76   H     H_    0.482513 0.645091 0.071903 0.129973

loop_
_geom_bond_atom_site_label_1
_geom_bond_atom_site_label_2
_ccdc_geom_bond_type
C47   O31   A    
C58   C62   A    
C5    H65   S    
C55   C56   A    
Cr6   O50   S    
Cr10  O14   S    
C67   C83   S    
C101  C102  A    
Cr2   O2    S    
C45   O33   A    
C81   H21   S    
C118  O14   A    
C52   H63   S    
Cr1   O1    S    
C41   C42   A    
C14   C18   S    
C96   C119  S    
C17   H49   S    
C35   C36   A    
C70   H6    S    
C113  O5    A    
C72   C76   A    
C101  H73   S    
C97   C98   A    
C92   O40   A    
C68   C84   S    
C35   H55   S    
C71   C75   A    
C107  H27   S    
C53   C54   A    
C115  O7    A    
C26   C89   S    
C15   C19   S    
Cr4   O24   S    
Cr10  O38   S    
C25   C90   S    
C50   C54   A    
C95   C120  S    
C105  H25   S    
C116  O8    A    
Cr2   O18   S    
Cr9   O13   S    
C16   C20   S    
Cr1   O17   S    
Cr12  O12   S    
C64   C68   A    
C79   H15   S    
C14   H42   S    
C94   C117  S    
C16   H38   S    
C80   H16   S    
C19   C131  S    
C18   H50   S    
C94   C98   A    
O56   H72   S    
C6    C22   A    
C108  H32   S    
C46   O34   A    
Cr8   O32   S    
C59   C110  S    
C31   C40   A    
C74   H10   S    
Cr7   O19   S    
C51   C55   A    
C32   C39   A    
C57   C73   A    
C57   C61   A    
C83   O55   S    
C78   C82   S    
Cr10  O10   S    
Cr5   O17   S    
C60   C109  S    
C3    O27   A    
Cr4   O4    S    
C123  C127  A    
C27   C44   A    
C78   H14   S    
C80   H20   S    
C29   C33   A    
C1    O25   A    
C72   H8    S    
Cr7   O51   S    
C29   C38   A    
C70   C74   A    
C9    C121  A    
C107  C108  S    
C25   C38   A    
C69   C73   A    
C82   O54   S    
C77   C81   S    
C116  O12   A    
O53   H69   S    
C104  H76   S    
C87   C115  S    
C47   O35   A    
C3    C122  S    
C48   O36   A    
C54   H2    S    
C97   C105  S    
C122  C126  A    
C44   C52   A    
Cr2   O22   S    
Cr4   O20   S    
Cr9   O9    S    
C120  O16   A    
C15   C127  S    
O55   H71   S    
C22   C130  A    
C81   O53   S    
C64   C80   S    
C115  O11   A    
C59   C75   A    
C99   C107  S    
Cr9   O37   S    
C128  C132  A    
C41   C49   A    
C72   C88   A    
C2    O26   A    
C117  O13   A    
Cr10  O18   S    
C21   C45   S    
C111  O47   A    
C62   C78   S    
C30   H58   S    
C91   O39   A    
C19   H51   S    
C100  C108  S    
C13   H41   S    
C30   C34   A    
Cr7   O31   S    
C80   C84   S    
C111  O51   A    
C36   H56   S    
C29   H57   S    
C88   C116  S    
C94   C101  A    
C91   O3    A    
C118  O42   A    
Cr8   O20   S    
Cr7   O7    S    
C39   C40   A    
C90   O2    A    
Cr5   O29   S    
C62   C66   A    
C51   H64   S    
C89   O1    A    
C28   C39   A    
C17   H45   S    
C2    C123  S    
Cr3   O3    S    
C15   H43   S    
C20   C132  S    
C76   H12   S    
C19   H47   S    
Cr9   O33   S    
C17   C129  S    
C58   C111  S    
C30   C37   A    
Cr5   O5    S    
Cr4   O44   S    
C5    C21   A    
C10   H34   S    
C56   H4    S    
Cr8   O8    S    
C7    C11   A    
C43   C44   A    
C63   C67   A    
C121  C125  A    
C37   C38   A    
C84   H24   S    
Cr11  O15   S    
C119  O43   A    
C32   H60   S    
C66   C82   S    
Cr9   O17   S    
C34   H54   S    
C24   C48   S    
C55   H3    S    
C99   C100  A    
C12   C124  A    
C33   H53   S    
C27   C40   A    
C8    C12   A    
C21   C129  A    
C45   O29   A    
C53   H1    S    
C33   C34   A    
C106  H30   S    
C23   C131  A    
C27   C92   S    
C6    H66   S    
Cr1   O45   S    
C102  H74   S    
C7    H67   S    
C16   C128  S    
Cr2   O46   S    
C71   H7    S    
C42   C50   A    
C110  O50   A    
C71   C87   A    
Cr3   O43   S    
C22   C46   S    
C90   O38   A    
C78   H18   S    
C61   C77   S    
Cr12  O40   S    
C125  C129  A    
C16   H44   S    
C68   C88   A    
Cr11  O35   S    
C59   C63   A    
C92   O4    A    
C8    H68   S    
C93   C118  S    
Cr2   O42   S    
Cr1   O41   S    
C3    O23   A    
C70   C86   A    
C93   C97   A    
C9    H33   S    
C69   C85   A    
C58   C74   A    
C4    O24   A    
C18   H46   S    
C4    O28   A    
Cr7   O27   S    
C119  O15   A    
C2    O22   A    
Cr6   O6    S    
C105  C106  S    
C117  O41   A    
Cr8   O52   S    
C84   O56   S    
C12   H36   S    
C86   C114  S    
C93   C102  A    
C31   H59   S    
Cr3   O19   S    
Cr4   O48   S    
C11   C123  A    
C120  O44   A    
Cr11  O19   S    
C10   C122  A    
Cr1   O21   S    
C14   C126  S    
C25   C42   A    
C66   C86   A    
C14   H40   S    
O54   H70   S    
C32   C36   A    
C26   C37   A    
C65   C85   A    
C63   C79   S    
Cr5   O49   S    
C89   O37   A    
C13   H39   S    
C20   H48   S    
C48   O32   A    
C28   C43   A    
C67   C87   A    
C98   C106  S    
C18   C130  S    
C124  C128  A    
C75   H11   S    
C60   C64   A    
C82   H22   S    
C69   H5    S    
C23   C47   S    
C85   C113  S    
C1    C124  S    
C103  H75   S    
C113  O9    A    
Cr10  O34   S    
C112  O52   A    
C95   C104  A    
C79   C83   S    
C24   C132  A    
Cr6   O18   S    
C43   C51   A    
C83   H23   S    
C107  H31   S    
C110  O46   A    
C108  H28   S    
C7    C23   A    
C15   H37   S    
C31   C35   A    
C109  O45   A    
C8    C24   A    
C77   H17   S    
C60   C76   A    
C4    C121  S    
Cr6   O30   S    
C28   C91   S    
C95   C99   A    
C46   O30   A    
C61   C65   A    
C96   C100  A    
C127  C131  A    
Cr12  O16   S    
C49   C53   A    
Cr6   O26   S    
C6    C10   A    
C114  O10   A    
Cr11  O11   S    
C13   C17   S    
C57   C112  S    
C50   H61   S    
C1    O21   A    
C79   H19   S    
Cr11  O39   S    
C11   H35   S    
C49   H62   S    
C106  H26   S    
C96   C103  A    
C73   H9    S    
C103  C104  A    
Cr8   O28   S    
C126  C130  A    
C65   C81   S    
Cr12  O20   S    
C105  H29   S    
C5    C9    A    
C109  O49   A    
C112  O48   A    
Cr3   O47   S    
Cr5   O25   S    
C13   C125  S    
C20   H52   S    
Cr12  O36   S    
C114  O6    A    
C52   C56   A    
C26   C41   A    
C77   H13   S    
Cr3   O23   S    
