data_mof_unit_53337.cif
_audit_creation_date              2012-12-10T20:20:41-0500
_audit_creation_method            fapswitch 2.2
_symmetry_space_group_name_H-M    P1
_symmetry_Int_Tables_number       1
_space_group_crystal_system       triclinic
_cell_length_a                    19.197945
_cell_length_b                    18.425359
_cell_length_c                    10.653674
_cell_angle_alpha                 89.781533
_cell_angle_beta                  90.312004
_cell_angle_gamma                 89.683082
_cell_volume                      3768.37240381

loop_
_atom_site_label
_atom_site_type_symbol
_atom_type_description
_atom_site_fract_x
_atom_site_fract_y
_atom_site_fract_z
_atom_type_partial_charge
C1    C     C_R   0.365339 0.499978 0.499960 0.904793
C2    C     C_R   0.634782 0.499642 0.497337 0.917804
C3    C     C_R   0.826417 0.547743 0.483439 0.469839
C4    C     C_R   0.175101 0.539873 0.435849 0.503595
C5    C     C_R   0.754772 0.555435 0.504939 -0.010106
C6    C     C_R   0.247468 0.549352 0.438966 -0.025500
C7    C     C_R   0.710191 0.496435 0.479170 -0.160478
C8    C     C_R   0.289535 0.497388 0.501550 -0.157349
C9    C     C_R   0.967544 0.457359 0.344630 0.043180
C10   C     C_R   0.040629 0.455434 0.354455 0.099200
C11   C     C_R   0.071897 0.463483 0.473273 0.160863
C12   C     C_R   0.928171 0.467468 0.454056 0.161828
C13   C     C_R   0.031694 0.467186 0.581799 -0.262441
C14   C     C_R   0.960049 0.469457 0.572141 -0.188454
C15   C     C_R   0.553009 0.725629 0.557335 0.019417
C16   C     C_R   0.446791 0.726725 0.443898 0.006267
C17   C     C_R   0.554425 0.801797 0.557606 -0.292578
C18   C     C_R   0.444833 0.802847 0.446164 -0.279588
C19   C     C_R   0.499611 0.841483 0.502042 0.124545
C20   C     C_R   0.441169 0.961988 0.542268 -0.214495
C21   C     C_R   0.558249 0.961190 0.460149 -0.219044
C22   C     C_R   0.497416 0.500276 0.260009 0.916735
C23   C     C_R   0.498189 0.499900 0.739997 0.959997
C24   C     C_R   0.441526 0.038204 0.543132 -0.121929
C25   C     C_R   0.558022 0.037423 0.458295 -0.120866
C26   C     C_R   0.499816 0.077114 0.500521 0.210173
C27   C     C_R   0.499709 0.922557 0.501633 0.122792
C28   C     C_R   0.555399 0.197103 0.557737 0.356641
C29   C     C_R   0.444387 0.197993 0.442612 0.352838
C30   C     C_R   0.554077 0.274133 0.553367 -0.161806
C31   C     C_R   0.445887 0.275014 0.446601 -0.151511
C32   C     C_R   0.499896 0.158818 0.500196 -0.091343
C33   C     C_R   0.516186 0.560464 0.063777 -0.138205
C34   C     C_R   0.518617 0.558446 0.936200 -0.116264
C35   C     C_R   0.488065 0.502259 0.128704 -0.141982
C36   C     C_R   0.489887 0.500833 0.871257 -0.103571
C37   C     C_R   0.448537 0.449301 0.065668 0.062191
C38   C     C_R   0.449147 0.448835 0.933913 0.030873
C39   C     C_3   0.589555 0.592674 0.930805 0.272607
C40   C     C_3   0.587176 0.595412 0.074693 0.263321
C41   C     C_R   0.738113 0.430855 0.434144 -0.292376
C42   C     C_R   0.259087 0.436664 0.558471 -0.274955
C43   C     C_R   0.809338 0.421628 0.421055 0.088087
C44   C     C_R   0.187996 0.424952 0.549163 0.052223
C45   C     C_R   0.853375 0.479599 0.448255 -0.015207
C46   C     C_R   0.146427 0.475613 0.484973 -0.012268
H1    H     H_    0.594278 0.695423 0.603383 0.122789
H2    H     H_    0.405932 0.697454 0.396545 0.111455
H3    H     H_    0.597302 0.829484 0.602879 0.145015
H4    H     H_    0.401781 0.831380 0.401755 0.141134
H5    H     H_    0.395505 0.933708 0.575562 0.137189
H6    H     H_    0.603798 0.932273 0.426986 0.138043
H7    H     H_    0.396241 0.066841 0.578048 0.157209
H8    H     H_    0.603338 0.065465 0.422972 0.157869
H9    H     H_    0.595635 0.306233 0.592311 0.157516
H10   H     H_    0.404428 0.307829 0.407509 0.167116
H11   H     H_    0.586898 0.647112 0.885792 0.120019
H12   H     H_    0.625299 0.559890 0.124242 0.105540
H13   H     H_    0.704837 0.385258 0.412098 0.175499
H14   H     H_    0.290925 0.396688 0.607383 0.173907
H15   H     H_    0.055989 0.472806 0.673280 0.155729
H16   H     H_    0.929285 0.475884 0.656427 0.158731
N1    N     N_R   0.500000 0.689440 0.500000 -0.086163
N2    N     N_R   0.500000 0.310560 0.500000 -0.120383
O1    O     O_R   0.398180 0.560840 0.499970 -0.640802
O2    O     O_R   0.601820 0.560840 0.500030 -0.626479
O3    O     O_R   0.398180 0.439210 0.499910 -0.616320
O4    O     O_R   0.601820 0.439210 0.500090 -0.632841
O5    O     O_R   0.499990 0.560820 0.316770 -0.619720
O6    O     O_R   0.500010 0.560820 0.683230 -0.622603
O7    O     O_R   0.499990 0.439200 0.316710 -0.599254
O8    O     O_R   0.500010 0.439200 0.683290 -0.607508
Zn1   Zn    Zn3+2 0.500000 0.581210 0.500000 0.945587
Zn2   Zn    Zn3+2 0.500000 0.418790 0.500000 0.943038
N3    N     N_3   0.409848 0.396350 0.135202 -0.450155
H17   H     H_    0.357385 0.400495 0.109419 0.171972
H18   H     H_    0.428078 0.344635 0.111757 0.173120
N4    N     N_3   0.410606 0.395804 0.864197 -0.445690
H19   H     H_    0.427992 0.344053 0.890412 0.180044
H20   H     H_    0.357894 0.400758 0.886781 0.171809
O9    O     O_3   0.609851 0.156437 0.611186 -0.651883
C47   C     C_3   0.649611 0.193566 0.702769 0.100467
H21   H     H_    0.666630 0.153031 0.774201 0.158149
H22   H     H_    0.618665 0.234206 0.756337 0.119797
C48   C     C_3   0.715377 0.225919 0.643625 -0.366409
H23   H     H_    0.752476 0.181328 0.621341 0.221239
H24   H     H_    0.702518 0.254199 0.554174 0.215830
C49   C     C_3   0.750635 0.279522 0.731998 -0.969963
H25   H     H_    0.715475 0.326369 0.750079 0.262135
H26   H     H_    0.799102 0.300135 0.688443 0.270841
H27   H     H_    0.764260 0.252558 0.822338 0.263095
O10   O     O_3   0.389931 0.158051 0.389396 -0.651914
C50   C     C_3   0.348436 0.196396 0.300808 0.097123
H28   H     H_    0.330409 0.156673 0.229676 0.157966
H29   H     H_    0.378243 0.237328 0.246209 0.118479
C51   C     C_3   0.283522 0.228468 0.364083 -0.368936
H30   H     H_    0.247898 0.183634 0.390430 0.220757
H31   H     H_    0.297928 0.257355 0.451650 0.217571
C52   C     C_3   0.245079 0.281223 0.276978 -0.952249
H32   H     H_    0.278550 0.328611 0.255693 0.268905
H33   H     H_    0.196975 0.301114 0.323263 0.275865
H34   H     H_    0.230370 0.253842 0.188072 0.257630
O11   O     O_3   0.643398 0.550092 0.874640 -0.656766
C53   C     C_3   0.654073 0.479500 0.925394 0.075048
H35   H     H_    0.649821 0.439964 0.847283 0.152566
H36   H     H_    0.615260 0.462451 0.996279 0.126142
C54   C     C_3   0.727614 0.474370 0.981085 -0.323142
H37   H     H_    0.766341 0.479199 0.904331 0.229030
H38   H     H_    0.736259 0.519769 0.047631 0.226643
C55   C     C_3   0.739290 0.402751 0.050603 -0.986331
H39   H     H_    0.703657 0.398858 0.132164 0.264268
H40   H     H_    0.793841 0.399960 0.085508 0.275707
H41   H     H_    0.730034 0.356212 0.986916 0.266218
O12   O     O_3   0.590436 0.667345 0.123817 -0.636910
C56   C     C_3   0.528250 0.708408 0.110033 0.122172
H42   H     H_    0.487090 0.686184 0.172172 0.165782
H43   H     H_    0.509433 0.708560 0.011125 0.123631
C57   C     C_3   0.542615 0.786673 0.148788 -0.328196
H44   H     H_    0.557052 0.787986 0.249910 0.236123
H45   H     H_    0.587105 0.808109 0.093824 0.226462
C58   C     C_3   0.479141 0.835314 0.126163 -0.969615
H46   H     H_    0.467923 0.839700 0.024010 0.265389
H47   H     H_    0.489577 0.890426 0.163425 0.274301
H48   H     H_    0.432752 0.812933 0.174164 0.260818
N5    N     N_3   0.837197 0.352424 0.385342 -0.448716
H49   H     H_    0.815713 0.338575 0.298369 0.188876
H50   H     H_    0.820856 0.313850 0.450918 0.183803
N6    N     N_3   0.158114 0.360806 0.602486 -0.455560
H51   H     H_    0.169217 0.360454 0.698676 0.178771
H52   H     H_    0.182694 0.315694 0.562795 0.189941
O13   O     O_3   0.871964 0.603767 0.511043 -0.644021
C59   C     C_3   0.867644 0.658753 0.417840 0.091559
H53   H     H_    0.893929 0.707496 0.456238 0.175648
H54   H     H_    0.813059 0.675414 0.396446 0.145759
C60   C     C_3   0.904634 0.636332 0.296495 -0.398595
H55   H     H_    0.957783 0.615788 0.318435 0.245118
H56   H     H_    0.874709 0.592440 0.250131 0.222616
C61   C     C_3   0.910277 0.700014 0.205321 -0.938851
H57   H     H_    0.857631 0.721220 0.180849 0.267643
H58   H     H_    0.936242 0.681722 0.118001 0.269403
H59   H     H_    0.941697 0.744156 0.247672 0.260397
O14   O     O_3   0.132391 0.589160 0.372992 -0.640354
C62   C     C_3   0.124580 0.653639 0.443812 0.067069
H60   H     H_    0.106784 0.696847 0.377862 0.177820
H61   H     H_    0.174333 0.672950 0.485780 0.137499
C63   C     C_3   0.069740 0.644755 0.546804 -0.373435
H62   H     H_    0.022147 0.619786 0.506882 0.265346
H63   H     H_    0.090633 0.608585 0.621837 0.207108
C64   C     C_3   0.050237 0.717572 0.604857 -0.935118
H64   H     H_    0.096985 0.743566 0.646520 0.258505
H65   H     H_    0.011222 0.708964 0.679950 0.276793
H66   H     H_    0.027148 0.754201 0.532561 0.256647
N7    N     N_3   0.729807 0.621617 0.559408 -0.442088
H67   H     H_    0.701994 0.609395 0.640823 0.227850
H68   H     H_    0.697242 0.647890 0.494617 0.194342
N8    N     N_3   0.276738 0.609624 0.372655 -0.444644
H69   H     H_    0.314076 0.590457 0.309650 0.192405
H70   H     H_    0.300320 0.643771 0.438061 0.184053
N9    N     N_3   0.933112 0.451912 0.225177 -0.475493
H71   H     H_    0.951027 0.493306 0.166560 0.175610
H72   H     H_    0.946279 0.402037 0.185140 0.188242
N10   N     N_3   0.083554 0.447211 0.245539 -0.450482
H73   H     H_    0.070716 0.398470 0.201480 0.170453
H74   H     H_    0.073012 0.490050 0.183617 0.204339

loop_
_geom_bond_atom_site_label_1
_geom_bond_atom_site_label_2
_ccdc_geom_bond_type
C62   C63   S    
C26   C32   S    
C50   H28   S    
C30   N2    A    
C60   C61   S    
C1    C8    S    
C54   H38   S    
C2    C7    S    
C15   H1    S    
N6    H51   S    
C43   N5    S    
C53   H36   S    
O9    C47   S    
C60   H55   S    
C4    C46   A    
C48   H23   S    
C22   C35   S    
C3    O13   S    
N8    H69   S    
C35   C37   A    
C24   C26   A    
N10   H73   S    
C29   C32   A    
C2    O4    A    
C64   H65   S    
C4    O14   S    
N4    H20   S    
C9    N9    S    
O4    Zn2   S    
C56   H42   S    
C14   H16   S    
C51   C52   S    
C62   H61   S    
O1    Zn1   S    
C15   C17   A    
C18   C19   A    
C57   H44   S    
C58   H48   S    
C55   H40   S    
C33   C35   A    
C55   H39   S    
C40   O12   S    
C20   C24   A    
C59   H53   S    
C56   H43   S    
C51   H31   S    
C1    O1    A    
C54   H37   S    
N9    H72   S    
O5    Zn1   S    
C16   N1    A    
C31   H10   S    
N7    H68   S    
C19   C27   S    
C9    C10   A    
C22   O5    A    
C63   H63   S    
C37   N3    S    
C10   N10   S    
C13   C14   A    
C41   C43   A    
C23   O6    A    
C16   H2    S    
C42   C44   A    
C31   N2    A    
C53   H35   S    
C44   C46   A    
O12   C56   S    
N10   H74   S    
C48   H24   S    
C33   C40   S    
C40   H12   S    
C34   C39   S    
C28   C32   A    
C25   H8    S    
C41   H13   S    
C4    C6    A    
C61   H57   S    
C64   H66   S    
C42   H14   S    
C39   C40   S    
C5    C7    A    
N4    H19   S    
C17   C19   A    
C6    C8    A    
C38   N4    S    
C3    C5    A    
C25   C26   A    
O2    Zn1   S    
C3    C45   A    
C57   C58   S    
N3    H17   S    
C37   C38   A    
C63   C64   S    
C43   C45   A    
N9    H71   S    
C49   H27   S    
C12   C14   A    
C56   C57   S    
C51   H30   S    
O6    Zn1   S    
C33   C34   A    
O3    Zn2   S    
C53   C54   S    
N3    H18   S    
C55   H41   S    
C58   H46   S    
C61   H58   S    
O8    Zn2   S    
C52   H33   S    
C49   H26   S    
C23   C36   S    
C50   C51   S    
C47   H22   S    
N5    H49   S    
C54   C55   S    
C17   H3    S    
O13   C59   S    
C22   O7    A    
C18   H4    S    
C63   H62   S    
C48   C49   S    
C60   H56   S    
C21   C25   A    
C44   N6    S    
C15   N1    A    
C28   O9    S    
C23   O8    A    
C16   C18   A    
C8    C42   A    
C12   C45   S    
C2    O2    A    
C61   H59   S    
N6    H52   S    
O7    Zn2   S    
C39   O11   S    
C20   C27   A    
C20   H5    S    
C47   C48   S    
N1    Zn1   S    
C30   H9    S    
C52   H32   S    
C21   H6    S    
C36   C38   A    
C24   H7    S    
C28   C30   A    
C29   C31   A    
C64   H64   S    
C11   C13   A    
C50   H29   S    
C59   C60   S    
C5    N7    S    
N8    H70   S    
O10   C50   S    
C1    O3    A    
C34   C36   A    
C7    C41   A    
C21   C27   A    
C9    C12   A    
C57   H45   S    
C58   H47   S    
C10   C11   A    
C52   H34   S    
C13   H15   S    
C49   H25   S    
C59   H54   S    
C47   H21   S    
O11   C53   S    
N5    H50   S    
N2    Zn2   S    
O14   C62   S    
C11   C46   S    
N7    H67   S    
C29   O10   S    
C6    N8    S    
C62   H60   S    
C39   H11   S    
