data_mof_unit_36459.cif
_audit_creation_date              2012-12-11T15:11:50-0500
_audit_creation_method            fapswitch 2.2
_symmetry_space_group_name_H-M    P1
_symmetry_Int_Tables_number       1
_space_group_crystal_system       triclinic
_cell_length_a                    20.381089
_cell_length_b                    7.094729
_cell_length_c                    13.341954
_cell_angle_alpha                 90.000027
_cell_angle_beta                  103.862797
_cell_angle_gamma                 89.99994
_cell_volume                      1873.02997816

loop_
_atom_site_label
_atom_site_type_symbol
_atom_type_description
_atom_site_fract_x
_atom_site_fract_y
_atom_site_fract_z
_atom_type_partial_charge
O1    O     O_R   0.449830 0.506740 0.599960 -0.540703
O2    O     O_R   0.550170 0.006740 0.400040 -0.540704
O3    O     O_R   0.588980 0.179860 0.596720 -0.543678
O4    O     O_R   0.411020 0.679860 0.403280 -0.543678
C1    C     C_R   0.615851 0.344564 0.620780 0.761384
C2    C     C_R   0.384148 0.844564 0.379220 0.761385
O5    O     O_R   0.452740 0.177340 0.612040 -0.526520
O6    O     O_R   0.547260 0.677340 0.387960 -0.526518
O7    O     O_R   0.412960 0.002070 0.415460 -0.545933
O8    O     O_R   0.587040 0.502070 0.584540 -0.545933
C3    C     C_R   0.435972 0.345901 0.638485 0.743115
C4    C     C_R   0.564027 0.845901 0.361514 0.743125
O9    O     O_3   0.487110 0.337570 0.435490 -0.374065
O10   O     O_3   0.512890 0.837570 0.564510 -0.374065
V1    V     V_3+5 0.502390 0.064650 0.511970 1.518687
V2    V     V_3+5 0.497610 0.564650 0.488030 1.518688
C5    C     C_R   0.612959 0.908197 0.109359 -0.082532
C6    C     C_R   0.387041 0.408212 0.890640 -0.082531
H1    H     H_    0.523092 0.947209 0.162442 0.205780
H2    H     H_    0.476907 0.447226 0.837554 0.205775
H3    H     H_    0.693560 0.889036 0.979710 0.155850
H4    H     H_    0.306440 0.389059 0.020289 0.155850
H5    H     H_    0.587278 0.937765 0.030013 0.157228
H6    H     H_    0.412721 0.437788 0.969985 0.157224
C7    C     C_R   0.606004 0.855705 0.285705 -0.120380
C8    C     C_R   0.393996 0.355705 0.714294 -0.120380
C9    C     C_R   0.931360 0.871609 0.324106 0.477476
C10   C     C_R   0.068640 0.371595 0.675894 0.477473
C11   C     C_R   0.894740 0.891383 0.399256 -0.121356
C12   C     C_R   0.105260 0.391359 0.600743 -0.121352
C13   C     C_R   0.824624 0.889982 0.372441 -0.180367
C14   C     C_R   0.175376 0.389960 0.627558 -0.180367
C15   C     C_R   0.788423 0.857807 0.269744 0.111927
C16   C     C_R   0.211578 0.357798 0.730256 0.111928
C17   C     C_R   0.825161 0.856509 0.191277 -0.004266
C18   C     C_R   0.174839 0.356509 0.808723 -0.004266
C19   C     C_R   0.716255 0.846073 0.241804 0.082064
C20   C     C_R   0.283745 0.346069 0.758197 0.082069
C21   C     C_R   0.682728 0.875763 0.136856 0.129259
C22   C     C_R   0.317272 0.375771 0.863144 0.129258
C23   C     C_R   0.719260 0.875542 0.060534 -0.083742
C24   C     C_R   0.280740 0.375556 0.939466 -0.083744
C25   C     C_R   0.789235 0.858659 0.087031 -0.186526
C26   C     C_R   0.210765 0.358669 0.912969 -0.186524
C27   C     C_R   0.675593 0.810064 0.313490 -0.083713
C28   C     C_R   0.324407 0.310054 0.686512 -0.083713
C29   C     C_R   0.576014 0.910553 0.184512 -0.153123
C30   C     C_R   0.423985 0.410564 0.815486 -0.153127
C31   C     C_R   0.896993 0.861069 0.218856 -0.222459
C32   C     C_R   0.103007 0.361067 0.781144 -0.222460
H7    H     H_    0.799489 0.920567 0.433185 0.142703
H8    H     H_    0.200510 0.420536 0.566813 0.142704
H9    H     H_    0.920429 0.910054 0.479594 0.224610
H10   H     H_    0.079571 0.410022 0.520404 0.224608
H11   H     H_    0.815091 0.857025 0.025034 0.090381
H12   H     H_    0.184909 0.357041 0.974966 0.090381
C33   C     C_3   0.237174 0.763877 0.129793 -0.388521
C34   C     C_3   0.762826 0.263874 0.870206 -0.388520
H13   H     H_    0.217967 0.621527 0.102624 0.110106
H14   H     H_    0.782034 0.121523 0.897375 0.110107
H15   H     H_    0.238233 0.848278 0.059979 0.198901
H16   H     H_    0.761767 0.348273 0.940021 0.198900
C35   C     C_3   0.309324 0.744193 0.202421 0.380634
C36   C     C_3   0.690676 0.244190 0.797579 0.380637
H17   H     H_    0.317071 0.591456 0.220811 0.059263
H18   H     H_    0.682929 0.091454 0.779188 0.059264
H19   H     H_    0.172637 0.604485 0.271437 0.167532
H20   H     H_    0.827364 0.104487 0.728561 0.167534
H21   H     H_    0.278893 0.601812 0.378763 0.139827
H22   H     H_    0.721107 0.101814 0.621236 0.139826
C37   C     C_3   0.190579 0.751793 0.288595 -0.266403
C38   C     C_3   0.809421 0.251796 0.711404 -0.266401
C39   C     C_3   0.215528 0.062555 0.215632 -0.320796
C40   C     C_3   0.784472 0.562554 0.784370 -0.320796
C41   C     C_3   0.188076 0.860078 0.186589 0.013678
C42   C     C_3   0.811924 0.360078 0.813411 0.013676
H23   H     H_    0.181977 0.138224 0.256937 0.186688
H24   H     H_    0.818022 0.638226 0.743066 0.186688
H25   H     H_    0.215634 0.144566 0.144520 0.138628
H26   H     H_    0.784365 0.644564 0.855482 0.138626
C43   C     C_3   0.313640 0.850911 0.307100 -0.001861
C44   C     C_3   0.686359 0.350910 0.692901 -0.001863
C45   C     C_3   0.263014 0.750303 0.359767 -0.467968
C46   C     C_3   0.736986 0.250305 0.640233 -0.467968
C47   C     C_3   0.287927 0.057302 0.284953 -0.307812
C48   C     C_3   0.712072 0.557302 0.715049 -0.307811
H27   H     H_    0.321904 0.141235 0.248837 0.200859
H28   H     H_    0.678095 0.641232 0.751165 0.200858
H29   H     H_    0.287644 0.129068 0.358607 0.140486
H30   H     H_    0.712355 0.629069 0.641395 0.140493
H31   H     H_    0.156776 0.821463 0.330888 0.239741
H32   H     H_    0.843224 0.321467 0.669111 0.239742
H33   H     H_    0.262793 0.821130 0.434071 0.206061
H34   H     H_    0.737207 0.321133 0.565929 0.206063
O11   O     O_R   0.912980 0.203550 0.915410 -0.544074
O12   O     O_R   0.087020 0.703550 0.084590 -0.544075
O13   O     O_R   0.047270 0.535570 0.887960 -0.530666
O14   O     O_R   0.952730 0.035570 0.112040 -0.530667
C49   C     C_R   0.064162 0.368253 0.861485 0.798342
C50   C     C_R   0.935838 0.868253 0.138515 0.798341
O15   O     O_R   0.911030 0.532970 0.903270 -0.543130
O16   O     O_R   0.088970 0.032970 0.096730 -0.543130
O17   O     O_R   0.949820 0.708150 0.099970 -0.533074
O18   O     O_R   0.050180 0.208150 0.900030 -0.533074
C51   C     C_R   0.883628 0.365277 0.882081 0.734997
C52   C     C_R   0.116372 0.865277 0.117919 0.734997
O19   O     O_3   0.012900 0.375230 0.064480 -0.373202
O20   O     O_3   0.987100 0.875230 0.935520 -0.373202
V3    V     V_3+5 0.997610 0.648190 0.988040 1.546474
V4    V     V_3+5 0.002390 0.148190 0.011960 1.546477
S1    S     S_3+6 0.374802 0.803177 0.137529 -0.077758
O21   O     O_2   0.350192 0.770006 0.023359 -0.359958
O22   O     O_2   0.396719 0.004976 0.155132 -0.364590
O23   O     O_3   0.441118 0.660989 0.184271 -0.526250
H35   H     H_    0.461805 0.636752 0.125508 0.348852
S2    S     S_3+6 0.625199 0.303171 0.862472 -0.077755
O24   O     O_2   0.649809 0.269997 0.976642 -0.359954
O25   O     O_2   0.603281 0.504970 0.844871 -0.364595
O26   O     O_3   0.558882 0.160983 0.815731 -0.526247
H36   H     H_    0.538191 0.136765 0.874491 0.348855
C53   C     C_2   0.701584 0.703796 0.410836 0.355170
H37   H     H_    0.681276 0.731011 0.477269 0.002221
O27   O     O_2   0.743806 0.579741 0.415989 -0.527034
C54   C     C_2   0.298419 0.203768 0.589172 0.355168
H38   H     H_    0.318728 0.230968 0.522739 0.002229
O28   O     O_2   0.256197 0.079714 0.584024 -0.527035
S3    S     S_3+6 0.020223 0.860368 0.364049 -0.023084
O29   O     O_2   0.042888 0.679820 0.323958 -0.370480
O30   O     O_2   0.050039 0.025569 0.320025 -0.361958
O31   O     O_3   0.046309 0.864226 0.493615 -0.479712
H39   H     H_    0.096070 0.850236 0.508333 0.368758
S4    S     S_3+6 0.979777 0.360355 0.635952 -0.023083
O32   O     O_2   0.957112 0.179812 0.676047 -0.370483
O33   O     O_2   0.949961 0.525561 0.679971 -0.361952
O34   O     O_3   0.953690 0.364200 0.506385 -0.479713
H40   H     H_    0.903930 0.350204 0.491668 0.368753

loop_
_geom_bond_atom_site_label_1
_geom_bond_atom_site_label_2
_ccdc_geom_bond_type
C34   H16   S    
C20   C22   A    
C35   H17   S    
C42   C51   S    
C36   S2    S    
C9    C11   A    
C39   C41   S    
S1    O21   D    
O1    C3    A    
C38   C42   S    
O2    C4    A    
C2    O7    A    
O23   H35   S    
C34   C42   S    
O34   H40   S    
C21   C23   A    
S2    O24   D    
O5    C3    A    
C12   H10   S    
C32   C49   S    
C5    H5    S    
C40   C42   S    
C35   C43   S    
O14   V4    S    
C38   H32   S    
C48   H28   S    
C33   H13   S    
C34   H14   S    
C45   H33   S    
O20   V3    S    
C5    C21   A    
C6    C22   A    
C14   H8    S    
O11   C51   A    
O13   C49   A    
C10   C32   A    
C18   C32   A    
O20   V4    S    
S4    O32   D    
C17   C31   A    
C13   C15   A    
O6    C4    A    
C17   C25   A    
C7    C29   A    
H19   C37   S    
C8    C30   A    
C22   C24   A    
C49   O18   A    
C9    S3    S    
O6    V2    S    
C2    C43   S    
C40   H26   S    
O15   C51   A    
O19   V3    S    
C28   C54   S    
C24   C26   A    
C11   C13   A    
C43   C45   S    
C33   C35   S    
C37   C45   S    
C47   H27   S    
C34   C36   S    
C37   C41   S    
C20   C28   A    
O4    C2    A    
C48   H30   S    
C47   H29   S    
C3    C8    S    
C27   C53   S    
C44   C48   S    
C50   O17   A    
C15   C19   A    
C10   S4    S    
C36   H18   S    
O4    V2    S    
S3    O30   D    
H21   C45   S    
O13   V3    S    
C26   H12   S    
H20   C38   S    
C36   C44   S    
C39   H25   S    
H1    C29   S    
S1    O22   D    
O1    V2    S    
C46   H34   S    
C40   C48   S    
O2    V1    S    
C39   C47   S    
C53   H37   S    
C38   C46   S    
H3    C23   S    
C25   H11   S    
C44   C46   S    
O19   V4    S    
C6    H6    S    
C18   C26   A    
C19   C27   A    
S3    O29   D    
C7    C27   A    
H22   C46   S    
O18   V4    S    
C54   O28   D    
O12   C52   A    
H2    C30   S    
C16   C20   A    
C23   C25   A    
C5    C29   A    
C13   H7    S    
O3    C1    A    
O11   V4    S    
C6    C30   A    
O26   H36   S    
C33   H15   S    
O12   V3    S    
O14   C50   A    
S2    O26   S    
C4    C7    S    
O17   V3    S    
C33   C41   S    
C10   C12   A    
O31   H39   S    
O7    V1    S    
S3    O31   S    
C1    O8    A    
C19   C21   A    
O8    V2    S    
C31   C50   S    
C12   C14   A    
C1    C44   S    
H4    C24   S    
C11   H9    S    
S4    O34   S    
O5    V1    S    
C15   C17   A    
S2    O25   D    
O16   C52   A    
S1    O23   S    
C16   C18   A    
C35   S1    S    
C53   O27   D    
O16   V4    S    
C8    C28   A    
C37   H31   S    
C41   C52   S    
S4    O33   D    
C40   H24   S    
O9    V2    S    
C39   H23   S    
O10   V1    S    
O3    V1    S    
O15   V3    S    
C43   C47   S    
C9    C31   A    
C14   C16   A    
C54   H38   S    
