data_mof_unit_22253.cif
_audit_creation_date              2012-10-26T19:21:54-0400
_audit_creation_method            fapswitch 2.2
_symmetry_space_group_name_H-M    P1
_symmetry_Int_Tables_number       1
_space_group_crystal_system       triclinic
_cell_length_a                    23.433415
_cell_length_b                    11.028398
_cell_length_c                    10.013189
_cell_angle_alpha                 111.601642
_cell_angle_beta                  97.305451
_cell_angle_gamma                 93.750987
_cell_volume                      2368.72158978

loop_
_atom_site_label
_atom_site_type_symbol
_atom_type_description
_atom_site_fract_x
_atom_site_fract_y
_atom_site_fract_z
_atom_type_partial_charge
C1    C     C_R   0.495706 0.254117 0.440166 0.552065
C2    C     C_R   0.700520 0.586185 0.450096 -0.156202
C3    C     C_R   0.240066 0.414453 0.550894 -0.054344
C4    C     C_R   0.759934 0.585613 0.449175 -0.054345
C5    C     C_R   0.210276 0.501319 0.503779 0.245091
C6    C     C_R   0.789721 0.498686 0.496191 0.245069
C7    C     C_2   0.493551 0.113520 0.406938 -0.128672
C8    C     C_2   0.506449 0.886479 0.593062 -0.128670
C9    C     C_2   0.500795 0.069841 0.515427 -0.163144
C10   C     C_2   0.499205 0.930159 0.484573 -0.163145
C11   C     C_2   0.507370 0.508365 0.078885 0.137304
C12   C     C_R   0.504294 0.745882 0.559833 0.552066
C13   C     C_2   0.492633 0.491631 0.921115 0.137323
C14   C     C_R   0.391517 0.499710 0.501154 0.545322
C15   C     C_R   0.608482 0.500287 0.498845 0.545323
C16   C     C_R   0.887712 0.602795 0.594382 0.396035
C17   C     C_R   0.112286 0.397214 0.405587 0.396035
C18   C     C_R   0.870730 0.393534 0.397765 0.397940
C19   C     C_R   0.129268 0.606483 0.602190 0.397942
C20   C     C_R   0.931046 0.389889 0.395781 0.041507
C21   C     C_R   0.068952 0.610126 0.604178 0.041503
C22   C     C_R   0.969653 0.498660 0.498133 -0.043299
C23   C     C_R   0.240183 0.586930 0.454856 -0.055088
C24   C     C_R   0.030345 0.501354 0.501829 -0.043299
C25   C     C_R   0.947640 0.605174 0.597232 0.015104
C26   C     C_R   0.052358 0.394837 0.402733 0.015102
C27   C     C_R   0.954393 0.283079 0.296569 -0.017885
C28   C     C_R   0.045605 0.716935 0.703392 -0.017887
C29   C     C_R   0.014480 0.287749 0.302032 -0.102963
C30   C     C_R   0.985518 0.712262 0.697934 -0.102962
C31   C     C_3   0.917609 0.162466 0.183603 -0.338768
C32   C     C_3   0.082389 0.837549 0.816357 -0.338769
C33   C     C_3   0.437859 0.399943 0.834623 -0.219325
C34   C     C_R   0.759810 0.413008 0.545022 -0.055086
C35   C     C_3   0.383154 0.463497 0.878189 -0.436623
C36   C     C_3   0.562141 0.600059 0.165384 -0.219335
C37   C     C_3   0.616850 0.536511 0.121844 -0.436575
C38   C     C_R   0.299592 0.586205 0.453861 -0.138447
C39   C     C_R   0.700402 0.413731 0.546030 -0.138461
C40   C     C_R   0.329487 0.500829 0.503263 0.012226
C41   C     C_R   0.670511 0.499172 0.496730 0.012238
C42   C     C_R   0.299481 0.413875 0.549981 -0.156216
Cu1   Cu    Cu3+1 0.509980 0.521810 0.644910 0.919030
Cu2   Cu    Cu3+1 0.490020 0.478190 0.355090 0.919015
H1    H     H_    0.560402 0.620238 0.922716 0.210461
H2    H     H_    0.678189 0.656352 0.417924 0.104717
H3    H     H_    0.217067 0.347118 0.587350 0.131033
H4    H     H_    0.782935 0.652996 0.412786 0.131058
H5    H     H_    0.491944 0.862534 0.371290 0.157301
H6    H     H_    0.508055 0.137466 0.628710 0.157303
H7    H     H_    0.513786 0.954456 0.706121 0.107064
H8    H     H_    0.486214 0.045544 0.293878 0.107064
H9    H     H_    0.888444 0.190710 0.106414 0.185005
H10   H     H_    0.944187 0.090602 0.117817 0.108524
H11   H     H_    0.892178 0.111015 0.237560 0.181879
H12   H     H_    0.439598 0.379758 0.077282 0.210471
H13   H     H_    0.111557 0.809305 0.893542 0.185001
H14   H     H_    0.107817 0.889003 0.762398 0.181884
H15   H     H_    0.055811 0.909411 0.882147 0.108524
H16   H     H_    0.384951 0.507013 0.997811 0.150439
H17   H     H_    0.377348 0.543559 0.837637 0.188071
H18   H     H_    0.344607 0.388342 0.831843 0.129591
H19   H     H_    0.434741 0.365000 0.717075 0.210560
H20   H     H_    0.437984 0.305668 0.850672 0.083848
H21   H     H_    0.622623 0.456364 0.162277 0.188081
H22   H     H_    0.615086 0.493109 0.002231 0.150407
H23   H     H_    0.031901 0.206248 0.226264 0.163099
H24   H     H_    0.655401 0.611644 0.168325 0.129596
H25   H     H_    0.562019 0.694332 0.149331 0.083848
H26   H     H_    0.565255 0.635003 0.282931 0.210573
H27   H     H_    0.968097 0.793761 0.773705 0.163100
H28   H     H_    0.217281 0.653483 0.417221 0.130465
H29   H     H_    0.782708 0.346405 0.582577 0.130489
H30   H     H_    0.322341 0.652774 0.415864 0.121100
H31   H     H_    0.677649 0.347110 0.583954 0.121081
H32   H     H_    0.321812 0.343747 0.582223 0.104734
N1    N     N_R   0.850893 0.498409 0.495980 -0.395796
N2    N     N_R   0.149105 0.501602 0.503984 -0.395802
N3    N     N_2   0.475010 0.445410 0.137370 -0.355138
N4    N     N_2   0.524990 0.554590 0.862630 -0.355127
O1    O     O_R   0.505330 0.332340 0.577400 -0.517404
O2    O     O_2   0.133801 0.296239 0.309864 -0.504458
O3    O     O_2   0.831748 0.294585 0.302637 -0.517013
O4    O     O_2   0.168250 0.705438 0.697307 -0.516997
O5    O     O_R   0.494670 0.667660 0.422600 -0.517411
O6    O     O_R   0.488470 0.295500 0.332650 -0.481214
O7    O     O_R   0.511530 0.704500 0.667350 -0.481211
O8    O     O_R   0.426310 0.518390 0.622390 -0.512823
O9    O     O_R   0.573690 0.481610 0.377610 -0.512822
O10   O     O_R   0.409450 0.481550 0.377650 -0.486211
O11   O     O_R   0.590550 0.518450 0.622350 -0.486206
O12   O     O_2   0.866198 0.703762 0.690117 -0.504471

loop_
_geom_bond_atom_site_label_1
_geom_bond_atom_site_label_2
_ccdc_geom_bond_type
C3    C42   A    
C27   C29   A    
C32   H14   S    
C30   H27   S    
C39   C41   A    
C2    H2    S    
H12   N3    S    
C12   O5    A    
Cu1   O8    S    
C36   C37   S    
C19   C21   A    
C24   C26   A    
C7    H8    S    
C16   N1    A    
C18   N1    A    
C38   H30   S    
C2    C41   A    
C1    O1    A    
C37   H24   S    
C16   C25   A    
C17   O2    S    
C14   O10   A    
C29   H23   S    
C22   C25   A    
C37   H21   S    
C39   H31   S    
H1    N4    S    
C9    C10   S    
C33   H19   S    
C40   C42   A    
C13   N4    D    
C32   H13   S    
Cu2   O6    S    
C36   H26   S    
C27   C31   S    
C34   C39   A    
C28   C32   S    
C15   C41   S    
C4    C6    A    
C6    N1    S    
Cu1   N4    S    
C14   C40   S    
Cu1   O11   S    
C6    C34   A    
C35   H16   S    
C19   N2    A    
C2    C4    A    
Cu1   Cu2   S    
C13   C33   S    
C15   O9    A    
C5    C23   A    
C8    C12   S    
C37   H22   S    
C18   O3    S    
C35   H17   S    
C31   H9    S    
C8    H7    S    
C11   N3    D    
C21   C28   A    
C20   C22   A    
C16   O12   S    
Cu1   O1    S    
C22   C24   A    
C17   C26   A    
Cu2   O5    S    
Cu2   O10   S    
C36   H25   S    
C4    H4    S    
C25   C30   A    
C7    C9    D    
C11   C36   S    
C12   O7    A    
C1    C7    S    
C23   H28   S    
Cu2   N3    S    
C9    H6    S    
C3    C5    A    
C20   C27   A    
C23   C38   A    
C42   H32   S    
Cu1   O7    S    
C28   C30   A    
C14   O8    A    
C38   C40   A    
C11   C13   S    
C33   H20   S    
C3    H3    S    
C17   N2    A    
C33   C35   S    
C35   H18   S    
C18   C20   A    
C31   H10   S    
C34   H29   S    
C15   O11   A    
C1    O6    A    
C26   C29   A    
C8    C10   D    
C21   C24   A    
C32   H15   S    
C31   H11   S    
C5    N2    S    
C10   H5    S    
Cu2   O9    S    
C19   O4    S    
