data_mof_unit_62299.cif
_audit_creation_date              2012-12-10T19:05:02-0500
_audit_creation_method            fapswitch 2.2
_symmetry_space_group_name_H-M    P1
_symmetry_Int_Tables_number       1
_space_group_crystal_system       triclinic
_cell_length_a                    13.060462
_cell_length_b                    13.626847
_cell_length_c                    15.754173
_cell_angle_alpha                 90.032823
_cell_angle_beta                  92.543569
_cell_angle_gamma                 85.732178
_cell_volume                      2793.27613953

loop_
_atom_site_label
_atom_site_type_symbol
_atom_type_description
_atom_site_fract_x
_atom_site_fract_y
_atom_site_fract_z
_atom_type_partial_charge
C1    C     C_R   0.481221 0.685160 0.499105 0.889915
C2    C     C_3   0.400570 0.551021 0.045961 -0.396962
C3    C     C_3   0.501888 0.498008 0.082608 0.287202
C4    C     C_3   0.510340 0.390562 0.050167 -0.418180
C5    C     C_3   0.507996 0.389495 0.951809 0.255628
C6    C     C_1   0.502636 0.498863 0.173980 -0.093279
C7    C     C_1   0.498282 0.498144 0.826035 -0.046674
C8    C     C_1   0.497961 0.499084 0.750770 -0.143568
C9    C     C_1   0.533678 0.211659 0.501697 -0.166428
C10   C     C_2   0.544539 0.020488 0.502333 -0.153710
C11   C     C_2   0.455465 0.979514 0.497909 -0.159071
C12   C     C_R   0.499230 0.499976 0.661986 0.906594
C13   C     C_1   0.457498 0.875764 0.497987 0.013094
C14   C     C_1   0.542506 0.124238 0.502184 0.020050
C15   C     C_1   0.466324 0.788342 0.498397 -0.175821
C16   C     C_2   0.033292 0.473107 0.475961 -0.238649
C17   C     C_2   0.966708 0.526888 0.524046 -0.237079
C18   C     C_1   0.854685 0.519502 0.517287 0.148154
C19   C     C_1   0.145314 0.480496 0.482716 0.142690
C20   C     C_R   0.518778 0.314841 0.500908 0.899399
C21   C     C_R   0.500779 0.500018 0.338010 0.903067
C22   C     C_3   0.399516 0.550607 0.947975 -0.485941
C23   C     C_3   0.592131 0.552068 0.953644 -0.362352
C24   C     C_3   0.593857 0.551503 0.051638 -0.389640
C25   C     C_1   0.502329 0.499513 0.249228 -0.174683
C26   C     C_3   0.500075 0.497072 0.917523 0.255661
H1    H     H_    0.392850 0.628321 0.069100 0.184856
H2    H     H_    0.331723 0.513240 0.922498 0.178412
H3    H     H_    0.333458 0.513607 0.067757 0.178993
H4    H     H_    0.582358 0.351478 0.077136 0.215477
H5    H     H_    0.382198 0.023110 0.494257 0.162228
H6    H     H_    0.617806 0.976893 0.505975 0.163026
H7    H     H_    0.996269 0.578201 0.570093 0.166292
H8    H     H_    0.003731 0.421795 0.429914 0.166379
H9    H     H_    0.391327 0.627739 0.923919 0.195183
H10   H     H_    0.665908 0.517113 0.931585 0.218104
H11   H     H_    0.585628 0.629492 0.930317 0.166806
H12   H     H_    0.590135 0.628566 0.075458 0.174489
H13   H     H_    0.667501 0.513931 0.076977 0.187825
H14   H     H_    0.439232 0.352349 0.928130 0.113276
H15   H     H_    0.445255 0.350638 0.072648 0.149744
N1    N     N_1   0.234540 0.484780 0.486630 -0.091901
N2    N     N_1   0.765460 0.515220 0.513370 -0.090380
O1    O     O_R   0.402510 0.634760 0.495110 -0.608504
O2    O     O_R   0.572960 0.644530 0.503690 -0.606459
O3    O     O_R   0.414740 0.495110 0.618560 -0.613180
O4    O     O_R   0.585180 0.504880 0.627150 -0.599480
O5    O     O_R   0.427040 0.355470 0.496310 -0.605643
O6    O     O_R   0.597490 0.365240 0.504890 -0.603461
O7    O     O_R   0.414820 0.495120 0.372850 -0.609588
O8    O     O_R   0.585260 0.504890 0.381440 -0.610414
Zn1   Zn    Zn3+2 0.386190 0.493480 0.494270 0.980499
Zn2   Zn    Zn3+2 0.613810 0.506520 0.505730 0.989275
Cl1   Cl    Cl    0.618100 0.317800 0.914719 -0.631269

loop_
_geom_bond_atom_site_label_1
_geom_bond_atom_site_label_2
_ccdc_geom_bond_type
C2    C22   S    
C24   H12   S    
C9    C14   T    
C20   O6    A    
C1    C15   S    
C1    O1    A    
C10   H6    S    
C9    C20   S    
O7    Zn1   S    
C19   N1    T    
O4    Zn2   S    
C8    C12   S    
C3    C6    S    
O1    Zn1   S    
C17   C18   S    
C11   H5    S    
C7    C8    T    
C4    H15   S    
C22   H2    S    
C18   N2    T    
C22   H9    S    
C11   C13   S    
C1    O2    A    
C3    C24   S    
C2    H1    S    
C7    C26   S    
C17   H7    S    
C12   O4    A    
O6    Zn2   S    
C21   O7    A    
C2    C3    S    
C13   C15   T    
C16   C19   S    
C23   C26   S    
C6    C25   T    
C10   C11   D    
C23   C24   S    
O2    Zn2   S    
C5    C26   S    
O3    Zn1   S    
C5    Cl1   S    
O5    Zn1   S    
C21   O8    A    
C2    H3    S    
C12   O3    A    
C23   H10   S    
C22   C26   S    
C5    H14   S    
N1    Zn1   S    
C21   C25   S    
C16   C17   D    
C20   O5    A    
C16   H8    S    
C23   H11   S    
C24   H13   S    
N2    Zn2   S    
C4    H4    S    
C3    C4    S    
C10   C14   S    
C4    C5    S    
O8    Zn2   S    
