data_mof_unit_27925.cif
_audit_creation_date              2012-12-11T15:20:37-0500
_audit_creation_method            fapswitch 2.2
_symmetry_space_group_name_H-M    P1
_symmetry_Int_Tables_number       1
_space_group_crystal_system       triclinic
_cell_length_a                    12.883015
_cell_length_b                    13.275222
_cell_length_c                    15.410878
_cell_angle_alpha                 116.914559
_cell_angle_beta                  63.753839
_cell_angle_gamma                 96.972763
_cell_volume                      2097.60957581

loop_
_atom_site_label
_atom_site_type_symbol
_atom_type_description
_atom_site_fract_x
_atom_site_fract_y
_atom_site_fract_z
_atom_type_partial_charge
C1    C     C_R   0.074690 0.810338 0.974828 0.520796
C2    C     C_R   0.322063 0.525291 0.781154 0.018606
C3    C     C_R   0.235780 0.498928 0.120643 0.240001
C4    C     C_R   0.698601 0.410764 0.212882 0.149888
C5    C     C_R   0.979558 0.302495 0.699861 0.424009
C6    C     C_R   0.332153 0.554139 0.084771 0.083940
C7    C     C_R   0.918666 0.210972 0.701647 -0.040740
C8    C     C_R   0.329780 0.451771 0.679832 0.086116
C9    C     C_R   0.092254 0.150836 0.969819 0.077386
C10   C     C_R   0.037247 0.979751 0.428670 -0.124361
C11   C     C_R   0.026153 0.076722 0.518246 -0.143436
C12   C     C_R   0.702377 0.443913 0.309728 0.006841
C13   C     C_R   0.918211 0.116261 0.607661 0.114553
C14   C     C_R   0.819191 0.057645 0.609349 0.077400
C15   C     C_R   0.828918 0.961484 0.513748 0.102047
C16   C     C_R   0.739742 0.587308 0.958236 -0.057022
C17   C     C_R   0.939379 0.924705 0.424411 0.105430
C18   C     C_R   0.627107 0.377325 0.451674 0.070395
C19   C     C_R   0.533084 0.379728 0.544397 0.452280
C20   C     C_R   0.427247 0.439048 0.582159 -0.071010
C21   C     C_R   0.413469 0.495643 0.530117 -0.124073
C22   C     C_R   0.505548 0.495434 0.440803 -0.174282
C23   C     C_R   0.636741 0.570816 0.031438 0.087830
C24   C     C_R   0.611593 0.437621 0.402190 -0.032533
C25   C     C_2   0.428234 0.574670 0.113839 -0.170802
C26   C     C_2   0.522123 0.616933 0.063256 -0.162621
C27   C     C_2   0.031240 0.898291 0.873046 0.333619
C28   C     C_R   0.947299 0.717869 0.316314 -0.198272
C29   C     C_2   0.124375 0.891570 0.783708 0.404975
C30   C     C_R   0.660742 0.487796 0.052381 -0.120047
C31   C     C_R   0.025143 0.819214 0.223803 0.437605
C32   C     C_R   0.799490 0.498800 0.307551 -0.145187
C33   C     C_R   0.962478 0.727827 0.892245 0.432869
C34   C     C_R   0.959188 0.825474 0.325549 -0.060580
C35   C     C_R   0.020554 0.820469 0.917950 -0.170087
C36   C     C_3   0.174093 0.139759 0.755428 -0.874084
C37   C     C_3   0.186248 0.611939 0.314935 -0.843939
C38   C     C_3   0.641018 0.184273 0.727883 -0.702287
C39   C     C_3   0.684986 0.230506 0.074266 -0.809309
C40   C     C_3   0.684399 0.927090 0.445653 -0.802903
C41   C     C_3   0.741934 0.196160 0.332178 -0.715655
C42   C     C_R   0.322756 0.580748 0.012233 -0.141941
C43   C     C_R   0.896464 0.206671 0.794937 -0.181960
C44   C     C_R   0.219289 0.437220 0.686561 -0.106055
C45   C     C_R   0.091288 0.251778 0.052312 0.396248
C46   C     C_R   0.019988 0.173696 0.934343 0.132300
Cl1   Cl    Cl    0.212897 0.856977 0.959905 -0.508954
Cl2   Cl    Cl    0.162366 0.263440 0.129786 -0.591306
Cl3   Cl    Cl    0.987363 0.368828 0.621348 -0.575030
Cl4   Cl    Cl    0.547954 0.309726 0.612521 -0.693469
Cl5   Cl    Cl    0.895413 0.961259 0.910539 -0.703779
Cl6   Cl    Cl    0.253671 0.802669 0.718409 -0.610252
Cl7   Cl    Cl    0.066653 0.938946 0.200966 -0.587753
Cl8   Cl    Cl    0.938866 0.667232 0.775094 -0.548786
H1    H     H_    0.846579 0.146907 0.822959 0.167750
H2    H     H_    0.749026 0.645923 0.925427 0.170105
H3    H     H_    0.908041 0.693338 0.381020 0.149772
H4    H     H_    0.600680 0.452447 0.103698 0.133111
H5    H     H_    0.833524 0.525742 0.366574 0.119110
H6    H     H_    0.371362 0.639028 0.981550 0.138922
H7    H     H_    0.027880 0.048813 0.784309 0.208436
H8    H     H_    0.238217 0.086288 0.750667 0.268275
H9    H     H_    0.190858 0.230341 0.790328 0.257326
H10   H     H_    0.185139 0.114202 0.672312 0.248237
H11   H     H_    0.095671 0.485959 0.248184 0.207732
H12   H     H_    0.196533 0.389823 0.620405 0.169306
H13   H     H_    0.118797 0.618428 0.394041 0.265872
H14   H     H_    0.170999 0.687569 0.307328 0.234017
H15   H     H_    0.271531 0.611494 0.316003 0.254076
H16   H     H_    0.669301 0.030992 0.724610 0.178093
H17   H     H_    0.571563 0.217643 0.812227 0.240482
H18   H     H_    0.599674 0.151056 0.671864 0.272069
H19   H     H_    0.692219 0.255264 0.718160 0.279566
H20   H     H_    0.560876 0.310932 0.233571 0.189203
H21   H     H_    0.620363 0.171958 0.055512 0.269357
H22   H     H_    0.747384 0.185569 0.079853 0.273261
H23   H     H_    0.392640 0.560018 0.802150 0.131444
H24   H     H_    0.730585 0.254663 0.007789 0.244277
H25   H     H_    0.666576 0.903400 0.575457 0.185821
H26   H     H_    0.611505 0.874739 0.439747 0.246803
H27   H     H_    0.751944 0.906092 0.362267 0.252468
H28   H     H_    0.651551 0.018124 0.487493 0.264416
H29   H     H_    0.807567 0.351832 0.380936 0.197894
H30   H     H_    0.740473 0.191357 0.258810 0.222250
H31   H     H_    0.668604 0.153165 0.369520 0.254287
H32   H     H_    0.824609 0.150846 0.307733 0.274710
H33   H     H_    0.123146 0.947449 0.361895 0.165827
H34   H     H_    0.103683 0.118378 0.519450 0.141277
H35   H     H_    0.331849 0.542893 0.560618 0.203579
H36   H     H_    0.494557 0.541626 0.402139 0.152475
H37   H     H_    0.432046 0.529560 0.156004 0.145108
H38   H     H_    0.518149 0.665175 0.023636 0.150399
N1    N     N_R   0.037310 0.720000 0.995790 -0.129146
N2    N     N_R   0.824890 0.517960 0.936420 -0.039415
N3    N     N_R   0.003210 0.648190 0.211380 -0.075445
N4    N     N_R   0.774330 0.457010 0.995840 -0.055647
N5    N     N_R   0.053760 0.709140 0.151960 -0.087208
N6    N     N_R   0.853860 0.498840 0.211410 -0.052956
N7    N     N_R   0.974240 0.667310 0.936390 -0.132904
N8    N     N_R   0.225670 0.542990 0.004160 -0.069179
N9    N     N_2   0.056622 0.124866 0.820702 -0.113736
N10   N     N_2   0.179749 0.508083 0.227824 -0.080304
N11   N     N_2   0.714263 0.094225 0.707248 -0.136815
N12   N     N_R   0.946240 0.290860 0.848040 -0.056107
N13   N     N_2   0.626020 0.330023 0.175309 -0.138502
N14   N     N_2   0.730641 0.903047 0.505265 -0.116086
N15   N     N_2   0.734216 0.313331 0.408575 -0.074907
N16   N     N_R   0.146140 0.501160 0.788590 -0.039337
N17   N     N_R   0.025760 0.332690 0.063610 -0.120925
N18   N     N_R   0.962690 0.280000 0.004210 -0.085977
N19   N     N_R   0.209210 0.553840 0.847990 -0.057308
N20   N     N_R   0.175110 0.482040 0.063580 -0.092764
N21   N     N_R   0.996790 0.351810 0.788620 -0.085753
N22   N     N_R   0.790790 0.446160 0.152010 -0.055844
Ni1   Ni    Ni4+2 0.130310 0.630310 0.999970 0.278478
Ni2   Ni    Ni4+2 0.869690 0.369690 0.000030 0.207881
Ni3   Ni    Ni4+2 0.985640 0.509470 0.863740 0.315532
Ni4   Ni    Ni4+2 0.014360 0.490530 0.136260 0.204640

loop_
_geom_bond_atom_site_label_1
_geom_bond_atom_site_label_2
_ccdc_geom_bond_type
C9    C45   A    
C43   N12   A    
C37   H15   S    
C27   C29   D    
C44   H12   S    
C19   C20   A    
C3    C6    A    
C21   H35   S    
C28   H3    S    
C41   H32   S    
C8    C20   S    
C28   N3    A    
C18   C24   A    
C15   N14   S    
C4    N22   A    
C37   N10   S    
N2    Ni3   S    
C45   N17   A    
N6    N22   A    
C6    C25   S    
C10   C17   A    
C26   H38   S    
C37   H14   S    
C30   H4    S    
C15   C17   A    
C18   C19   A    
N1    Ni1   S    
C23   C26   S    
C18   N15   S    
C30   N4    A    
N12   Ni2   S    
C32   N6    A    
C40   H26   S    
C7    C43   A    
C4    C12   A    
C36   H9    S    
C11   H34   S    
C28   C34   A    
C9    C46   A    
C21   C22   A    
C12   C32   A    
C5    Cl3   S    
N8    Ni1   S    
H11   N10   S    
C36   H8    S    
N16   Ni3   S    
C27   Cl5   S    
N17   Ni4   S    
N6    Ni4   S    
C44   N16   A    
N3    Ni4   S    
C2    N19   A    
C46   N9    S    
C38   H18   S    
C10   H33   S    
C25   H37   S    
C23   C30   A    
C40   H28   S    
C42   H6    S    
C5    C7    A    
H16   N11   S    
C1    Cl1   S    
C27   C35   S    
C25   C26   D    
C41   H30   S    
H25   N14   S    
C36   N9    S    
C33   N7    A    
H7    N9    S    
C16   H2    S    
C38   N11   S    
C42   N8    A    
N7    Ni3   S    
C3    N20   A    
C22   H36   S    
C31   C34   A    
C39   H22   S    
C31   Cl7   S    
N2    N4    A    
N21   Ni3   S    
C3    N10   S    
C43   H1    S    
N8    N20   A    
C16   C23   A    
C39   H21   S    
C46   N18   A    
C22   C24   A    
N5    Ni1   S    
C17   C34   S    
N18   Ni2   S    
C1    C35   A    
C40   N14   S    
C45   Cl2   S    
C33   Cl8   S    
C39   N13   S    
N1    N7    A    
C38   H17   S    
C41   N15   S    
C5    N21   A    
C40   H27   S    
C2    C8    A    
C8    C44   A    
N22   Ni2   S    
N3    N5    A    
C41   H31   S    
C4    N13   S    
C12   C24   S    
C16   N2    A    
N16   N19   A    
C2    H23   S    
C36   H10   S    
N17   N18   A    
H20   N13   S    
N20   Ni4   S    
C11   C13   A    
C19   Cl4   S    
C14   N11   S    
C37   H13   S    
C33   C35   A    
H29   N15   S    
C31   N5    A    
C10   C11   A    
N12   N21   A    
C7    C13   S    
C20   C21   A    
C1    N1    A    
C6    C42   A    
C14   C15   A    
N4    Ni2   S    
N19   Ni1   S    
C32   H5    S    
C39   H24   S    
C13   C14   A    
C29   Cl6   S    
C38   H19   S    
