data_mof_unit_5246.cif
_audit_creation_date              2012-12-10T18:11:06-0500
_audit_creation_method            fapswitch 2.2
_symmetry_space_group_name_H-M    P1
_symmetry_Int_Tables_number       1
_space_group_crystal_system       triclinic
_cell_length_a                    10.725984
_cell_length_b                    9.421701
_cell_length_c                    10.62319
_cell_angle_alpha                 90.211105
_cell_angle_beta                  89.997519
_cell_angle_gamma                 89.998956
_cell_volume                      1073.54057437

loop_
_atom_site_label
_atom_site_type_symbol
_atom_type_description
_atom_site_fract_x
_atom_site_fract_y
_atom_site_fract_z
_atom_type_partial_charge
C1    C     C_R   0.259679 0.499798 0.500168 0.756881
C2    C     C_3   0.499860 0.498932 0.122417 0.030577
C3    C     C_3   0.071827 0.577544 0.618549 -0.383839
C4    C     C_3   0.071230 0.344452 0.501451 -0.379397
C5    C     C_3   0.927892 0.577542 0.618529 -0.383797
C6    C     C_3   0.928535 0.344452 0.501409 -0.379682
C7    C     C_3   0.071856 0.574369 0.380873 -0.385283
C8    C     C_3   0.121718 0.499078 0.500263 0.178192
C9    C     C_3   0.878042 0.499077 0.500228 0.178205
C10   C     C_3   0.927937 0.574376 0.380856 -0.385336
C11   C     C_3   0.612578 0.083984 0.565929 -0.189364
C12   C     C_3   0.612553 0.916476 0.565986 -0.189971
C13   C     C_3   0.390213 0.083999 0.569928 -0.189665
C14   C     C_3   0.390236 0.916501 0.569976 -0.190137
C15   C     C_3   0.497949 0.083092 0.373258 -0.188270
C16   C     C_3   0.497953 0.915993 0.373255 -0.182624
C17   C     C_R   0.499845 0.499671 0.259300 0.785157
C18   C     C_R   0.740081 0.499796 0.500113 0.757008
C19   C     C_R   0.499912 0.500336 0.740792 0.782326
C20   C     C_3   0.397386 0.566917 0.042362 -0.176139
C21   C     C_3   0.499943 0.364879 0.040073 -0.142177
C22   C     C_3   0.397469 0.433002 0.957722 -0.174415
C23   C     C_3   0.499901 0.501107 0.877686 0.031544
C24   C     C_3   0.499818 0.635167 0.960032 -0.143186
C25   C     C_3   0.602376 0.433131 0.957747 -0.174310
C26   C     C_3   0.602291 0.567047 0.042387 -0.176058
Cu1   Cu    Cu3+1 0.499860 0.642410 0.500060 0.886419
Cu2   Cu    Cu3+1 0.499860 0.357590 0.500060 0.886276
H1    H     H_    0.313748 0.378338 0.919761 0.109535
H2    H     H_    0.893594 0.685799 0.377564 0.157132
H3    H     H_    0.893075 0.519371 0.294868 0.141904
H4    H     H_    0.618352 0.124198 0.664330 0.136321
H5    H     H_    0.618170 0.877158 0.664429 0.134557
H6    H     H_    0.387943 0.124091 0.668505 0.137001
H7    H     H_    0.388110 0.877290 0.668584 0.134864
H8    H     H_    0.413876 0.121681 0.322438 0.134886
H9    H     H_    0.413859 0.877079 0.322412 0.136770
H10   H     H_    0.580259 0.121494 0.319482 0.135001
H11   H     H_    0.580296 0.877253 0.319464 0.137247
H12   H     H_    0.302747 0.120903 0.524614 0.135367
H13   H     H_    0.302713 0.879067 0.524808 0.136124
H14   H     H_    0.313600 0.621474 0.080315 0.110871
H15   H     H_    0.499991 0.254162 0.075534 0.115404
H16   H     H_    0.499765 0.745878 0.924556 0.117759
H17   H     H_    0.686167 0.378578 0.919810 0.109582
H18   H     H_    0.106155 0.689039 0.620258 0.156817
H19   H     H_    0.105379 0.285221 0.417330 0.157061
H20   H     H_    0.106696 0.524817 0.705299 0.141368
H21   H     H_    0.105312 0.287692 0.586549 0.153020
H22   H     H_    0.892996 0.524813 0.705269 0.141383
H23   H     H_    0.894391 0.287654 0.586465 0.153134
H24   H     H_    0.893559 0.689036 0.620227 0.156857
H25   H     H_    0.894449 0.285261 0.417243 0.156835
H26   H     H_    0.106202 0.685790 0.377581 0.157299
H27   H     H_    0.106743 0.519355 0.294898 0.141849
N1    N     N_3   0.500250 0.143650 0.502780 -0.107602
N2    N     N_3   0.500250 0.856350 0.502780 -0.109147
O1    O     O_R   0.317570 0.620260 0.500070 -0.596702
O2    O     O_R   0.317570 0.379740 0.500070 -0.597640
O3    O     O_R   0.499850 0.620240 0.316900 -0.593246
O4    O     O_R   0.499850 0.379760 0.316900 -0.596207
O5    O     O_R   0.682190 0.620260 0.500030 -0.596651
O6    O     O_R   0.682190 0.379740 0.500030 -0.597546
O7    O     O_R   0.499910 0.620280 0.683200 -0.592805
O8    O     O_R   0.499910 0.379720 0.683200 -0.589704
H28   H     H_    0.698377 0.120743 0.517384 0.135383
H29   H     H_    0.698423 0.879134 0.517605 0.136078
H30   H     H_    0.686009 0.621715 0.080361 0.110907

loop_
_geom_bond_atom_site_label_1
_geom_bond_atom_site_label_2
_ccdc_geom_bond_type
C16   H9    S    
C7    C10   S    
C20   H14   S    
C23   C24   S    
C5    H24   S    
C5    C9    S    
C22   H1    S    
C13   C14   S    
C6    H23   S    
C1    C8    S    
C9    C10   S    
C10   H2    S    
C3    H18   S    
C19   C23   S    
C11   H28   S    
C7    H27   S    
C19   O7    A    
C4    C8    S    
C13   N1    S    
C26   H30   S    
C15   N1    S    
C3    C5    S    
C2    C21   S    
C1    O2    A    
Cu2   O8    S    
Cu2   N1    S    
C4    H21   S    
C13   H6    S    
C2    C26   S    
C21   C22   S    
Cu2   O4    S    
C2    C17   S    
C12   H5    S    
C16   H11   S    
C15   H10   S    
C1    O1    A    
C9    C18   S    
C6    C9    S    
C14   H13   S    
C12   N2    S    
Cu1   O5    S    
C24   C26   S    
C11   H4    S    
C19   O8    A    
C16   N2    S    
C23   C25   S    
Cu1   O3    S    
C24   H16   S    
C12   H29   S    
C18   O6    A    
Cu1   O7    S    
C17   O3    A    
C2    C20   S    
C15   C16   S    
Cu2   O6    S    
C25   H17   S    
C3    H20   S    
C7    C8    S    
C4    C6    S    
C3    C8    S    
Cu1   N2    S    
Cu2   O2    S    
C14   H7    S    
C14   N2    S    
C21   C25   S    
C22   C23   S    
C15   H8    S    
C13   H12   S    
C6    H25   S    
C7    H26   S    
C17   O4    A    
C25   C26   S    
C21   H15   S    
C10   H3    S    
C4    H19   S    
C18   O5    A    
C11   N1    S    
C20   C24   S    
C11   C12   S    
C20   C22   S    
C5    H22   S    
Cu1   Cu2   S    
Cu1   O1    S    
