data_mof_unit_52998.cif
_audit_creation_date              2012-12-10T18:16:21-0500
_audit_creation_method            fapswitch 2.2
_symmetry_space_group_name_H-M    P1
_symmetry_Int_Tables_number       1
_space_group_crystal_system       triclinic
_cell_length_a                    12.585074
_cell_length_b                    13.119642
_cell_length_c                    27.730316
_cell_angle_alpha                 90.597659
_cell_angle_beta                  103.278519
_cell_angle_gamma                 81.796494
_cell_volume                      4409.40560821

loop_
_atom_site_label
_atom_site_type_symbol
_atom_type_description
_atom_site_fract_x
_atom_site_fract_y
_atom_site_fract_z
_atom_type_partial_charge
C1    C     C_R   0.438250 0.691493 0.493516 0.948646
C2    C     C_R   0.596849 0.533250 0.730811 -0.190276
C3    C     C_R   0.516315 0.491534 0.748258 0.227318
C4    C     C_R   0.521991 0.488626 0.900050 -0.122219
C5    C     C_R   0.480944 0.579358 0.870940 0.003438
C6    C     C_R   0.439286 0.668438 0.892294 -0.135007
C7    C     C_R   0.563713 0.398545 0.878035 -0.149409
C8    C     C_R   0.505679 0.498592 0.646913 -0.098716
C9    C     C_R   0.497243 0.497095 0.353149 -0.281997
C10   C     C_R   0.486787 0.581058 0.024425 0.061706
C11   C     C_R   0.549331 0.393868 0.029744 0.005591
C12   C     C_R   0.501131 0.500963 0.593847 0.857519
C13   C     C_R   0.516756 0.486891 0.052259 0.079441
C14   C     C_R   0.462394 0.673008 0.049248 -0.213491
C15   C     C_R   0.460853 0.671615 0.098978 -0.131324
C16   C     C_R   0.484340 0.578781 0.125947 -0.017004
C17   C     C_R   0.513224 0.485831 0.102985 -0.124018
C18   C     C_R   0.538328 0.392227 0.130794 -0.157712
C19   C     C_R   0.532547 0.394610 0.180885 0.587577
C20   C     C_R   0.480775 0.577083 0.175855 0.611995
C21   C     C_R   0.400290 0.497571 0.266647 0.400049
C22   C     C_R   0.397286 0.506280 0.316696 0.379074
C23   C     C_R   0.561970 0.308705 0.506688 0.909004
C24   C     C_R   0.598305 0.484689 0.338922 -0.420250
C25   C     C_R   0.601630 0.477703 0.288897 0.541809
C26   C     C_R   0.502005 0.486921 0.253084 0.044155
C27   C     C_R   0.482495 0.580526 0.972926 0.062550
C28   C     C_R   0.520797 0.488280 0.951048 0.076504
C29   C     C_R   0.557995 0.395917 0.979696 0.005333
C30   C     C_R   0.439681 0.669164 0.942245 -0.217917
C31   C     C_R   0.604268 0.307994 0.907200 0.562879
C32   C     C_R   0.570159 0.301067 0.057819 -0.316609
C33   C     C_R   0.568066 0.299683 0.107837 0.561359
C34   C     C_R   0.498576 0.499965 0.406081 0.974093
C35   C     C_R   0.603980 0.308481 0.957432 -0.317308
C36   C     C_R   0.708444 0.060592 0.478021 0.578215
C37   C     C_R   0.603301 0.199261 0.511853 -0.258525
C38   C     C_R   0.322079 0.828503 0.524361 -0.301190
C39   C     C_R   0.333294 0.910575 0.555996 -0.221787
C40   C     C_R   0.421001 0.966172 0.558739 0.656144
C41   C     C_R   0.481011 0.957592 0.520570 -0.065578
C42   C     C_R   0.471447 0.871127 0.489559 -0.102321
C43   C     C_R   0.553302 0.027599 0.513324 -0.087145
C44   C     C_R   0.631997 0.996262 0.484250 -0.127352
C45   C     C_R   0.480771 0.578621 0.820591 0.544264
C46   C     C_R   0.625895 0.906485 0.457136 -0.270373
C47   C     C_R   0.539178 0.851145 0.455197 0.543128
C48   C     C_R   0.541777 0.131295 0.528591 0.510196
C49   C     C_R   0.694291 0.162175 0.492804 -0.371923
C50   C     C_R   0.400892 0.801042 0.496543 -0.107515
C51   C     C_R   0.087279 0.345757 0.431977 -0.424662
C52   C     C_R   0.797967 0.633137 0.556858 -0.132941
C53   C     C_R   0.901691 0.667064 0.566942 0.517514
C54   C     C_R   0.983686 0.614352 0.545881 -0.258380
C55   C     C_R   0.962025 0.532229 0.513360 -0.049038
C56   C     C_R   0.563077 0.402317 0.827261 0.574943
C57   C     C_R   0.854769 0.504157 0.503401 0.227212
C58   C     C_R   0.041648 0.477961 0.489827 0.032054
C59   C     C_R   0.011376 0.398844 0.456299 0.139221
C60   C     C_R   0.905479 0.372872 0.447345 -0.268924
C61   C     C_R   0.828676 0.424571 0.470732 -0.185198
C62   C     C_R   0.150843 0.498150 0.498316 -0.163604
C63   C     C_R   0.193974 0.371805 0.440501 0.720493
C64   C     C_R   0.431034 0.450874 0.715524 0.587550
C65   C     C_R   0.424514 0.457229 0.664529 -0.345641
C66   C     C_R   0.592171 0.536107 0.680362 -0.208993
H1    H     H_    0.655420 0.568723 0.667547 0.173413
H2    H     H_    0.674752 0.480911 0.366752 0.208286
H3    H     H_    0.265157 0.776440 0.528675 0.186555
H4    H     H_    0.283981 0.921319 0.583421 0.181584
H5    H     H_    0.182318 0.554819 0.523943 0.154150
H6    H     H_    0.732929 0.668848 0.573635 0.143036
H7    H     H_    0.062876 0.640996 0.555014 0.165886
H8    H     H_    0.440947 0.744142 0.116219 0.188816
H9    H     H_    0.446266 0.748134 0.031603 0.142977
H10   H     H_    0.356497 0.429866 0.638832 0.178202
N1    N     N_R   0.520903 0.490950 0.800047 -0.341777
N2    N     N_R   0.504304 0.486003 0.201906 -0.307837
N3    N     N_R   0.222180 0.444690 0.474320 -0.140408
N4    N     N_R   0.776980 0.554780 0.525420 -0.145963
O1    O     O_R   0.366730 0.627160 0.487740 -0.640539
O2    O     O_2   0.454492 0.665706 0.198439 -0.561545
O3    O     O_2   0.603806 0.318736 0.804919 -0.523056
O4    O     O_2   0.554652 0.306978 0.208648 -0.536953
O5    O     O_R   0.544830 0.662520 0.504140 -0.588944
O6    O     O_R   0.410970 0.482310 0.563040 -0.626760
O7    O     O_R   0.589070 0.517670 0.579450 -0.626889
O8    O     O_R   0.455170 0.337480 0.495860 -0.523287
O9    O     O_R   0.633270 0.372840 0.512260 -0.653234
O10   O     O_R   0.410930 0.482330 0.420550 -0.544654
O11   O     O_R   0.589030 0.517690 0.436960 -0.622661
O12   O     O_2   0.440207 0.664542 0.792127 -0.557524
Zn1   Zn    Zn3+2 0.381080 0.476390 0.489050 1.010471
Zn2   Zn    Zn3+2 0.618920 0.523610 0.510950 0.949399
O13   O     O_3   0.350669 0.413196 0.734135 -0.601129
C67   C     C_3   0.345352 0.309777 0.720446 -0.291793
H11   H     H_    0.428697 0.263036 0.726348 0.176757
H12   H     H_    0.299117 0.305319 0.681396 0.163922
H13   H     H_    0.299545 0.274826 0.744148 0.201572
O14   O     O_3   0.651147 0.219859 0.887746 -0.558554
C68   C     C_3   0.575177 0.148594 0.879493 -0.226656
H14   H     H_    0.495325 0.181862 0.854522 0.161800
H15   H     H_    0.561227 0.120842 0.914991 0.133862
H16   H     H_    0.609965 0.080748 0.860969 0.197543
H17   H     H_    0.585445 0.226877 0.041719 0.161553
O15   O     O_3   0.587880 0.205896 0.133023 -0.561499
C69   C     C_3   0.702752 0.173222 0.145889 -0.235397
H18   H     H_    0.718951 0.101399 0.168773 0.194947
H19   H     H_    0.747253 0.231465 0.168495 0.161879
H20   H     H_    0.736042 0.155402 0.112423 0.135899
O16   O     O_3   0.699660 0.470675 0.273228 -0.580523
C70   C     C_3   0.779216 0.391438 0.299412 -0.290236
H21   H     H_    0.742901 0.321375 0.305640 0.162173
H22   H     H_    0.823974 0.419976 0.335093 0.165102
H23   H     H_    0.840922 0.368177 0.277049 0.186508
H24   H     H_    0.643327 0.239043 0.978306 0.162063
H25   H     H_    0.747080 0.214371 0.484250 0.186688
H26   H     H_    0.682039 0.883827 0.433320 0.208089
O17   O     O_3   0.793595 0.025054 0.455347 -0.597717
C71   C     C_3   0.769978 0.068726 0.407062 -0.328035
H27   H     H_    0.686595 0.056796 0.385416 0.157864
H28   H     H_    0.831136 0.029999 0.387223 0.200073
H29   H     H_    0.777777 0.152069 0.408045 0.152499
H30   H     H_    0.662853 0.563639 0.756485 0.162848
O18   O     O_3   0.456620 0.170602 0.550744 -0.563997
C72   C     C_3   0.500278 0.213992 0.596902 -0.143696
H31   H     H_    0.518948 0.292403 0.592201 0.118084
H32   H     H_    0.575777 0.165678 0.618657 0.145074
H33   H     H_    0.437152 0.220713 0.619313 0.187925
O19   O     O_3   0.455971 0.014378 0.602785 -0.593101
C73   C     C_3   0.550346 0.953057 0.631307 -0.374095
H34   H     H_    0.622219 0.952228 0.614249 0.153102
H35   H     H_    0.534820 0.872974 0.636872 0.172548
H36   H     H_    0.572034 0.987190 0.668416 0.205862
O20   O     O_3   0.525598 0.772522 0.421627 -0.604151
C74   C     C_3   0.470559 0.815873 0.374687 -0.348677
H37   H     H_    0.518373 0.870337 0.361380 0.175913
H38   H     H_    0.386309 0.854909 0.375252 0.159400
H39   H     H_    0.461813 0.752985 0.347641 0.202354
O21   O     O_3   0.275239 0.320490 0.418986 -0.566970
C75   C     C_3   0.234393 0.302846 0.368230 -0.295073
H40   H     H_    0.305002 0.291056 0.350094 0.198372
H41   H     H_    0.175699 0.369480 0.348843 0.178355
H42   H     H_    0.195685 0.231340 0.363582 0.145683
H43   H     H_    0.881658 0.312232 0.422019 0.138675
H44   H     H_    0.063636 0.284320 0.407213 0.152266
H45   H     H_    0.405556 0.738411 0.870377 0.186692
O22   O     O_3   0.929531 0.746337 0.599037 -0.589268
C76   C     C_3   0.841055 0.827471 0.595317 -0.297874
H46   H     H_    0.783448 0.808949 0.617772 0.146976
H47   H     H_    0.796631 0.846573 0.556163 0.169239
H48   H     H_    0.874737 0.897524 0.610920 0.204708
H49   H     H_    0.749087 0.400790 0.462258 0.198841
O23   O     O_3   0.296299 0.519281 0.329441 -0.588664
C77   C     C_3   0.260394 0.625597 0.331915 -0.222288
H50   H     H_    0.255979 0.667081 0.296514 0.179670
H51   H     H_    0.314251 0.660330 0.363355 0.151790
H52   H     H_    0.176072 0.635934 0.338709 0.180588
O24   O     O_3   0.303241 0.507650 0.230441 -0.571024
C78   C     C_3   0.267372 0.410415 0.223595 -0.258269
H53   H     H_    0.247568 0.382163 0.257737 0.168707
H54   H     H_    0.329475 0.352883 0.211558 0.174310
H55   H     H_    0.190694 0.417972 0.193850 0.189458
H56   H     H_    0.402915 0.740123 0.955319 0.143079

loop_
_geom_bond_atom_site_label_1
_geom_bond_atom_site_label_2
_ccdc_geom_bond_type
C10   C27   A    
C58   C62   A    
C21   C26   A    
O7    Zn2   S    
C8    C66   A    
C68   H14   S    
C20   O2    S    
C77   H51   S    
C69   H19   S    
C63   O21   S    
O16   C70   S    
C30   H56   S    
C73   H36   S    
C70   H22   S    
C25   O16   S    
O20   C74   S    
C63   N3    A    
C53   C54   A    
C52   C53   A    
C26   N2    S    
C65   H10   S    
O10   Zn1   S    
C28   C29   A    
N3    Zn1   S    
C76   H47   S    
C22   O23   S    
C5    C6    A    
C9    C22   A    
O15   C69   S    
C1    O1    A    
C15   C16   A    
C67   H13   S    
O1    Zn1   S    
C46   H26   S    
C18   C19   A    
C41   C42   A    
O9    Zn2   S    
C36   O17   S    
C45   O12   S    
C34   O11   A    
C48   O18   S    
C46   C47   A    
C49   H25   S    
O13   C67   S    
C71   H28   S    
C16   C17   A    
C67   H12   S    
C69   H18   S    
C23   O9    A    
C18   C33   A    
C43   C48   A    
C41   C43   A    
C71   H29   S    
C8    C12   S    
C42   C47   A    
C66   H1    S    
C38   H3    S    
C59   C60   A    
C68   H15   S    
C21   C22   A    
C27   C30   A    
C21   O24   S    
C57   N4    A    
C7    C56   A    
C4    C7    A    
C70   H21   S    
C4    C28   A    
C44   C46   A    
C1    O5    A    
C38   C39   A    
C7    C31   A    
C78   H55   S    
C62   N3    A    
C51   C63   A    
C24   C25   A    
C74   H38   S    
C10   C14   A    
C76   H48   S    
C39   C40   A    
O8    Zn1   S    
C74   H37   S    
C51   H44   S    
C73   H35   S    
C58   C59   A    
C23   C37   S    
C5    C45   A    
C53   O22   S    
C56   N1    A    
C60   C61   A    
C78   H54   S    
C19   N2    A    
C43   C44   A    
C34   O10   A    
C52   H6    S    
O6    Zn1   S    
C54   H7    S    
C37   C49   A    
O5    Zn2   S    
O24   C78   S    
C16   C20   A    
C67   H11   S    
C17   C18   A    
C35   H24   S    
C31   O14   S    
O21   C75   S    
C37   C48   A    
O23   C77   S    
C42   C50   A    
C38   C50   A    
C40   C41   A    
C6    C30   A    
C11   C32   A    
C68   H16   S    
C32   H17   S    
C55   C57   A    
O18   C72   S    
C69   H20   S    
C31   C35   A    
C36   C44   A    
C51   C59   A    
C60   H43   S    
N4    Zn2   S    
C73   H34   S    
C3    N1    S    
C27   C28   A    
C71   H27   S    
C56   O3    S    
C1    C50   S    
C40   O19   S    
C54   C55   A    
C72   H32   S    
C12   O7    A    
C47   O20   S    
C33   O15   S    
C64   O13   S    
C4    C5    A    
C2    C66   A    
C10   C13   A    
C61   H49   S    
O17   C71   S    
C9    C24   A    
C57   C61   A    
C75   H42   S    
C2    H30   S    
C29   C35   A    
C72   H33   S    
C12   O6    A    
C23   O8    A    
C32   C33   A    
C75   H41   S    
O19   C73   S    
C25   C26   A    
C52   N4    A    
C76   H46   S    
C74   H39   S    
O11   Zn2   S    
C6    H45   S    
C11   C13   A    
C9    C34   S    
C20   N2    A    
C72   H31   S    
C64   C65   A    
O14   C68   S    
C39   H4    S    
C62   H5    S    
C2    C3    A    
O22   C76   S    
C3    C64   A    
C78   H53   S    
C24   H2    S    
C13   C17   A    
C8    C65   A    
C15   H8    S    
C11   C29   A    
C55   C58   A    
C77   H50   S    
C14   C15   A    
C45   N1    A    
C75   H40   S    
C70   H23   S    
C36   C49   A    
C19   O4    S    
C14   H9    S    
C77   H52   S    
