data_mof_unit_21205.cif
_audit_creation_date              2012-12-11T15:15:48-0500
_audit_creation_method            fapswitch 2.2
_symmetry_space_group_name_H-M    P1
_symmetry_Int_Tables_number       1
_space_group_crystal_system       triclinic
_cell_length_a                    18.937916
_cell_length_b                    18.943627
_cell_length_c                    20.373926
_cell_angle_alpha                 107.07218
_cell_angle_beta                  106.499569
_cell_angle_gamma                 111.276676
_cell_volume                      5851.77058713

loop_
_atom_site_label
_atom_site_type_symbol
_atom_type_description
_atom_site_fract_x
_atom_site_fract_y
_atom_site_fract_z
_atom_type_partial_charge
C1    C     C_R   0.038720 0.087151 0.344562 0.550758
C2    C     C_R   0.237776 0.073934 0.493829 -0.067689
C3    C     C_R   0.159998 0.182057 0.718514 -0.120609
C4    C     C_R   0.755399 0.930325 0.453402 -0.115326
C5    C     C_R   0.049909 0.803295 0.477457 -0.193949
C6    C     C_R   0.241675 0.204024 0.727076 -0.012698
C7    C     C_R   0.032373 0.773827 0.528697 -0.113070
C8    C     C_R   0.245794 0.004959 0.457177 -0.020016
C9    C     C_R   0.934305 0.980388 0.712919 -0.111645
C10   C     C_R   0.066401 0.718984 0.625478 -0.232932
C11   C     C_R   0.075088 0.733919 0.563840 0.103195
C12   C     C_R   0.748485 0.002828 0.459408 0.052196
C13   C     C_R   0.121272 0.705400 0.531350 -0.205394
C14   C     C_R   0.140781 0.646772 0.546509 0.131267
C15   C     C_R   0.117278 0.618940 0.597881 0.012393
C16   C     C_R   0.847684 0.777438 0.290733 -0.136252
C17   C     C_R   0.085985 0.659665 0.642666 0.109060
C18   C     C_R   0.172951 0.607591 0.502975 -0.195507
C19   C     C_R   0.170872 0.533551 0.502132 -0.179935
C20   C     C_R   0.138200 0.499714 0.545965 0.136901
C21   C     C_R   0.116486 0.544798 0.597747 0.036984
C22   C     C_R   0.085132 0.510825 0.642685 0.150781
C23   C     C_R   0.772015 0.726275 0.288492 0.037327
C24   C     C_R   0.063939 0.556524 0.693954 -0.322618
C25   C     C_R   0.065839 0.631999 0.695962 -0.056060
C26   C     C_R   0.119665 0.418095 0.533298 -0.285919
C27   C     C_R   0.085094 0.381810 0.575131 0.119356
C28   C     C_R   0.003195 0.237599 0.570406 -0.228902
C29   C     C_R   0.071150 0.429608 0.632251 -0.208752
C30   C     C_R   0.395866 0.078400 0.487449 -0.279294
C31   C     C_R   0.315926 0.008245 0.438869 0.111403
C32   C     C_R   0.304959 0.942569 0.375545 -0.223835
C33   C     C_R   0.374764 0.946145 0.362738 0.097712
C34   C     C_R   0.057600 0.291834 0.552739 -0.149753
C35   C     C_R   0.454638 0.017214 0.411917 0.046727
C36   C     C_R   0.464022 0.085449 0.472172 0.151971
C37   C     C_R   0.366080 0.880995 0.301060 -0.204973
C38   C     C_R   0.437321 0.881863 0.291900 -0.055445
C39   C     C_R   0.519575 0.946210 0.350192 -0.016946
C40   C     C_R   0.770357 0.771142 0.354770 -0.129966
C41   C     C_R   0.526158 0.018377 0.404240 0.028716
C42   C     C_R   0.605094 0.090725 0.453875 0.146538
C43   C     C_R   0.612096 0.162283 0.507374 -0.202965
C44   C     C_R   0.542042 0.158778 0.517936 -0.198524
C45   C     C_R   0.238356 0.186529 0.654592 -0.037758
C46   C     C_R   0.595047 0.940330 0.361515 -0.084603
C47   C     C_R   0.673333 0.010044 0.421230 0.026368
C48   C     C_R   0.677182 0.087863 0.456071 -0.238552
C49   C     C_R   0.315898 0.234464 0.798528 0.148990
C50   C     C_R   0.312109 0.260436 0.868873 -0.171243
C51   C     C_R   0.383147 0.294558 0.936869 -0.145690
C52   C     C_R   0.085401 0.245107 0.511688 0.638521
C53   C     C_R   0.459953 0.303353 0.936212 0.219098
C54   C     C_R   0.463008 0.274204 0.865941 -0.175667
C55   C     C_R   0.391611 0.239662 0.797650 -0.162178
C56   C     C_R   0.968619 0.790445 0.538259 0.531838
C57   C     C_R   0.690634 0.501236 0.147805 -0.154223
C58   C     C_R   0.744451 0.586990 0.196706 -0.177698
C59   C     C_R   0.635396 0.594270 0.233514 -0.154990
C60   C     C_R   0.581779 0.508468 0.184856 -0.166896
C61   C     C_R   0.607880 0.462139 0.139633 0.217167
C62   C     C_2   0.540100 0.356809 0.006634 -0.210864
C63   C     C_2   0.543300 0.378164 0.076808 -0.223546
C64   C     C_R   0.826306 0.070913 0.515684 -0.111253
C65   C     C_R   0.716536 0.634882 0.238495 0.132517
C66   C     C_R   0.941301 0.023504 0.202341 0.153852
C67   C     C_R   0.171415 0.933782 0.434648 -0.122463
C68   C     C_R   0.852908 0.978938 0.163214 -0.164755
C69   C     C_R   0.812044 0.982385 0.096327 -0.185473
C70   C     C_R   0.859663 0.028657 0.067352 0.224321
C71   C     C_R   0.947708 0.075849 0.108347 -0.157094
C72   C     C_R   0.988392 0.072704 0.175083 -0.198114
C73   C     C_R   0.915469 0.018016 0.896163 -0.205014
C74   C     C_R   0.949198 0.022736 0.844441 -0.141979
C75   C     C_R   0.808519 0.936105 0.740302 -0.244159
C76   C     C_R   0.968052 0.946544 0.281287 -0.201088
C77   C     C_R   0.773465 0.930883 0.791754 0.577788
C78   C     C_R   0.983821 0.052847 0.710352 -0.221290
C79   C     C_R   0.828044 0.970763 0.870830 0.028590
C80   C     C_2   0.821629 0.023731 0.991306 -0.355999
C81   C     C_2   0.798912 0.955547 0.927937 -0.113095
C82   C     C_R   0.896337 0.979361 0.766307 0.053092
C83   C     C_R   0.984118 0.019648 0.272287 -0.159251
C84   C     C_2   0.279077 0.157071 0.494123 0.475724
C85   C     C_2   0.043907 0.677150 0.752991 0.530630
C86   C     C_2   0.423167 0.821029 0.217794 0.659215
C87   C     C_2   0.593244 0.861658 0.317459 0.416375
C88   C     C_2   0.766402 0.868779 0.922620 0.591243
C89   C     C_R   0.911096 0.913493 0.645115 0.600652
H1    H     H_    0.150244 0.870400 0.393906 0.096078
H2    H     H_    0.126724 0.381143 0.486335 0.173584
H3    H     H_    0.045194 0.402322 0.665359 0.120926
H4    H     H_    0.043522 0.532045 0.731033 0.133723
H5    H     H_    0.405763 0.127539 0.538386 0.112923
H6    H     H_    0.243013 0.888526 0.337212 0.121410
H7    H     H_    0.303422 0.830133 0.259312 0.169904
H8    H     H_    0.875950 0.758094 0.254705 0.093996
H9    H     H_    0.736180 0.144529 0.495636 0.120181
H10   H     H_    0.672820 0.218422 0.545205 0.132690
H11   H     H_    0.549231 0.212404 0.563019 0.136691
H12   H     H_    0.999316 0.116141 0.746567 0.135246
H13   H     H_    0.255472 0.258186 0.872327 0.113766
H14   H     H_    0.807484 0.615368 0.201032 0.115919
H15   H     H_    0.612147 0.629288 0.265170 0.142308
H16   H     H_    0.488656 0.343563 0.084192 0.134273
H17   H     H_    0.521704 0.281295 0.864011 0.120023
H18   H     H_    0.712996 0.466247 0.114909 0.117725
H19   H     H_    0.396833 0.219084 0.744653 0.111471
H20   H     H_    0.979892 0.255465 0.611676 0.130813
H21   H     H_    0.595241 0.391104 0.999628 0.135736
H22   H     H_    0.378296 0.318933 0.989525 0.114960
H23   H     H_    0.138341 0.184766 0.762253 0.103161
H24   H     H_    0.517996 0.479480 0.179075 0.124767
H25   H     H_    0.815775 0.941779 0.184567 0.125842
H26   H     H_    0.016980 0.057397 0.865273 0.136363
H27   H     H_    0.766971 0.905742 0.679814 0.177418
H28   H     H_    0.985290 0.112731 0.087142 0.114363
H29   H     H_    0.958365 0.048012 0.956162 0.143503
H30   H     H_    0.056628 0.107366 0.204700 0.137765
H31   H     H_    0.728600 0.745023 0.378274 0.127004
H32   H     H_    0.843822 0.084517 0.989590 0.165644
H33   H     H_    0.743872 0.947567 0.066394 0.120400
H34   H     H_    0.095458 0.802035 0.456256 0.129693
H35   H     H_    0.846182 0.137123 0.535326 0.102303
H36   H     H_    0.926280 0.882523 0.237091 0.141912
H37   H     H_    0.289923 0.192933 0.639935 0.117916
H38   H     H_    0.042862 0.178003 0.318078 0.305109
H39   H     H_    0.914095 0.699990 0.561220 0.306441
H40   H     H_    0.834163 0.821824 0.654539 0.328104
H41   H     H_    0.320616 0.168396 0.466721 0.027007
H42   H     H_    0.005667 0.642572 0.775341 0.013446
H43   H     H_    0.471820 0.834857 0.198088 -0.036637
H44   H     H_    0.639447 0.864978 0.295167 0.015857
H45   H     H_    0.038016 0.748112 0.655022 0.194456
H46   H     H_    0.742507 0.853516 0.961748 -0.002878
H47   H     H_    0.670132 0.894553 0.804741 0.314605
H48   H     H_    0.200367 0.333840 0.554119 0.311605
H49   H     H_    0.133868 0.720105 0.487204 0.117111
H50   H     H_    0.192759 0.629937 0.464645 0.138037
H51   H     H_    0.707791 0.865268 0.417922 0.131369
H52   H     H_    0.189665 0.500029 0.463634 0.144691
N1    N     N_R   0.052580 0.056040 0.395500 -0.068979
N2    N     N_R   0.890210 0.849400 0.355780 -0.043593
N3    N     N_R   0.997110 0.161140 0.539580 -0.077907
N4    N     N_R   0.841950 0.845400 0.395490 -0.047203
N5    N     N_R   0.045360 0.165140 0.499870 -0.076393
N6    N     N_R   0.877490 0.041510 0.539580 -0.046809
N7    N     N_R   0.009820 0.969030 0.355780 -0.073329
N8    N     N_R   0.158050 0.154600 0.604510 -0.030790
N9    N     N_R   0.954640 0.834860 0.500130 -0.070888
N10   N     N_R   0.122510 0.958490 0.460420 -0.050082
N11   N     N_R   0.990180 0.030970 0.644220 -0.073441
N12   N     N_R   0.947420 0.943960 0.604500 -0.082183
N13   N     N_R   0.165270 0.045500 0.500140 -0.046731
N14   N     N_R   0.109790 0.150600 0.644220 -0.050198
N15   N     N_R   0.002890 0.838860 0.460420 -0.070439
N16   N     N_R   0.834730 0.954500 0.499860 -0.044863
Ni1   Ni    Ni4+2 0.104370 0.104380 0.500010 0.318891
Ni2   Ni    Ni4+2 0.895630 0.895620 0.499990 0.280322
Ni3   Ni    Ni4+2 0.006300 0.904810 0.408930 0.189680
Ni4   Ni    Ni4+2 0.993700 0.095190 0.591070 0.190567
O1    O     O_3   0.069996 0.171773 0.363631 -0.732099
O2    O     O_3   0.162191 0.277462 0.509707 -0.670029
O3    O     O_3   0.916436 0.754781 0.567614 -0.723794
O4    O     O_3   0.842798 0.834128 0.612585 -0.710470
O5    O     O_2   0.265264 0.213549 0.522905 -0.536447
O6    O     O_2   0.071853 0.753541 0.778941 -0.573357
O7    O     O_2   0.356219 0.755570 0.176959 -0.578229
O8    O     O_2   0.543732 0.793399 0.309665 -0.563651
O9    O     O_2   0.765032 0.812478 0.873018 -0.560315
O10   O     O_3   0.686794 0.885825 0.762410 -0.733332

loop_
_geom_bond_atom_site_label_1
_geom_bond_atom_site_label_2
_ccdc_geom_bond_type
C66   C68   A    
C6    C45   A    
N3    Ni4   S    
C27   C29   A    
C11   C13   A    
C41   C42   A    
C87   H44   S    
C2    C84   S    
C35   C36   A    
C3    C6    A    
C78   N11   A    
N2    Ni3   S    
C39   C41   A    
C53   C54   A    
N14   Ni4   S    
C7    C11   S    
C26   C27   A    
C62   C63   D    
C40   N4    A    
C38   C86   S    
C59   H15   S    
C22   C29   A    
C43   H10   S    
N13   Ni1   S    
N7    Ni3   S    
C30   C31   A    
N4    Ni2   S    
C16   H8    S    
C10   C17   A    
C23   C40   A    
C87   O8    D    
H39   O3    S    
C15   C17   A    
C18   C19   A    
C73   C74   A    
N10   N13   A    
C61   C63   S    
C14   C18   A    
C1    N1    A    
C66   C83   S    
C54   C55   A    
C1    C83   A    
C66   C72   A    
C4    N16   A    
C68   C69   A    
C52   N5    A    
C70   C71   A    
C28   N3    A    
C4    C12   A    
N8    Ni1   S    
C45   H37   S    
N11   Ni4   S    
C9    C82   S    
C28   C34   A    
C59   C60   A    
C19   H52   S    
N9    N15   A    
C13   C14   A    
C78   H12   S    
C76   H36   S    
C60   H24   S    
C18   H50   S    
C7    C56   A    
N1    Ni1   S    
C12   C47   S    
C76   C83   A    
C3    N14   A    
C80   H32   S    
C77   C79   A    
C27   C34   S    
C88   O9    D    
N9    Ni2   S    
C71   H28   S    
C70   C80   S    
C85   O6    D    
N1    N7    A    
N15   Ni3   S    
C16   N2    A    
C86   O7    D    
C24   C25   A    
C58   H14   S    
N3    N5    A    
N6    Ni4   S    
C9    C89   A    
H48   O2    S    
C54   H17   S    
C26   H2    S    
C49   C55   A    
C67   N10   A    
C67   H1    S    
C33   C37   A    
C37   H7    S    
C60   C61   A    
C51   C53   A    
N12   Ni2   S    
C43   C44   A    
C37   C38   A    
C4    H51   S    
C53   C62   S    
C58   C65   A    
C89   N12   A    
C47   C48   A    
C62   H21   S    
H47   O10   S    
C15   C21   A    
C3    H23   S    
C77   O10   S    
C25   C85   S    
C50   C51   A    
C73   C79   A    
C42   C48   A    
N11   N12   A    
C75   C77   A    
C89   O4    S    
C39   C46   A    
C40   H31   S    
C1    O1    S    
C50   H13   S    
C16   C23   A    
C64   N6    A    
C22   C24   A    
C36   C44   A    
C63   H16   S    
C42   C43   A    
C56   N9    A    
N6    N16   A    
C5    C7    A    
C46   C87   S    
C74   C82   A    
N2    N4    A    
C56   O3    S    
C46   C47   A    
C51   H22   S    
C73   H29   S    
C57   H18   S    
C59   C65   A    
C8    C31   S    
C34   C52   A    
C31   C32   A    
C2    C8    A    
C10   H45   S    
C88   H46   S    
C80   C81   D    
C75   C82   A    
C57   C61   A    
N5    Ni1   S    
C30   C36   A    
C28   H20   S    
H38   O1    S    
C5    N15   A    
C48   H9    S    
C5    H34   S    
C79   C81   S    
H40   O4    S    
C55   H19   S    
C17   C25   A    
C13   H49   S    
C23   C65   S    
C19   C20   A    
N8    N14   A    
C71   C72   A    
C30   H5    S    
C64   H35   S    
C24   H4    S    
N10   Ni3   S    
C44   H11   S    
C86   H43   S    
C57   C58   A    
C38   C39   A    
C20   C26   A    
C69   H33   S    
C12   C64   A    
C74   H26   S    
C72   H30   S    
C84   H41   S    
C33   C35   A    
C45   N8    A    
C9    C78   A    
C6    C49   S    
C69   C70   A    
C35   C41   A    
C81   C88   S    
C84   O5    D    
C10   C11   A    
C52   O2    S    
C32   C33   A    
C32   H6    S    
C20   C21   A    
C76   N7    A    
C8    C67   A    
N16   Ni2   S    
C49   C50   A    
C2    N13   A    
C14   C15   A    
C75   H27   S    
C21   C22   A    
C29   H3    S    
C85   H42   S    
C68   H25   S    
