data_mof_unit_56258.cif
_audit_creation_date              2012-12-10T18:33:30-0500
_audit_creation_method            fapswitch 2.2
_symmetry_space_group_name_H-M    P1
_symmetry_Int_Tables_number       1
_space_group_crystal_system       triclinic
_cell_length_a                    8.714873
_cell_length_b                    15.116207
_cell_length_c                    13.985948
_cell_angle_alpha                 88.047955
_cell_angle_beta                  97.964016
_cell_angle_gamma                 93.523256
_cell_volume                      1820.62329081

loop_
_atom_site_label
_atom_site_type_symbol
_atom_type_description
_atom_site_fract_x
_atom_site_fract_y
_atom_site_fract_z
_atom_type_partial_charge
C1    C     C_R   0.513586 0.330332 0.503064 0.789454
C2    C     C_R   0.486414 0.669668 0.496936 0.789455
C3    C     C_R   0.613050 0.547978 0.115504 -0.188123
C4    C     C_R   0.386950 0.452022 0.884496 -0.188123
C5    C     C_R   0.609350 0.551461 0.215775 0.096778
C6    C     C_R   0.390650 0.448539 0.784225 0.096778
C7    C     C_R   0.406789 0.438477 0.202865 0.321594
C8    C     C_R   0.593211 0.561523 0.797135 0.321594
C9    C     C_R   0.422570 0.428493 0.104201 0.041896
C10   C     C_R   0.577430 0.571507 0.895799 0.041896
C11   C     C_R   0.505709 0.495149 0.055238 0.018957
C12   C     C_R   0.494291 0.504851 0.944762 0.018957
C13   C     C_R   0.203932 0.499774 0.475215 0.888361
C14   C     C_R   0.796068 0.500226 0.524785 0.888361
C15   C     C_2   0.037857 0.499487 0.461682 -0.351654
C16   C     C_2   0.962143 0.500512 0.538318 -0.351655
C17   C     C_R   0.534948 0.090126 0.596166 0.165913
C18   C     C_R   0.465052 0.909874 0.403834 0.165913
C19   C     C_R   0.529642 0.182971 0.597215 -0.061596
C20   C     C_R   0.470358 0.817029 0.402784 -0.061596
C21   C     C_R   0.542920 0.234106 0.510629 -0.226714
C22   C     C_R   0.457080 0.765894 0.489371 -0.226714
C23   C     C_R   0.590414 0.191048 0.431994 -0.025891
C24   C     C_R   0.409585 0.808952 0.568006 -0.025890
C25   C     C_R   0.580894 0.098539 0.431571 -0.111198
C26   C     C_R   0.419106 0.901461 0.568429 -0.111198
C27   C     C_R   0.525281 0.048068 0.506632 -0.001377
C28   C     C_R   0.474719 0.951932 0.493368 -0.001376
Cu1   Cu    Cu3+1 0.500000 0.499990 0.596430 0.958191
Cu2   Cu    Cu3+1 0.500000 0.500010 0.403570 0.958191
H1    H     H_    0.977714 0.498280 0.388211 0.198651
H2    H     H_    0.022286 0.501720 0.611789 0.198651
H3    H     H_    0.621848 0.065822 0.373359 0.204372
H4    H     H_    0.378152 0.934178 0.626641 0.204372
H5    H     H_    0.706180 0.584022 0.085460 0.215598
H6    H     H_    0.293820 0.415977 0.914540 0.215598
N1    N     N_R   0.500000 0.500020 0.258690 -0.261561
N2    N     N_R   0.500000 0.499980 0.741310 -0.261561
O1    O     O_R   0.500010 0.371450 0.581430 -0.633275
O2    O     O_R   0.499990 0.628550 0.418570 -0.633276
O3    O     O_R   0.500010 0.371460 0.418560 -0.567017
O4    O     O_R   0.499990 0.628540 0.581440 -0.567018
O5    O     O_R   0.274840 0.499990 0.562640 -0.623727
O6    O     O_R   0.725160 0.500010 0.437360 -0.623726
O7    O     O_R   0.274840 0.500000 0.399770 -0.551217
O8    O     O_R   0.725160 0.500000 0.600230 -0.551217
I1    I     I_    0.629725 0.024071 0.728596 -0.129021
I2    I     I_    0.370275 0.975929 0.271404 -0.129021
C29   C     C_2   0.520691 0.224144 0.690887 0.434307
H7    H     H_    0.599579 0.279632 0.715335 0.100524
O9    O     O_2   0.425657 0.195356 0.742279 -0.478440
C30   C     C_2   0.479309 0.775856 0.309113 0.434306
H8    H     H_    0.400421 0.720368 0.284665 0.100524
O10   O     O_2   0.574344 0.804644 0.257721 -0.478440
C31   C     C_2   0.658999 0.239976 0.352566 0.453461
H9    H     H_    0.714930 0.305598 0.363722 0.082508
O11   O     O_2   0.657076 0.206552 0.274092 -0.480673
C32   C     C_2   0.341001 0.760024 0.647434 0.453460
H10   H     H_    0.285070 0.694402 0.636278 0.082508
O12   O     O_2   0.342924 0.793448 0.725908 -0.480673
C33   C     C_2   0.727520 0.611816 0.271436 0.441018
H11   H     H_    0.716740 0.632094 0.342740 0.129876
O13   O     O_2   0.841930 0.641434 0.236840 -0.532497
C34   C     C_2   0.272480 0.388183 0.728564 0.441018
H12   H     H_    0.283260 0.367906 0.657260 0.129877
O14   O     O_2   0.158071 0.358566 0.763160 -0.532497
I3    I     I_    0.229895 0.354453 0.257437 -0.204591
I4    I     I_    0.770104 0.645547 0.742563 -0.204591
I5    I     I_    0.393985 0.294952 0.052611 -0.112885
I6    I     I_    0.606015 0.705048 0.947389 -0.112886

loop_
_geom_bond_atom_site_label_1
_geom_bond_atom_site_label_2
_ccdc_geom_bond_type
Cu1   N2    S    
C2    C22   S    
C18   C28   A    
C18   I2    S    
C11   C12   S    
C6    N2    A    
Cu2   O3    S    
C1    C21   S    
Cu1   Cu2   S    
C5    N1    A    
Cu1   O4    S    
C16   H2    S    
C19   C29   S    
Cu2   O7    S    
C26   C28   A    
C13   C15   S    
C3    H5    S    
Cu1   O8    S    
C31   H9    S    
C34   H12   S    
Cu1   O1    S    
C25   H3    S    
C4    H6    S    
C7    N1    A    
C3    C5    A    
C5    C33   S    
C23   C31   S    
C20   C30   S    
Cu1   O5    S    
C13   O7    A    
C9    C11   A    
Cu2   O6    S    
C10   C12   A    
C8    N2    A    
C2    O4    A    
C10   I6    S    
C22   C24   A    
C1    O3    A    
C17   C19   A    
C24   C26   A    
C30   O10   D    
C8    I4    S    
C14   O6    A    
C18   C20   A    
C31   O11   D    
C21   C23   A    
C33   H11   S    
C8    C10   A    
C14   C16   S    
C4    C6    A    
C4    C12   A    
C20   C22   A    
C7    I3    S    
C15   C16   D    
C17   C27   A    
C24   C32   S    
C2    O2    A    
C13   O5    A    
C23   C25   A    
C3    C11   A    
C30   H8    S    
C14   O8    A    
C29   H7    S    
C6    C34   S    
C27   C28   S    
C7    C9    A    
Cu2   O2    S    
C1    O1    A    
C19   C21   A    
C32   H10   S    
C32   O12   D    
C15   H1    S    
C26   H4    S    
C33   O13   D    
C17   I1    S    
Cu2   N1    S    
C9    I5    S    
C29   O9    D    
C25   C27   A    
C34   O14   D    
