data_mof_unit_11770.cif
_audit_creation_date              2012-12-11T14:15:46-0500
_audit_creation_method            fapswitch 2.2
_symmetry_space_group_name_H-M    P1
_symmetry_Int_Tables_number       1
_space_group_crystal_system       triclinic
_cell_length_a                    11.156644
_cell_length_b                    12.739667
_cell_length_c                    23.520459
_cell_angle_alpha                 90.391547
_cell_angle_beta                  96.898709
_cell_angle_gamma                 68.6035
_cell_volume                      3087.59189115

loop_
_atom_site_label
_atom_site_type_symbol
_atom_type_description
_atom_site_fract_x
_atom_site_fract_y
_atom_site_fract_z
_atom_type_partial_charge
C1    C     C_R   0.149535 0.616917 0.428982 0.545009
C2    C     C_2   0.181220 0.235020 0.225943 -0.006116
C3    C     C_2   0.155819 0.167417 0.262829 -0.132179
C4    C     C_R   0.750107 0.603776 0.403792 0.542901
C5    C     C_1   0.132343 0.199024 0.320927 -0.035697
C6    C     C_1   0.210523 0.197820 0.169360 -0.056367
C7    C     C_1   0.115900 0.231666 0.368715 0.010299
C8    C     C_1   0.168333 0.750890 0.124068 -0.003019
C9    C     C_2   0.142212 0.694041 0.228889 -0.096754
C10   C     C_2   0.237556 0.678699 0.272307 -0.106200
C11   C     C_1   0.218820 0.654543 0.329860 -0.024715
C12   C     C_R   0.666969 0.555171 0.310035 -0.126167
C13   C     C_1   0.155820 0.723512 0.171427 -0.044401
C14   C     C_1   0.194483 0.636071 0.376616 0.011215
C15   C     C_1   0.619135 0.762948 0.863178 -0.003773
C16   C     C_R   0.101143 0.282010 0.423530 0.551671
C17   C     C_2   0.668251 0.745295 0.755580 -0.004004
C18   C     C_2   0.623756 0.678803 0.721459 -0.127883
C19   C     C_1   0.655180 0.658016 0.663608 -0.032030
C20   C     C_1   0.645142 0.754294 0.814686 -0.054716
C21   C     C_1   0.691345 0.636065 0.617213 0.011876
C22   C     C_R   0.194394 0.184393 0.855807 0.014272
C23   C     C_R   0.714996 0.726880 0.317498 -0.124686
C24   C     C_R   0.104851 0.240336 0.643527 0.019782
C25   C     C_R   0.018968 0.163308 0.715340 -0.131016
C26   C     C_R   0.022256 0.186903 0.657919 -0.115560
C27   C     C_R   0.178742 0.275154 0.686278 -0.113599
C28   C     C_R   0.153337 0.617663 0.589596 0.543847
C29   C     C_R   0.174283 0.254115 0.743154 0.045614
C30   C     C_R   0.096803 0.194786 0.758078 0.042597
C31   C     C_R   0.105294 0.162125 0.815065 -0.124899
C32   C     C_R   0.260057 0.253642 0.841588 -0.124494
C33   C     C_R   0.249932 0.288515 0.785187 -0.129091
C34   C     C_R   0.707241 0.734648 0.257981 0.041981
C35   C     C_R   0.142372 0.767003 0.845119 0.012016
C36   C     C_R   0.209214 0.641795 0.645435 -0.003495
C37   C     C_R   0.307378 0.563554 0.740708 -0.151122
C38   C     C_R   0.294472 0.551658 0.681760 -0.152219
C39   C     C_R   0.153534 0.749123 0.667749 -0.006854
C40   C     C_R   0.749151 0.602177 0.565633 0.545218
C41   C     C_R   0.150930 0.756531 0.726933 0.040061
C42   C     C_R   0.228304 0.662492 0.763650 0.034891
C43   C     C_R   0.225157 0.668987 0.822649 -0.121149
C44   C     C_R   0.058898 0.856515 0.808043 -0.118820
C45   C     C_R   0.688113 0.647333 0.225438 0.044688
C46   C     C_R   0.066419 0.852936 0.749899 -0.112999
C47   C     C_R   0.265932 0.109805 0.069424 0.545111
C48   C     C_R   0.601306 0.774331 0.080894 0.543191
C49   C     C_R   0.189773 0.787887 0.069833 0.547221
C50   C     C_R   0.240278 0.116104 0.908316 0.544944
C51   C     C_R   0.573056 0.777115 0.918053 0.547971
C52   C     C_R   0.099471 0.280539 0.585682 0.548007
C53   C     C_R   0.166483 0.789945 0.905253 0.542613
C54   C     C_R   0.672431 0.752110 0.138582 0.006724
C55   C     C_R   0.700034 0.634408 0.343739 0.008667
C56   C     C_R   0.683430 0.652061 0.166709 -0.114018
C57   C     C_R   0.664921 0.559756 0.251361 -0.139039
C58   C     C_1   0.733005 0.813335 0.733840 0.233786
C59   C     C_1   0.094546 0.849388 0.630050 0.220967
C60   C     C_1   0.183425 0.344152 0.241800 0.227055
C61   C     C_R   0.695969 0.838046 0.170243 -0.132084
C62   C     C_R   0.717612 0.827487 0.230098 -0.139993
C63   C     C_1   0.235895 0.162365 0.122808 -0.007540
Cr1   Cr    Cr6+3 0.189770 0.415650 0.511620 1.036352
Cr2   Cr    Cr6+3 0.930400 0.667320 0.496770 1.053080
Cr3   Cr    Cr6+3 0.879870 0.417010 0.491650 1.036269
Cr4   Cr    Cr6+3 0.149500 0.973980 0.985330 1.025176
Cr5   Cr    Cr6+3 0.457000 0.976510 0.994660 1.030809
Cr6   Cr    Cr6+3 0.411170 0.724270 0.995270 1.024370
H1    H     H_    0.669826 0.583241 0.142800 0.133899
H2    H     H_    0.289915 0.599612 0.851087 0.118305
H3    H     H_    0.689042 0.915743 0.149188 0.136234
H4    H     H_    0.993918 0.933490 0.824151 0.136915
H5    H     H_    0.371073 0.492711 0.768389 0.102641
H6    H     H_    0.003234 0.924973 0.722998 0.136809
H7    H     H_    0.343583 0.469654 0.665137 0.132563
H8    H     H_    0.645456 0.494684 0.226301 0.114102
H9    H     H_    0.732993 0.895033 0.254390 0.113798
H10   H     H_    0.653077 0.483996 0.329163 0.147173
H11   H     H_    0.738540 0.789332 0.343215 0.126070
H12   H     H_    0.051161 0.687152 0.236566 0.153451
H13   H     H_    0.155516 0.085547 0.249729 0.124973
H14   H     H_    0.328475 0.686248 0.265021 0.135149
H15   H     H_    0.570925 0.631930 0.738506 0.128483
H16   H     H_    0.053537 0.109521 0.826410 0.116966
H17   H     H_    0.327204 0.272942 0.873262 0.127752
H18   H     H_    0.956311 0.120746 0.726327 0.107612
H19   H     H_    0.307758 0.335574 0.773997 0.100859
H20   H     H_    0.960200 0.164601 0.624958 0.149210
H21   H     H_    0.237885 0.321569 0.675418 0.126456
N1    N     N_1   0.783576 0.868408 0.715967 -0.312719
N2    N     N_1   0.047755 0.929155 0.599984 -0.307692
N3    N     N_1   0.185197 0.431427 0.254633 -0.306725
O1    O     O_R   0.196340 0.303200 0.448500 -0.499738
O2    O     O_R   0.555390 0.700940 0.062700 -0.521343
O3    O     O_R   0.295020 0.731920 0.049950 -0.492715
O4    O     O_R   0.199310 0.519670 0.454880 -0.490997
O5    O     O_R   0.094290 0.884230 0.921550 -0.521624
O6    O     O_R   0.168980 0.069410 0.926940 -0.507776
O7    O     O_R   0.358400 0.089990 0.927950 -0.512993
O8    O     O_R   0.544850 0.873850 0.939920 -0.490262
O9    O     O_R   0.536020 0.701900 0.936430 -0.511379
O10   O     O_R   0.277070 0.732810 0.932890 -0.502296
O11   O     O_3   0.339220 0.891590 0.991750 -0.248523
O12   O     O_R   0.811960 0.658090 0.547150 -0.485913
O13   O     O_R   0.045660 0.691380 0.441680 -0.508359
O14   O     O_R   0.811930 0.659460 0.430950 -0.503886
O15   O     O_R   0.757900 0.507620 0.421760 -0.518287
O16   O     O_R   0.988630 0.322990 0.439840 -0.494895
O17   O     O_R   0.196380 0.301720 0.573850 -0.519366
O18   O     O_R   0.199350 0.518300 0.571080 -0.511117
O19   O     O_R   0.045700 0.689900 0.567030 -0.489396
O20   O     O_R   0.757930 0.506140 0.547110 -0.509736
O21   O     O_R   0.988670 0.321620 0.556040 -0.497748
O22   O     O_3   0.000020 0.499990 0.500010 -0.255144
O23   O     O_R   0.113660 0.883270 0.047820 -0.506283
O24   O     O_R   0.186930 0.068530 0.043990 -0.495910
O25   O     O_R   0.377770 0.089040 0.054220 -0.510228
O26   O     O_R   0.562800 0.872960 0.056970 -0.499926

loop_
_geom_bond_atom_site_label_1
_geom_bond_atom_site_label_2
_ccdc_geom_bond_type
C24   C52   S    
C37   H5    S    
C8    C13   T    
C31   H16   S    
Cr3   O20   S    
C35   C53   S    
C41   C42   A    
C24   C27   A    
C34   C62   A    
Cr6   O3    S    
C39   C41   A    
C38   H7    S    
Cr6   O9    S    
C28   O19   A    
C26   H20   S    
C48   C54   S    
C4    O15   A    
C45   C57   A    
C50   O6    A    
C29   C30   A    
C22   C32   A    
C48   O2    A    
C33   H19   S    
C24   C26   A    
Cr5   O26   S    
C47   C63   S    
C30   C31   A    
C11   C14   T    
C2    C60   S    
C27   C29   A    
C12   H10   S    
C29   C33   A    
C10   H14   S    
C25   H18   S    
C17   C20   S    
C27   H21   S    
C18   C19   S    
C37   C42   A    
C9    C13   S    
Cr4   O5    S    
Cr5   O25   S    
C47   O25   A    
C45   C56   A    
Cr4   O11   S    
C18   H15   S    
C41   C46   A    
C15   C51   S    
C23   H11   S    
C35   C43   A    
C9    C10   D    
C61   C62   A    
Cr4   O6    S    
C1    O13   A    
C22   C50   S    
C60   N3    T    
C32   H17   S    
Cr3   O16   S    
Cr1   O22   S    
Cr2   O22   S    
C2    C6    S    
Cr2   O12   S    
C46   H6    S    
C44   C46   A    
C16   O16   A    
C48   O26   A    
Cr6   O10   S    
C28   O18   A    
C15   C20   T    
C4    O14   A    
C54   C56   A    
Cr3   O22   S    
C57   H8    S    
Cr5   O8    S    
C22   C31   A    
C1    O4    A    
C5    C7    T    
Cr1   O18   S    
Cr6   O2    S    
C25   C26   A    
C51   O9    A    
C6    C63   T    
Cr4   O23   S    
Cr5   O7    S    
Cr2   O19   S    
C37   C38   A    
Cr1   O17   S    
C40   O20   A    
C52   O17   A    
C23   C34   A    
C39   C59   S    
C3    H13   S    
C17   C18   D    
C34   C45   A    
C35   C44   A    
Cr4   O24   S    
C12   C57   A    
C61   H3    S    
Cr1   O4    S    
C56   H1    S    
C4    C55   S    
C42   C43   A    
Cr2   O13   S    
C58   N1    T    
Cr6   O11   S    
C25   C30   A    
C7    C16   S    
C43   H2    S    
Cr3   O21   S    
C19   C21   T    
C50   O7    A    
C62   H9    S    
C36   C39   A    
Cr5   O11   S    
Cr3   O15   S    
C3    C5    S    
C23   C55   A    
C54   C61   A    
C52   O21   A    
C53   O5    A    
C51   O8    A    
C17   C58   S    
C16   O1    A    
C32   C33   A    
C36   C38   A    
C2    C3    D    
Cr1   O1    S    
C21   C40   S    
C53   O10   A    
C59   N2    T    
C49   O3    A    
C44   H4    S    
C12   C55   A    
C10   C11   S    
C47   O24   A    
C49   O23   A    
C28   C36   S    
C1    C14   S    
C8    C49   S    
Cr2   O14   S    
C9    H12   S    
C40   O12   A    
