data_mof_unit_32671.cif
_audit_creation_date              2012-12-10T17:18:59-0500
_audit_creation_method            fapswitch 2.2
_symmetry_space_group_name_H-M    P1
_symmetry_Int_Tables_number       1
_space_group_crystal_system       triclinic
_cell_length_a                    10.164293
_cell_length_b                    10.78165
_cell_length_c                    13.388501
_cell_angle_alpha                 91.848756
_cell_angle_beta                  100.102748
_cell_angle_gamma                 96.468405
_cell_volume                      1433.24117248

loop_
_atom_site_label
_atom_site_type_symbol
_atom_type_description
_atom_site_fract_x
_atom_site_fract_y
_atom_site_fract_z
_atom_type_partial_charge
C1    C     C_R   0.057045 0.733399 0.500889 0.790169
C2    C     C_2   0.019764 0.070595 0.546394 -0.214441
C3    C     C_2   0.430755 0.514503 0.506277 -0.138720
C4    C     C_2   0.568485 0.491989 0.488205 -0.162762
C5    C     C_R   0.094950 0.517367 0.686872 0.880434
C6    C     C_R   0.906736 0.486978 0.313004 0.935732
C7    C     C_R   0.154681 0.553293 0.793265 -0.167823
C8    C     C_R   0.863173 0.491663 0.203078 -0.162146
C9    C     C_R   0.169258 0.671772 0.952651 -0.289117
C10   C     C_R   0.877631 0.439381 0.028492 -0.230893
C11   C     C_R   0.094739 0.626557 0.857734 0.480459
C12   C     C_R   0.945008 0.266549 0.506140 0.807447
C13   C     C_R   0.929325 0.436215 0.132365 0.428242
C14   C     C_R   0.286982 0.529408 0.824255 -0.325829
C15   C     C_R   0.752993 0.555135 0.169608 -0.305840
C16   C     C_R   0.367734 0.588705 0.911315 0.027094
C17   C     C_R   0.699362 0.558227 0.066309 0.038961
C18   C     C_R   0.306569 0.656581 0.979062 0.041611
C19   C     C_R   0.761570 0.496854 0.994835 0.065381
C20   C     C_R   0.506125 0.574626 0.934726 0.035850
C21   C     C_R   0.576101 0.607214 0.034013 0.039419
C22   C     C_3   0.152532 0.413035 0.143231 0.102027
C23   C     C_R   0.516720 0.681145 0.099027 -0.328064
C24   C     C_3   0.254341 0.319441 0.168301 -0.316110
C25   C     C_3   0.395540 0.374232 0.156852 -0.960369
C26   C     C_3   0.951118 0.760562 0.783669 0.129994
C27   C     C_3   0.962823 0.870922 0.861333 -0.393098
C28   C     C_3   0.917092 0.987231 0.810687 -0.948974
C29   C     C_3   0.675810 0.119520 0.495624 0.101163
C30   C     C_3   0.670589 0.130304 0.609648 -0.366295
C31   C     C_3   0.553292 0.198452 0.629141 -0.936778
C32   C     C_3   0.319488 0.886023 0.602082 0.073883
C33   C     C_3   0.309513 0.953932 0.702739 -0.406932
C34   C     C_R   0.575619 0.526386 0.862353 -0.358635
C35   C     C_3   0.416696 0.920892 0.789349 -0.921491
C36   C     C_R   0.383075 0.706875 0.071889 0.435267
C37   C     C_R   0.702926 0.487706 0.891590 0.492946
C38   C     C_2   0.097808 0.867576 0.521931 0.313971
C39   C     C_2   0.913671 0.132269 0.515712 0.301364
C40   C     C_2   0.002061 0.936061 0.541213 -0.226464
H1    H     H_    0.704477 0.594521 0.226445 0.183685
H2    H     H_    0.421749 0.590299 0.559032 0.153485
H3    H     H_    0.665707 0.620109 0.592950 0.153006
H4    H     H_    0.335465 0.373729 0.413047 0.166588
H5    H     H_    0.391292 0.804154 0.198629 0.339521
H6    H     H_    0.714135 0.437221 0.752386 0.338562
H7    H     H_    0.188290 0.501162 0.190748 0.174814
H8    H     H_    0.145873 0.433224 0.061560 0.132748
H9    H     H_    0.256274 0.290909 0.247387 0.227657
H10   H     H_    0.222634 0.234506 0.116588 0.232140
H11   H     H_    0.396285 0.398169 0.076952 0.277756
H12   H     H_    0.326523 0.463712 0.778263 0.187915
H13   H     H_    0.466859 0.304388 0.177091 0.269310
H14   H     H_    0.429697 0.459148 0.208137 0.267568
H15   H     H_    0.850082 0.752192 0.734486 0.166427
H16   H     H_    0.025375 0.778415 0.732124 0.087437
H17   H     H_    0.899844 0.845269 0.919276 0.246716
H18   H     H_    0.069165 0.893663 0.900048 0.222711
H19   H     H_    0.978271 0.014772 0.752236 0.261040
H20   H     H_    0.929516 0.065756 0.868595 0.280750
H21   H     H_    0.809289 0.968942 0.774952 0.256832
H22   H     H_    0.585024 0.056531 0.458653 0.164708
H23   H     H_    0.119803 0.720792 0.004504 0.205678
H24   H     H_    0.665491 0.208265 0.457267 0.159081
H25   H     H_    0.658238 0.034796 0.637906 0.204169
H26   H     H_    0.765175 0.181559 0.653270 0.238143
H27   H     H_    0.570963 0.297760 0.611233 0.268246
H28   H     H_    0.544578 0.194680 0.710528 0.273691
H29   H     H_    0.457570 0.154999 0.581580 0.271380
H30   H     H_    0.422374 0.910965 0.585896 0.171563
H31   H     H_    0.308497 0.783320 0.610371 0.137309
H32   H     H_    0.321452 0.056511 0.694922 0.235183
H33   H     H_    0.209176 0.927036 0.722629 0.209835
H34   H     H_    0.923398 0.389232 0.974844 0.197950
H35   H     H_    0.405146 0.818528 0.798921 0.267778
H36   H     H_    0.405531 0.969411 0.861276 0.274852
H37   H     H_    0.518970 0.950669 0.773655 0.262485
H38   H     H_    0.573088 0.721289 0.170827 0.149752
H39   H     H_    0.532229 0.517905 0.782425 0.138012
H40   H     H_    0.120912 0.118791 0.570362 0.175005
H41   H     H_    0.902024 0.892444 0.546693 0.198888
H42   H     H_    0.576845 0.420516 0.431495 0.165640
N1    N     N_2   0.322180 0.446120 0.460900 -0.182343
N2    N     N_2   0.677820 0.553880 0.539100 -0.189256
O1    O     O_R   0.935190 0.693030 0.507870 -0.638459
O2    O     O_3   0.767305 0.433614 0.821549 -0.749565
O3    O     O_3   0.027696 0.360190 0.164809 -0.633350
O4    O     O_3   0.961284 0.646663 0.832504 -0.609901
O5    O     O_3   0.788782 0.063695 0.476007 -0.650962
O6    O     O_3   0.227273 0.923043 0.519316 -0.630066
O7    O     O_R   0.064810 0.306970 0.492130 -0.606986
O8    O     O_R   0.142080 0.658430 0.482770 -0.592425
O9    O     O_R   0.857920 0.341570 0.517230 -0.614171
O10   O     O_R   0.969700 0.527180 0.651960 -0.558897
O11   O     O_R   0.030300 0.472820 0.348040 -0.561608
O12   O     O_R   0.176600 0.492580 0.626860 -0.625994
O13   O     O_R   0.823400 0.507420 0.373140 -0.613255
O14   O     O_3   0.324594 0.777417 0.136189 -0.786239
Zn1   Zn    Zn3+2 0.861850 0.523100 0.516760 0.934805
Zn2   Zn    Zn3+2 0.138150 0.476900 0.483240 0.952031

loop_
_geom_bond_atom_site_label_1
_geom_bond_atom_site_label_2
_ccdc_geom_bond_type
C22   H8    S    
C3    H2    S    
C8    C13   A    
C34   C37   A    
C12   O7    A    
H4    N1    S    
C26   H15   S    
C29   O5    S    
C5    O10   A    
C7    C11   A    
C35   H35   S    
C26   C27   S    
C25   H13   S    
H5    O14   S    
C30   C31   S    
C19   C37   A    
C33   H32   S    
C17   C19   A    
C2    C39   D    
C7    C14   A    
C14   H12   S    
O7    Zn2   S    
O9    Zn1   S    
C20   C34   A    
C28   H21   S    
C22   H7    S    
C29   H24   S    
C1    O1    A    
H3    N2    S    
O13   Zn1   S    
C32   H31   S    
C28   H20   S    
C24   H10   S    
C31   H28   S    
C32   O6    S    
C35   H36   S    
C6    O13   A    
C37   O2    S    
C25   H14   S    
C15   H1    S    
C27   H17   S    
C5    C7    S    
O11   Zn2   S    
C32   H30   S    
C35   H37   S    
C17   C21   A    
C31   H27   S    
C25   H11   S    
C29   C30   S    
O1    Zn1   S    
C34   H39   S    
C4    N2    D    
C10   C19   A    
C16   C20   A    
C13   O3    S    
C22   O3    S    
C24   C25   S    
C9    C11   A    
C30   H26   S    
C1    C38   S    
C33   H33   S    
C23   C36   A    
C8    C15   A    
N1    Zn2   S    
C21   C23   A    
C3    N1    D    
C14   C16   A    
C12   O9    A    
C11   O4    S    
C3    C4    S    
C5    O12   A    
O8    Zn2   S    
C28   H19   S    
C24   H9    S    
C15   C17   A    
C29   H22   S    
C9    H23   S    
N2    Zn1   S    
C40   H41   S    
C10   C13   A    
C26   H16   S    
C6    C8    S    
C1    O8    A    
C38   O6    S    
C32   C33   S    
C12   C39   S    
C38   C40   D    
C10   H34   S    
O10   Zn1   S    
C27   H18   S    
O12   Zn2   S    
C33   C35   S    
C22   C24   S    
C23   H38   S    
C30   H25   S    
C2    H40   S    
C26   O4    S    
C2    C40   S    
C9    C18   A    
C31   H29   S    
C4    H42   S    
C20   C21   A    
C16   C18   A    
C6    O11   A    
C27   C28   S    
C36   O14   S    
C18   C36   A    
C39   O5    S    
H6    O2    S    
