data_mof_unit_37547.cif
_audit_creation_date              2012-12-10T17:47:44-0500
_audit_creation_method            fapswitch 2.2
_symmetry_space_group_name_H-M    P1
_symmetry_Int_Tables_number       1
_space_group_crystal_system       triclinic
_cell_length_a                    10.655663
_cell_length_b                    10.651627
_cell_length_c                    9.918337
_cell_angle_alpha                 89.892814
_cell_angle_beta                  90.027348
_cell_angle_gamma                 91.135378
_cell_volume                      1125.50961843

loop_
_atom_site_label
_atom_site_type_symbol
_atom_type_description
_atom_site_fract_x
_atom_site_fract_y
_atom_site_fract_z
_atom_type_partial_charge
C1    C     C_R   0.503569 0.260600 0.500439 0.889919
C2    C     C_R   0.604664 0.067327 0.578969 0.111629
C3    C     C_R   0.512571 0.128343 0.501391 -0.094007
C4    C     C_R   0.257838 0.499311 0.499706 0.833431
C5    C     C_R   0.426739 0.062705 0.421141 -0.221137
C6    C     C_R   0.427055 0.934505 0.420541 -0.201398
C7    C     C_R   0.513962 0.871846 0.499240 -0.105365
C8    C     C_R   0.336196 0.336152 0.140092 -0.175149
C9    C     C_R   0.254834 0.256020 0.070153 -0.151637
C10   C     C_R   0.254775 0.256007 0.930639 -0.185539
C11   C     C_R   0.336120 0.336092 0.860348 -0.167520
C12   C     C_3   0.878672 0.488806 0.496750 0.036539
C13   C     C_R   0.419236 0.419272 0.927836 0.171547
C14   C     C_R   0.419264 0.419316 0.072356 0.179591
C15   C     C_R   0.577672 0.576779 0.071371 -0.076786
C16   C     C_R   0.504265 0.739405 0.499828 0.865003
C17   C     C_R   0.577610 0.576784 0.928281 -0.104790
C18   C     C_R   0.741928 0.492957 0.499437 0.870640
C19   C     C_3   0.071970 0.385247 0.586349 -0.402071
C20   C     C_3   0.927975 0.386107 0.592710 -0.365717
C21   C     C_3   0.072276 0.620536 0.555678 -0.392418
C22   C     C_3   0.072388 0.481892 0.351234 -0.431724
C23   C     C_3   0.928559 0.618941 0.546993 -0.503690
C24   C     C_3   0.121413 0.496413 0.498327 0.115247
C25   C     C_3   0.929673 0.464084 0.350346 0.354098
C26   C     C_R   0.696426 0.133266 0.655847 -0.153650
C27   C     C_R   0.788351 0.069253 0.726779 -0.122995
C28   C     C_R   0.791363 0.938982 0.721804 -0.134112
C29   C     C_R   0.701716 0.872417 0.646950 -0.198728
C30   C     C_R   0.606413 0.935786 0.576137 0.098448
H1    H     H_    0.109390 0.392492 0.690814 0.181756
H2    H     H_    0.357332 0.883766 0.361070 0.157745
H3    H     H_    0.641180 0.639529 0.124969 0.139881
H4    H     H_    0.104020 0.294710 0.544009 0.192194
H5    H     H_    0.330967 0.330267 0.246887 0.193777
H6    H     H_    0.191578 0.193471 0.124746 0.188404
H7    H     H_    0.191455 0.193443 0.876324 0.152070
H8    H     H_    0.330952 0.330022 0.753525 0.201300
H9    H     H_    0.641033 0.639597 0.874450 0.141647
H10   H     H_    0.890166 0.292279 0.564086 0.214553
H11   H     H_    0.897659 0.404433 0.698146 0.186643
H12   H     H_    0.891343 0.535778 0.280447 0.081880
H13   H     H_    0.102071 0.632024 0.662655 0.196170
H14   H     H_    0.890258 0.640133 0.648650 0.195795
H15   H     H_    0.098189 0.567395 0.291674 0.149920
H16   H     H_    0.118810 0.402379 0.300596 0.219275
H17   H     H_    0.732121 0.179772 0.277414 0.381140
H18   H     H_    0.111292 0.702158 0.497982 0.165266
H19   H     H_    0.897842 0.694305 0.477100 0.170687
H20   H     H_    0.357058 0.110917 0.361671 0.150589
H21   H     H_    0.699813 0.234319 0.660957 0.159020
H22   H     H_    0.858313 0.121081 0.784470 0.149322
H23   H     H_    0.863772 0.889326 0.775369 0.135053
H24   H     H_    0.709355 0.771624 0.643605 0.142451
N1    N     N_R   0.498810 0.498800 0.142780 -0.115515
N2    N     N_R   0.498760 0.498720 0.857170 -0.123769
O1    O     O_R   0.500000 0.316780 0.614690 -0.656164
O2    O     O_2   0.978144 0.213410 0.328950 -0.360579
O3    O     O_3   0.742625 0.263821 0.318951 -0.549093
O4    O     O_R   0.499990 0.316750 0.385360 -0.592370
O5    O     O_R   0.314800 0.499990 0.614670 -0.640547
O6    O     O_R   0.314790 0.499970 0.385330 -0.651324
O7    O     O_R   0.500010 0.683250 0.614640 -0.616389
O8    O     O_R   0.500000 0.683220 0.385310 -0.619988
O9    O     O_R   0.685210 0.500030 0.614670 -0.643657
O10   O     O_R   0.685200 0.500010 0.385330 -0.577979
O11   O     O_2   0.899579 0.320152 0.128436 -0.316343
S1    S     S_3+6 0.889053 0.311031 0.279269 -0.020787
Zn1   Zn    Zn3+2 0.500010 0.500020 0.653130 0.928264
Zn2   Zn    Zn3+2 0.499990 0.499980 0.346870 0.972044

loop_
_geom_bond_atom_site_label_1
_geom_bond_atom_site_label_2
_ccdc_geom_bond_type
C25   H12   S    
C9    H6    S    
C6    H2    S    
C28   H23   S    
C6    C7    A    
C16   O7    A    
O8    Zn2   S    
O3    S1    S    
C11   H8    S    
C29   C30   A    
C9    C10   A    
C8    H5    S    
C19   C20   S    
C12   C23   S    
O4    Zn2   S    
C12   C25   S    
C2    C30   A    
C21   H18   S    
C19   H1    S    
C13   N2    A    
C14   N1    A    
C3    C5    A    
C2    C26   A    
C7    C30   A    
O5    Zn1   S    
C13   C14   A    
C18   O9    A    
C11   C13   A    
C17   N2    A    
C12   C20   S    
C26   C27   A    
O10   Zn2   S    
C25   S1    S    
C10   H7    S    
O9    Zn1   S    
O2    S1    D    
C7    C16   S    
C22   H16   S    
C22   C25   S    
C20   H11   S    
C2    C3    A    
C21   C23   S    
C17   H9    S    
C5    C6    A    
C20   H10   S    
C22   C24   S    
C5    H20   S    
C23   H19   S    
N1    Zn2   S    
C18   O10   A    
C10   C11   A    
C21   C24   S    
H17   O3    S    
O11   S1    D    
C4    O6    A    
C22   H15   S    
C27   H22   S    
O6    Zn2   S    
N2    Zn1   S    
C29   H24   S    
C1    O4    A    
C12   C18   S    
C27   C28   A    
C15   C17   A    
C4    C24   S    
C28   C29   A    
C8    C14   A    
C16   O8    A    
O1    Zn1   S    
C26   H21   S    
C19   C24   S    
C4    O5    A    
C15   H3    S    
C21   H13   S    
C23   H14   S    
O7    Zn1   S    
C15   N1    A    
C8    C9    A    
C1    C3    S    
C19   H4    S    
C1    O1    A    
