data_mof_unit_52458.cif
_audit_creation_date              2012-12-10T20:28:47-0500
_audit_creation_method            fapswitch 2.2
_symmetry_space_group_name_H-M    P1
_symmetry_Int_Tables_number       1
_space_group_crystal_system       triclinic
_cell_length_a                    10.816138
_cell_length_b                    10.656145
_cell_length_c                    9.86406
_cell_angle_alpha                 88.04823
_cell_angle_beta                  92.061771
_cell_angle_gamma                 92.475573
_cell_volume                      1134.51704974

loop_
_atom_site_label
_atom_site_type_symbol
_atom_type_description
_atom_site_fract_x
_atom_site_fract_y
_atom_site_fract_z
_atom_type_partial_charge
C1    C     C_R   0.493888 0.260165 0.501683 0.876829
C2    C     C_R   0.066742 0.417964 0.587391 0.130854
C3    C     C_R   0.129133 0.493231 0.490562 -0.142740
C4    C     C_R   0.065754 0.565327 0.391198 -0.139771
C5    C     C_R   0.937389 0.559641 0.389933 -0.106097
C6    C     C_R   0.875710 0.506589 0.505986 -0.161277
C7    C     C_R   0.391543 0.054184 0.529083 0.144898
C8    C     C_R   0.497505 0.128370 0.503460 -0.110799
C9    C     C_R   0.604294 0.076371 0.459422 -0.226093
C10   C     C_R   0.612176 0.946685 0.458060 -0.061573
C11   C     C_R   0.506320 0.871868 0.493506 -0.179660
C12   C     C_R   0.260853 0.499077 0.497210 0.908353
C13   C     C_R   0.396642 0.925645 0.524649 0.130237
C14   C     C_3   0.326238 0.903871 0.651599 -0.243646
C15   C     C_3   0.318524 0.044999 0.655288 -0.592851
C16   C     C_R   0.432460 0.410693 0.071120 0.157765
C17   C     C_R   0.553680 0.597285 0.070735 0.005724
C18   C     C_R   0.553516 0.597474 0.926565 -0.010138
C19   C     C_R   0.428231 0.413762 0.929043 0.186594
C20   C     C_3   0.428007 0.274633 0.922558 -0.591737
C21   C     C_3   0.440717 0.269494 0.077597 -0.153602
C22   C     C_R   0.505442 0.739674 0.498223 0.959531
C23   C     C_R   0.741045 0.501398 0.502416 0.921780
C24   C     C_R   0.124836 0.318723 0.659837 -0.137295
C25   C     C_R   0.066095 0.253910 0.765108 -0.120063
C26   C     C_R   0.955633 0.296031 0.809003 -0.180006
C27   C     C_R   0.898752 0.397563 0.740910 -0.146354
C28   C     C_R   0.944693 0.444003 0.613364 0.063567
H1    H     H_    0.336732 0.238224 0.882364 0.193874
H2    H     H_    0.509056 0.241820 0.869505 0.220147
N1    N     N_R   0.499160 0.499140 0.142800 -0.099939
N2    N     N_R   0.499160 0.499180 0.857150 -0.102491
O1    O     O_R   0.500020 0.316790 0.614690 -0.645501
O2    O     O_R   0.500000 0.316760 0.385350 -0.598390
O3    O     O_R   0.316770 0.500020 0.614690 -0.603362
O4    O     O_R   0.316760 0.499980 0.385350 -0.594610
O5    O     O_R   0.500000 0.683240 0.614650 -0.634028
O6    O     O_R   0.499980 0.683210 0.385310 -0.603292
O7    O     O_R   0.683240 0.500020 0.614650 -0.625434
O8    O     O_R   0.683230 0.499980 0.385310 -0.575073
Zn1   Zn    Zn3+2 0.500010 0.500020 0.653130 0.987885
Zn2   Zn    Zn3+2 0.499990 0.499980 0.346870 1.058255
C29   C     C_2   0.132531 0.641584 0.284643 0.986178
O9    O     O_2   0.204220 0.728109 0.317130 -0.609607
O10   O     O_R   0.114788 0.612353 0.147984 -0.755912
H3    H     H_    0.166011 0.669815 0.085776 0.358536
H4    H     H_    0.383809 0.864291 0.737315 0.173326
H5    H     H_    0.223468 0.078265 0.637575 0.229071
H6    H     H_    0.370842 0.084300 0.743507 0.218836
H7    H     H_    0.600077 0.673766 0.124192 0.139343
H8    H     H_    0.600741 0.673704 0.871559 0.163702
C30   C     C_2   0.332086 0.201721 0.144493 0.918267
O11   O     O_2   0.265253 0.257828 0.217137 -0.609388
O12   O     O_R   0.308837 0.073644 0.123480 -0.752303
H9    H     H_    0.234738 0.037936 0.174307 0.366258
C31   C     C_2   0.564163 0.218187 0.125189 0.925575
O13   O     O_2   0.647774 0.287477 0.170155 -0.547097
O14   O     O_R   0.582958 0.090012 0.114005 -0.775060
H10   H     H_    0.668876 0.066164 0.147079 0.359434
H11   H     H_    0.215592 0.290407 0.634325 0.133015
H12   H     H_    0.111312 0.178213 0.820345 0.154890
H13   H     H_    0.922117 0.256977 0.904257 0.172402
C32   C     C_2   0.826763 0.475328 0.828429 1.051021
O15   O     O_2   0.840716 0.589712 0.821713 -0.553768
O16   O     O_R   0.746501 0.419873 0.923011 -0.738400
H14   H     H_    0.728355 0.327111 0.909259 0.292107
C33   C     C_2   0.872510 0.605275 0.263196 1.023945
O17   O     O_2   0.832043 0.529281 0.180928 -0.514958
O18   O     O_R   0.868960 0.733732 0.231938 -0.803104
H15   H     H_    0.826824 0.752322 0.140435 0.347979
H16   H     H_    0.683772 0.137562 0.435040 0.201214
C34   C     C_2   0.734983 0.895863 0.434945 0.938929
O19   O     O_2   0.760273 0.791064 0.478443 -0.648061
O20   O     O_R   0.824925 0.971936 0.369646 -0.785318
H17   H     H_    0.907688 0.931450 0.366698 0.393042
C35   C     C_2   0.203615 0.833862 0.629918 1.006075
O21   O     O_2   0.178994 0.740321 0.700637 -0.608589
O22   O     O_R   0.117864 0.875846 0.531006 -0.769083
H18   H     H_    0.039370 0.820335 0.527905 0.357032

loop_
_geom_bond_atom_site_label_1
_geom_bond_atom_site_label_2
_ccdc_geom_bond_type
C32   O16   S    
C16   C21   S    
N1    Zn2   S    
C1    C8    S    
O4    Zn2   S    
C19   C20   S    
O2    Zn2   S    
C5    C33   S    
C1    O1    A    
C7    C8    A    
O7    Zn1   S    
C20   H2    S    
O10   H3    S    
C16   N1    A    
C26   C27   A    
C35   O22   S    
O6    Zn2   S    
C5    C6    A    
C23   O8    A    
C22   O6    A    
C31   O13   D    
C3    C12   S    
C6    C28   A    
C8    C9    A    
C1    O2    A    
N2    Zn1   S    
C12   O4    A    
C9    C10   A    
C7    C15   S    
C13   C14   S    
C15   H5    S    
C19   N2    A    
C25   C26   A    
C30   O12   S    
C18   H8    S    
C20   H1    S    
O20   H17   S    
C33   O17   D    
C24   C25   A    
C34   O20   S    
O22   H18   S    
C4    C5    A    
O14   H10   S    
C22   O5    A    
C33   O18   S    
C14   C35   S    
C29   O9    D    
C24   H11   S    
C17   C18   A    
C25   H12   S    
C35   O21   D    
C12   O3    A    
C29   O10   S    
C27   C32   S    
C2    C24   A    
C17   N1    A    
C18   N2    A    
C3    C4    A    
C30   O11   D    
O12   H9    S    
C9    H16   S    
C34   O19   D    
C17   H7    S    
C21   C31   S    
C14   H4    S    
C4    C29   S    
C11   C22   S    
O1    Zn1   S    
C2    C3    A    
C26   H13   S    
C11   C13   A    
C16   C19   A    
C23   O7    A    
C6    C23   S    
O8    Zn2   S    
C31   O14   S    
C15   H6    S    
O5    Zn1   S    
O18   H15   S    
O3    Zn1   S    
C10   C11   A    
C32   O15   D    
C7    C13   A    
C20   C21   S    
O16   H14   S    
C27   C28   A    
C14   C15   S    
C2    C28   A    
C21   C30   S    
C10   C34   S    
