data_mof_unit_55392.cif
_audit_creation_date              2012-12-10T17:09:20-0500
_audit_creation_method            fapswitch 2.2
_symmetry_space_group_name_H-M    P1
_symmetry_Int_Tables_number       1
_space_group_crystal_system       triclinic
_cell_length_a                    17.939075
_cell_length_b                    18.664592
_cell_length_c                    11.788994
_cell_angle_alpha                 91.725392
_cell_angle_beta                  74.992271
_cell_angle_gamma                 89.922726
_cell_volume                      3810.71909239

loop_
_atom_site_label
_atom_site_type_symbol
_atom_type_description
_atom_site_fract_x
_atom_site_fract_y
_atom_site_fract_z
_atom_type_partial_charge
C1    C     C_R   0.399125 0.101044 0.524678 0.781504
C2    C     C_R   0.599187 0.897467 0.476057 0.905946
C3    C     C_R   0.602407 0.098158 0.478463 0.774535
C4    C     C_R   0.396809 0.902473 0.521472 0.918326
C5    C     C_R   0.904863 0.605325 0.522241 0.823149
C6    C     C_R   0.100812 0.398794 0.475413 0.893776
C7    C     C_R   0.103346 0.596728 0.478253 0.765037
C8    C     C_R   0.895305 0.404348 0.522100 0.954091
C9    C     C_R   0.537548 0.005170 0.961856 -0.018356
C10   C     C_R   0.463010 0.994332 0.038233 -0.075207
C11   C     C_R   0.037786 0.507625 0.961584 -0.002008
C12   C     C_R   0.963040 0.499298 0.037996 -0.120630
C13   C     C_R   0.410661 0.986395 0.864289 0.080693
C14   C     C_R   0.590417 0.008374 0.135635 -0.022912
C15   C     C_R   0.909316 0.495195 0.865475 0.085581
C16   C     C_R   0.089742 0.513057 0.136401 0.012262
C17   C     C_R   0.399403 0.983442 0.986122 -0.091038
C18   C     C_R   0.601927 0.011660 0.013923 -0.087424
C19   C     C_R   0.897831 0.498369 0.987870 -0.112794
C20   C     C_R   0.101857 0.514922 0.014225 -0.103667
C21   C     C_R   0.543821 0.009446 0.837728 0.112425
C22   C     C_R   0.455803 0.994218 0.162852 0.158126
C23   C     C_R   0.044176 0.509517 0.837194 0.114395
C24   C     C_R   0.956395 0.491912 0.161339 0.140706
C25   C     C_R   0.660612 0.153786 0.465835 -0.144177
C26   C     C_R   0.334409 0.850695 0.532630 -0.142449
C27   C     C_R   0.342710 0.161097 0.546038 -0.159119
C28   C     C_R   0.657186 0.838636 0.455143 -0.134324
C29   C     C_R   0.166810 0.646347 0.465086 -0.123513
C30   C     C_R   0.830988 0.355160 0.534776 -0.115302
C31   C     C_R   0.857947 0.672618 0.536610 -0.173300
C32   C     C_R   0.157009 0.338432 0.454209 -0.117255
C33   C     C_R   0.199822 0.817562 0.609198 0.178160
C34   C     C_R   0.778032 0.207784 0.355822 0.142310
C35   C     C_R   0.790010 0.808520 0.357135 0.144908
C36   C     C_R   0.226851 0.225746 0.659408 0.123747
C37   C     C_R   0.699145 0.319965 0.629659 0.167859
C38   C     C_R   0.300002 0.678970 0.381978 0.143809
C39   C     C_R   0.275818 0.277218 0.342605 0.151211
C40   C     C_R   0.742849 0.733289 0.656100 0.141028
C41   C     C_R   0.258742 0.868633 0.599693 0.092976
C42   C     C_R   0.729658 0.148107 0.375125 0.153896
C43   C     C_R   0.718284 0.835852 0.351083 0.059311
C44   C     C_R   0.284776 0.172914 0.654331 0.119517
C45   C     C_R   0.758311 0.371822 0.613856 0.080115
C46   C     C_R   0.242244 0.625946 0.401477 0.124111
C47   C     C_R   0.215356 0.327261 0.346013 0.069735
C48   C     C_R   0.814752 0.698538 0.648731 0.099225
C49   C     C_R   0.350455 0.783174 0.474862 -0.091828
C50   C     C_R   0.644318 0.216205 0.538821 -0.034508
C51   C     C_R   0.658384 0.791538 0.545751 -0.064496
C52   C     C_R   0.348794 0.210406 0.457005 -0.061068
C53   C     C_R   0.840757 0.292969 0.462025 -0.095339
C54   C     C_R   0.150957 0.715644 0.513161 -0.065749
C55   C     C_R   0.152056 0.289290 0.543780 -0.089788
C56   C     C_R   0.852655 0.710690 0.437019 -0.066297
C57   C     C_R   0.288640 0.740036 0.460980 -0.025556
C58   C     C_R   0.704738 0.264739 0.541059 0.042503
C59   C     C_R   0.729239 0.759709 0.550155 -0.033640
C60   C     C_R   0.282520 0.248459 0.450108 0.052337
C61   C     C_R   0.774563 0.256419 0.451113 -0.046843
C62   C     C_R   0.212489 0.758299 0.527920 0.046777
C63   C     C_R   0.219636 0.254052 0.551666 -0.043739
C64   C     C_R   0.792147 0.760915 0.448082 -0.006152
Cu1   Cu    Cu3+1 0.507800 0.000000 0.383250 0.953839
Cu2   Cu    Cu3+1 0.492200 0.000000 0.616750 0.957551
Cu3   Cu    Cu3+1 0.007800 0.500000 0.383250 0.999781
Cu4   Cu    Cu3+1 0.992200 0.500000 0.616750 0.954861
H1    H     H_    0.638958 0.012982 0.173985 0.113019
H2    H     H_    0.362527 0.978013 0.826329 0.131812
H3    H     H_    0.137816 0.520256 0.175244 0.116737
H4    H     H_    0.860421 0.493481 0.827841 0.146881
N1    N     N_R   0.519530 0.000000 0.207810 -0.204159
N2    N     N_R   0.480470 0.000000 0.792190 -0.231221
N3    N     N_R   0.019530 0.500000 0.207810 -0.188804
N4    N     N_R   0.980470 0.500000 0.792190 -0.236504
O1    O     O_R   0.430030 0.075530 0.417420 -0.560873
O2    O     O_R   0.569970 0.924470 0.582580 -0.574151
O3    O     O_R   0.569970 0.075530 0.582580 -0.586523
O4    O     O_R   0.430030 0.924470 0.417420 -0.578684
O5    O     O_R   0.930030 0.575530 0.417420 -0.501851
O6    O     O_R   0.069970 0.424470 0.582580 -0.579666
O7    O     O_R   0.069970 0.575530 0.582580 -0.591702
O8    O     O_R   0.930030 0.424470 0.417420 -0.554785
O9    O     O_R   0.416860 0.075510 0.614610 -0.595597
O10   O     O_R   0.583140 0.924490 0.385390 -0.595734
O11   O     O_R   0.583140 0.075510 0.385390 -0.604890
O12   O     O_R   0.416860 0.924490 0.614610 -0.569920
O13   O     O_R   0.916860 0.575510 0.614610 -0.634164
O14   O     O_R   0.083140 0.424490 0.385390 -0.588722
O15   O     O_R   0.083140 0.575510 0.385390 -0.571881
O16   O     O_R   0.916860 0.424490 0.614610 -0.571752
C65   C     C_2   0.379192 0.991168 0.245922 0.392967
H5    H     H_    0.354346 0.939819 0.274967 0.081528
O17   O     O_2   0.340942 0.045881 0.276036 -0.605123
C66   C     C_2   0.618364 0.025811 0.756367 0.488200
H6    H     H_    0.650286 0.984839 0.696118 0.083614
O18   O     O_2   0.644836 0.086116 0.756007 -0.590310
C67   C     C_2   0.883077 0.466393 0.236674 0.396012
H7    H     H_    0.863666 0.412741 0.221585 0.057959
O19   O     O_2   0.841682 0.505807 0.311236 -0.576011
C68   C     C_2   0.118579 0.526201 0.755488 0.497033
H8    H     H_    0.150066 0.486127 0.693164 0.075323
O20   O     O_2   0.145007 0.586492 0.755909 -0.574571
C69   C     C_2   0.562640 0.233333 0.598225 0.349307
H9    H     H_    0.531127 0.201725 0.670535 0.095935
O21   O     O_2   0.529316 0.281277 0.562512 -0.524449
C70   C     C_2   0.430174 0.753007 0.446632 0.402644
H10   H     H_    0.438890 0.698381 0.469968 0.069681
O22   O     O_2   0.485905 0.787084 0.394574 -0.548481
C71   C     C_2   0.426956 0.233302 0.390751 0.438842
H11   H     H_    0.474054 0.195249 0.360658 0.092537
O23   O     O_2   0.440720 0.296887 0.376075 -0.510884
C72   C     C_2   0.584486 0.758453 0.609649 0.382009
H12   H     H_    0.583914 0.702100 0.629867 0.054945
O24   O     O_2   0.523718 0.791974 0.637447 -0.525032
C73   C     C_2   0.071773 0.745476 0.530965 0.416735
H13   H     H_    0.021619 0.714240 0.571686 0.055335
O25   O     O_2   0.062271 0.804068 0.493347 -0.541225
C74   C     C_2   0.918648 0.258966 0.409892 0.348875
H14   H     H_    0.922736 0.205180 0.371474 0.068885
O26   O     O_2   0.978874 0.288444 0.411754 -0.544465
C75   C     C_2   0.905518 0.694092 0.319602 0.443969
H15   H     H_    0.881962 0.682576 0.245024 0.048372
O27   O     O_2   0.975452 0.695540 0.304991 -0.523653
C76   C     C_2   0.075787 0.260977 0.609890 0.427048
H16   H     H_    0.072617 0.206522 0.640492 0.045419
O28   O     O_2   0.016105 0.295878 0.628961 -0.500604
C77   C     C_3   0.756024 0.078784 0.304240 -0.416750
C78   C     C_3   0.828472 0.048999 0.331842 -0.859745
H17   H     H_    0.874381 0.089689 0.322451 0.246190
H18   H     H_    0.814076 0.029655 0.423081 0.259891
H19   H     H_    0.851844 0.004039 0.269611 0.247307
H20   H     H_    0.712865 0.035650 0.323696 0.206027
H21   H     H_    0.767576 0.087795 0.208739 0.203440
C79   C     C_3   0.240004 0.943022 0.655872 -0.438257
C80   C     C_3   0.227116 0.995484 0.565717 -0.809839
H22   H     H_    0.183720 0.974471 0.521378 0.269912
H23   H     H_    0.205587 0.047556 0.609890 0.230357
H24   H     H_    0.281835 0.004318 0.498367 0.265933
H25   H     H_    0.188645 0.944503 0.731493 0.226725
H26   H     H_    0.286472 0.961657 0.694130 0.194855
C81   C     C_3   0.282767 0.130269 0.763622 -0.388529
C82   C     C_3   0.335191 0.162633 0.835496 -0.775285
H27   H     H_    0.396505 0.160917 0.784606 0.268378
H28   H     H_    0.319492 0.219348 0.861713 0.243695
H29   H     H_    0.329466 0.131768 0.916319 0.219604
H30   H     H_    0.223109 0.125622 0.819975 0.172687
H31   H     H_    0.297698 0.073703 0.741740 0.210507
C83   C     C_3   0.705327 0.852776 0.231159 -0.355821
C84   C     C_3   0.739973 0.795982 0.135165 -0.849257
H32   H     H_    0.803405 0.800987 0.103302 0.243930
H33   H     H_    0.725512 0.741235 0.168112 0.259516
H34   H     H_    0.715574 0.803175 0.058777 0.246315
H35   H     H_    0.643190 0.851512 0.234364 0.260423
H36   H     H_    0.727738 0.906681 0.203532 0.188182
C85   C     C_3   0.260929 0.548520 0.356860 -0.445974
C86   C     C_3   0.324607 0.515973 0.404267 -0.790786
H37   H     H_    0.380067 0.544061 0.371228 0.249697
H38   H     H_    0.307926 0.519146 0.501876 0.266279
H39   H     H_    0.333231 0.458676 0.375272 0.254596
H40   H     H_    0.210636 0.513242 0.385944 0.188190
H41   H     H_    0.276450 0.544484 0.259546 0.189931
C87   C     C_3   0.741911 0.445207 0.676942 -0.395618
C88   C     C_3   0.698244 0.493791 0.613788 -0.801294
H42   H     H_    0.643791 0.468868 0.605647 0.268389
H43   H     H_    0.684322 0.545690 0.663552 0.228373
H44   H     H_    0.734624 0.504609 0.524478 0.279804
H45   H     H_    0.709909 0.440580 0.770087 0.225595
H46   H     H_    0.794413 0.474303 0.681338 0.205272
C89   C     C_3   0.849722 0.696814 0.754393 -0.375798
C90   C     C_3   0.860616 0.771927 0.803442 -0.835852
H47   H     H_    0.880597 0.809688 0.730935 0.267083
H48   H     H_    0.806967 0.792899 0.864260 0.269671
H49   H     H_    0.904549 0.769879 0.854671 0.233774
H50   H     H_    0.815402 0.662634 0.824134 0.193154
H51   H     H_    0.908968 0.674621 0.729601 0.230077
C91   C     C_3   0.212039 0.364647 0.233606 -0.367983
C92   C     C_3   0.153004 0.330605 0.175398 -0.751909
H52   H     H_    0.149267 0.362414 0.099008 0.230768
H53   H     H_    0.170621 0.275130 0.143305 0.223612
H54   H     H_    0.094840 0.328540 0.236721 0.297505
H55   H     H_    0.201482 0.422760 0.249767 0.190349
H56   H     H_    0.267987 0.363556 0.167257 0.215741
C93   C     C_3   0.642917 0.314734 0.751156 -0.391521
C94   C     C_3   0.572540 0.364951 0.772466 -0.753775
H57   H     H_    0.582576 0.415757 0.817172 0.239724
H58   H     H_    0.558419 0.378231 0.689518 0.291282
H59   H     H_    0.521646 0.339031 0.830545 0.237254
H60   H     H_    0.623656 0.258697 0.767768 0.202345
H61   H     H_    0.673882 0.325893 0.820046 0.204035
C95   C     C_3   0.365924 0.674646 0.269211 -0.424963
C96   C     C_3   0.367537 0.740599 0.194481 -0.723937
H62   H     H_    0.310463 0.748514 0.176018 0.265649
H63   H     H_    0.382371 0.789717 0.238861 0.260822
H64   H     H_    0.411800 0.732704 0.109568 0.241171
H65   H     H_    0.422774 0.665844 0.286722 0.200342
H66   H     H_    0.359549 0.628368 0.211929 0.210974
C97   C     C_3   0.323152 0.244517 0.224802 -0.382446
C98   C     C_3   0.389703 0.291448 0.158627 -0.775165
H67   H     H_    0.446097 0.264783 0.152069 0.257571
H68   H     H_    0.385280 0.299117 0.067487 0.222946
H69   H     H_    0.389376 0.344997 0.202542 0.273347
H70   H     H_    0.346630 0.191009 0.236700 0.225229
H71   H     H_    0.284294 0.232307 0.167543 0.198592
C99   C     C_3   0.685887 0.747326 0.776472 -0.424264
C100  C     C_3   0.671482 0.827391 0.806241 -0.733585
H72   H     H_    0.725567 0.857707 0.773986 0.285690
H73   H     H_    0.627165 0.849151 0.766125 0.256021
H74   H     H_    0.650148 0.836172 0.902827 0.245873
H75   H     H_    0.630655 0.719609 0.783444 0.187037
H76   H     H_    0.705890 0.723421 0.848111 0.209366
C101  C     C_3   0.132750 0.817757 0.720289 -0.385467
C102  C     C_3   0.067654 0.871484 0.721009 -0.760925
H77   H     H_    0.055126 0.905599 0.802683 0.222428
H78   H     H_    0.082483 0.906762 0.644517 0.283360
H79   H     H_    0.013927 0.842663 0.719671 0.251115
H80   H     H_    0.108029 0.763306 0.736413 0.206340
H81   H     H_    0.155970 0.829444 0.797607 0.203970
C103  C     C_3   0.825601 0.223972 0.232000 -0.442671
C104  C     C_3   0.773181 0.242372 0.153137 -0.775978
H82   H     H_    0.734664 0.197167 0.144813 0.237398
H83   H     H_    0.737184 0.290290 0.189887 0.271785
H84   H     H_    0.809008 0.254610 0.064061 0.245908
H85   H     H_    0.862895 0.271318 0.231803 0.200649
H86   H     H_    0.864082 0.178301 0.192271 0.208858
C105  C     C_3   0.863165 0.842317 0.281501 -0.425107
C106  C     C_3   0.913026 0.875555 0.356414 -0.737373
H87   H     H_    0.939140 0.833687 0.399044 0.300006
H88   H     H_    0.960464 0.906565 0.299982 0.246284
H89   H     H_    0.877763 0.912196 0.425671 0.238884
H90   H     H_    0.897833 0.804697 0.214132 0.203383
H91   H     H_    0.848264 0.886123 0.229970 0.205826
C107  C     C_3   0.177362 0.255481 0.778590 -0.455089
C108  C     C_3   0.181264 0.336870 0.790428 -0.711581
H92   H     H_    0.242350 0.354389 0.766545 0.285189
H93   H     H_    0.149405 0.363398 0.734507 0.243758
H94   H     H_    0.153780 0.354173 0.882758 0.246293
H95   H     H_    0.116655 0.238223 0.795978 0.189091
H96   H     H_    0.196502 0.236212 0.853988 0.218471
C109  C     C_2   0.319732 0.966553 0.051479 0.277792
H97   H     H_    0.284226 0.006489 0.109693 0.121920
O29   O     O_2   0.292139 0.908370 0.036545 -0.532255
C110  C     C_2   0.683303 0.022376 0.950025 0.359916
H98   H     H_    0.712050 0.071485 0.965329 0.086654
O30   O     O_2   0.720271 0.974854 0.886772 -0.582669
C111  C     C_2   0.816838 0.509938 0.057295 0.298105
H99   H     H_    0.803682 0.546962 0.132496 0.122328
O31   O     O_2   0.763695 0.480014 0.028606 -0.553357
C112  C     C_2   0.183266 0.526199 0.950767 0.360331
H100  H     H_    0.211714 0.575238 0.967254 0.102912
O32   O     O_2   0.220651 0.479250 0.886606 -0.582014

loop_
_geom_bond_atom_site_label_1
_geom_bond_atom_site_label_2
_ccdc_geom_bond_type
C6    C32   S    
C89   C90   S    
C88   H42   S    
C7    C29   S    
C37   C45   A    
C41   C79   S    
C16   N3    A    
C1    O1    A    
C70   H10   S    
C14   C18   A    
C30   C45   A    
C87   H46   S    
C71   H11   S    
C34   C42   A    
C23   N4    A    
C83   H35   S    
C3    O3    A    
Cu2   O9    S    
C106  H88   S    
C72   H12   S    
C101  H81   S    
C53   C74   S    
C19   C111  S    
Cu1   O10   S    
C101  C102  S    
C10   C22   A    
C15   C19   A    
Cu2   O3    S    
C69   O21   D    
C59   C64   A    
C65   H5    S    
C60   C63   A    
C35   C105  S    
C87   C88   S    
C45   C87   S    
C4    O4    A    
C104  H84   S    
C73   O25   D    
Cu2   O12   S    
C90   H47   S    
C28   C51   A    
C34   C103  S    
C75   O27   D    
C23   C68   S    
C13   H2    S    
C10   C17   A    
C112  O32   D    
C81   C82   S    
Cu2   N2    S    
C11   C12   A    
C97   H71   S    
C49   C57   A    
C110  H98   S    
C109  H97   S    
C84   H34   S    
C44   C81   S    
C25   C50   A    
C103  C104  S    
C79   H26   S    
C52   C60   A    
C86   H39   S    
Cu4   O16   S    
C77   H21   S    
C53   C61   A    
C99   H75   S    
C85   C86   S    
C37   C93   S    
C105  C106  S    
C32   C47   A    
C98   H67   S    
C96   H63   S    
C55   C63   A    
C50   C69   S    
C108  H92   S    
C56   C64   A    
C93   H61   S    
C35   C64   A    
C8    O16   A    
C95   H66   S    
C31   C56   A    
C36   C63   A    
C35   C43   A    
C9    C10   A    
C85   H41   S    
C32   C55   A    
C91   H55   S    
C96   H62   S    
C90   H49   S    
C16   C20   A    
C92   H54   S    
C1    C27   S    
C58   C61   A    
C105  H90   S    
C80   H22   S    
C17   C109  S    
C97   C98   S    
C65   O17   D    
C40   C59   A    
C83   H36   S    
C92   H53   S    
C86   H38   S    
C108  H93   S    
C87   H45   S    
C16   H3    S    
C82   H29   S    
Cu2   O2    S    
C6    O6    A    
C27   C44   A    
C106  H87   S    
C80   H24   S    
C90   H48   S    
Cu1   O11   S    
C49   C70   S    
C111  O31   D    
C1    O9    A    
C81   H30   S    
C105  H91   S    
C30   C53   A    
C40   C99   S    
C11   C20   A    
C51   C72   S    
Cu1   O1    S    
C4    C26   S    
C3    O11   A    
C100  H72   S    
C50   C58   A    
C56   C75   S    
C91   C92   S    
C75   H15   S    
C24   C67   S    
C82   H28   S    
Cu1   N1    S    
C33   C101  S    
C102  H77   S    
C33   C62   A    
C54   C62   A    
C52   C71   S    
C57   C62   A    
C112  H100  S    
C6    O14   A    
C46   C85   S    
C21   N2    A    
C34   C61   A    
Cu3   Cu4   S    
C66   O18   D    
C109  O29   D    
C78   H18   S    
C14   N1    A    
C104  H82   S    
C2    O2    A    
C99   H76   S    
Cu4   O6    S    
C100  H74   S    
C48   C89   S    
C5    O5    A    
C15   H4    S    
C9    C18   A    
C20   C112  S    
C67   H7    S    
C55   C76   S    
C3    C25   S    
C84   H32   S    
C96   H64   S    
C7    O15   A    
C66   H6    S    
Cu3   O15   S    
Cu4   O13   S    
Cu3   O14   S    
C103  H86   S    
C71   O23   D    
C107  H96   S    
C95   H65   S    
C68   O20   D    
C80   H23   S    
C43   C83   S    
C98   H68   S    
C14   H1    S    
C67   O19   D    
Cu3   O5    S    
C88   H44   S    
C38   C95   S    
C31   C48   A    
C86   H37   S    
C22   C65   S    
C26   C49   A    
C78   H19   S    
C51   C59   A    
C107  C108  S    
C94   H58   S    
C27   C52   A    
C74   O26   D    
C39   C47   A    
C77   C78   S    
C69   H9    S    
C18   C110  S    
C40   C48   A    
C39   C97   S    
C76   O28   D    
C8    O8    A    
Cu4   O7    S    
C37   C58   A    
C100  H73   S    
C79   C80   S    
C102  H79   S    
C25   C42   A    
C72   O24   D    
C111  H99   S    
C70   O22   D    
C24   N3    A    
C2    O10   A    
C4    O12   A    
C21   C66   S    
C92   H52   S    
C47   C91   S    
C89   H50   S    
C12   C24   A    
C28   C43   A    
C83   C84   S    
C13   C17   A    
C29   C46   A    
C82   H27   S    
C101  H80   S    
C33   C41   A    
C95   C96   S    
C94   H59   S    
C78   H17   S    
C8    C30   S    
C104  H83   S    
C73   H13   S    
C38   C46   A    
Cu4   N4    S    
C9    C21   A    
C93   C94   S    
C97   H70   S    
C38   C57   A    
Cu3   O8    S    
C76   H16   S    
C39   C60   A    
C12   C19   A    
C11   C23   A    
C108  H94   S    
C79   H25   S    
C110  O30   D    
C103  H85   S    
C15   N4    A    
C42   C77   S    
C102  H78   S    
C107  H95   S    
C84   H33   S    
C68   H8    S    
C5    O13   A    
C99   C100  S    
C36   C44   A    
C77   H20   S    
C7    O7    A    
C93   H60   S    
C81   H31   S    
Cu3   N3    S    
C13   N2    A    
C88   H43   S    
Cu1   Cu2   S    
C29   C54   A    
C54   C73   S    
Cu1   O4    S    
C74   H14   S    
C89   H51   S    
C2    C28   S    
C22   N1    A    
C98   H69   S    
C94   H57   S    
C36   C107  S    
C85   H40   S    
C106  H89   S    
C91   H56   S    
C26   C41   A    
C5    C31   S    
