data_mof_unit_37652.cif
_audit_creation_date              2012-12-11T14:57:51-0500
_audit_creation_method            fapswitch 2.2
_symmetry_space_group_name_H-M    P1
_symmetry_Int_Tables_number       1
_space_group_crystal_system       triclinic
_cell_length_a                    6.947377
_cell_length_b                    16.781008
_cell_length_c                    16.973331
_cell_angle_alpha                 100.398122
_cell_angle_beta                  89.788956
_cell_angle_gamma                 91.08518
_cell_volume                      1945.97210797

loop_
_atom_site_label
_atom_site_type_symbol
_atom_type_description
_atom_site_fract_x
_atom_site_fract_y
_atom_site_fract_z
_atom_type_partial_charge
O1    O     O_R   0.506180 0.438940 0.579430 -0.537197
O2    O     O_R   0.170520 0.406230 0.413590 -0.538550
O3    O     O_R   0.005180 0.561060 0.420570 -0.537492
C1    C     C_R   0.338822 0.384091 0.384441 0.697216
O4    O     O_R   0.176140 0.429310 0.578370 -0.547037
O5    O     O_R   0.010830 0.584300 0.586530 -0.535604
C2    C     C_R   0.342431 0.413449 0.605158 0.696265
O6    O     O_R   0.500520 0.415700 0.413470 -0.534493
O7    O     O_3   0.340830 0.550820 0.502480 -0.365334
V1    V     V_3+5 0.064040 0.490570 0.499540 1.414219
O8    O     O_R   0.681400 0.593770 0.586410 -0.537625
C3    C     C_R   0.851204 0.616427 0.614805 0.697228
O9    O     O_R   0.675790 0.570690 0.421630 -0.539274
C4    C     C_R   0.845105 0.586476 0.395122 0.693752
V2    V     V_3+5 0.564650 0.509430 0.500460 1.425176
O10   O     O_3   0.837730 0.449180 0.497520 -0.368772
C5    C     C_R   0.912171 0.862314 0.167498 -0.027633
C6    C     C_R   0.853064 0.636376 0.331439 -0.067329
C7    C     C_R   0.766898 0.654055 0.196518 -0.172065
C8    C     C_R   0.770398 0.606375 0.256325 -0.177100
C9    C     C_R   0.930667 0.715662 0.346527 -0.234102
C10   C     C_R   0.923465 0.764819 0.287308 0.155704
C11   C     C_R   0.842092 0.733604 0.211350 0.140767
C12   C     C_R   0.837297 0.782523 0.151793 -0.225572
C13   C     C_R   0.986673 0.893314 0.243825 -0.111841
C14   C     C_R   0.993738 0.845068 0.302979 -0.161257
H1    H     H_    0.778409 0.758329 0.093094 0.107386
H2    H     H_    0.039069 0.955377 0.257720 0.135680
H3    H     H_    0.703612 0.628987 0.138924 0.159460
H4    H     H_    0.053875 0.870648 0.361060 0.116685
H5    H     H_    0.708899 0.545629 0.243944 0.139713
H6    H     H_    0.991595 0.739648 0.404908 0.107556
H7    H     H_    0.069702 0.627836 0.970420 0.118519
C15   C     C_R   0.806745 0.909601 0.727488 -0.138823
C16   C     C_R   0.753126 0.924214 0.652433 -0.123990
C17   C     C_R   0.736585 0.860417 0.587920 -0.122255
C18   C     C_R   0.773030 0.781517 0.598037 -0.138052
C19   C     C_R   0.826027 0.764691 0.673739 0.068438
C20   C     C_R   0.843616 0.830071 0.739799 0.069667
C21   C     C_R   0.865011 0.684573 0.683951 -0.183400
C22   C     C_R   0.921988 0.669852 0.760186 0.069320
C23   C     C_R   0.939615 0.735238 0.826243 0.069001
C24   C     C_R   0.900594 0.815349 0.816021 -0.180404
C25   C     C_R   0.958886 0.590330 0.772510 -0.141073
C26   C     C_R   0.012601 0.575732 0.847569 -0.115587
C27   C     C_R   0.029236 0.639537 0.912076 -0.112510
C28   C     C_R   0.992747 0.718431 0.901943 -0.139159
H8    H     H_    0.820482 0.961416 0.775417 0.096693
H9    H     H_    0.725485 0.985470 0.644217 0.117512
H10   H     H_    0.696238 0.872129 0.529575 0.118687
H11   H     H_    0.760290 0.734170 0.545750 0.099967
H12   H     H_    0.945113 0.538516 0.724582 0.098158
H13   H     H_    0.040274 0.514480 0.855792 0.121210
H14   H     H_    0.005592 0.765797 0.954210 0.096589
C29   C     C_R   0.298278 0.220097 0.408374 -0.138794
C30   C     C_R   0.289925 0.142548 0.425330 -0.152898
C31   C     C_R   0.330329 0.077009 0.366192 -0.125138
C32   C     C_R   0.377946 0.087323 0.288483 0.098656
C33   C     C_R   0.379165 0.166572 0.267425 0.032782
C34   C     C_R   0.342290 0.234028 0.330488 0.053845
C35   C     C_R   0.415871 0.181656 0.187946 -0.164605
C36   C     C_R   0.417817 0.262800 0.173800 0.068551
C37   C     C_R   0.385674 0.328817 0.237620 0.021553
C38   C     C_R   0.350730 0.314534 0.316088 -0.147110
C39   C     C_R   0.450165 0.279764 0.096046 -0.232112
C40   C     C_R   0.447334 0.358772 0.081378 -0.167968
C41   C     C_R   0.409909 0.423677 0.142766 0.502967
C42   C     C_R   0.385211 0.408631 0.221232 -0.264067
H15   H     H_    0.268227 0.269046 0.457423 0.105528
H16   H     H_    0.254995 0.133304 0.485297 0.125980
H17   H     H_    0.327813 0.017187 0.381790 0.134990
H18   H     H_    0.477591 0.232257 0.045317 0.120274
H19   H     H_    0.472226 0.369537 0.021107 0.139090
H20   H     H_    0.364793 0.459581 0.269216 0.106219
C43   C     C_R   0.429021 0.140172 0.833915 -0.064052
C44   C     C_R   0.336692 0.359957 0.666279 -0.066568
C45   C     C_R   0.146850 0.300057 0.763298 -0.204036
C46   C     C_R   0.166484 0.355109 0.711007 -0.166145
C47   C     C_R   0.489185 0.308874 0.676182 -0.243173
C48   C     C_R   0.469280 0.252430 0.728241 0.161027
C49   C     C_R   0.296398 0.247703 0.771961 0.160580
C50   C     C_R   0.276516 0.191262 0.824030 -0.244730
C51   C     C_R   0.599187 0.145007 0.789155 -0.166739
C52   C     C_R   0.618817 0.200069 0.736881 -0.205958
H21   H     H_    0.145444 0.188905 0.858468 0.123760
H22   H     H_    0.719599 0.106540 0.795220 0.121991
H23   H     H_    0.013662 0.297955 0.796365 0.123108
H24   H     H_    0.751990 0.202167 0.703803 0.121940
H25   H     H_    0.046062 0.393556 0.704905 0.122956
H26   H     H_    0.620275 0.311231 0.641755 0.124415
O11   O     O_R   0.265840 0.084300 0.086750 -0.531038
O12   O     O_R   0.589750 0.070740 0.921690 -0.549420
O13   O     O_R   0.755020 0.915730 0.913400 -0.538183
C53   C     C_R   0.423388 0.086652 0.895015 0.684974
O14   O     O_R   0.595830 0.093740 0.086480 -0.530257
O15   O     O_R   0.761150 0.938890 0.079360 -0.517862
C54   C     C_R   0.427643 0.114291 0.117438 0.757062
O16   O     O_R   0.259710 0.061140 0.920790 -0.540407
O17   O     O_3   0.425260 0.949200 0.997610 -0.353790
V3    V     V_3+5 0.702060 0.009430 0.000450 1.453526
O18   O     O_R   0.090530 0.929220 0.078150 -0.529809
C55   C     C_R   0.921006 0.912741 0.104166 0.723444
O19   O     O_R   0.084440 0.906220 0.913360 -0.540773
C56   C     C_R   0.914551 0.883514 0.885123 0.684963
V4    V     V_3+5 0.201450 0.990520 0.999290 1.460843
O20   O     O_3   0.928380 0.050800 0.002390 -0.372885
O21   O     O_3   0.412500 0.501030 0.124025 -0.565234
C57   C     C_3   0.263767 0.549045 0.163463 -0.259749
H27   H     H_    0.308504 0.577217 0.225123 0.151921
H28   H     H_    0.125561 0.514385 0.164336 0.139498
H29   H     H_    0.236987 0.599152 0.130509 0.169864
I1    I     I_    0.461098 0.975612 0.218062 -0.429849

loop_
_geom_bond_atom_site_label_1
_geom_bond_atom_site_label_2
_ccdc_geom_bond_type
C29   C30   A    
O18   C55   A    
O15   C55   A    
C6    C9    A    
C22   C23   A    
C4    C6    S    
O2    C1    A    
C7    C8    A    
C12   H1    S    
C48   C52   A    
C43   C51   A    
C49   C50   A    
C26   C27   A    
C30   C31   A    
C13   H2    S    
C18   C19   A    
O16   V4    S    
C50   H21   S    
C32   I1    S    
C17   C18   A    
C44   C46   A    
O5    C3    A    
C19   C20   A    
C18   H11   S    
C53   O16   A    
C42   H20   S    
V2    O10   S    
C57   H27   S    
C15   C16   A    
O11   V4    S    
C24   C56   S    
C47   H26   S    
C37   C42   A    
O8    V2    S    
O17   V3    S    
C16   H9    S    
O21   C57   S    
C44   C47   A    
O1    V2    S    
O9    C4    A    
O7    V1    S    
C1    O6    A    
C25   H12   S    
C40   C41   A    
C26   H13   S    
C33   C34   A    
C29   C34   A    
H7    C27   S    
O13   C56   A    
C46   H25   S    
O18   V4    S    
O17   V4    S    
C9    H6    S    
C33   C35   A    
C5    C12   A    
C41   C42   A    
C47   C48   A    
O4    C2    A    
O14   V3    S    
C20   C24   A    
C32   C33   A    
C45   C46   A    
C40   H19   S    
O11   C54   A    
C15   C20   A    
C16   C17   A    
C3    C21   S    
C7    C11   A    
C5    C55   S    
C36   C37   A    
C51   C52   A    
C45   C49   A    
C11   C12   A    
O12   C53   A    
O19   V4    S    
C31   H17   S    
O13   V3    S    
C29   H15   S    
O3    C4    A    
C28   H14   S    
C21   C22   A    
C14   H4    S    
O6    V2    S    
C30   H16   S    
O9    V2    S    
C22   C25   A    
C15   H8    S    
C23   C24   A    
O2    V1    S    
C17   H10   S    
C25   C26   A    
O12   V3    S    
C27   C28   A    
C36   C39   A    
O1    C2    A    
C35   C54   S    
C52   H24   S    
C48   C49   A    
O5    V1    S    
O8    C3    A    
O14   C54   A    
C43   C50   A    
C2    C44   S    
C39   H18   S    
V4    O20   S    
C1    C38   S    
V3    O20   S    
C57   H29   S    
C34   C38   A    
C5    C13   A    
C13   C14   A    
O4    V1    S    
O3    V1    S    
V1    O10   S    
C19   C21   A    
C41   O21   S    
C31   C32   A    
O15   V3    S    
C57   H28   S    
C6    C8    A    
C23   C28   A    
O7    V2    S    
C35   C36   A    
C37   C38   A    
C51   H22   S    
C45   H23   S    
C39   C40   A    
C10   C14   A    
O19   C56   A    
C10   C11   A    
C9    C10   A    
C43   C53   S    
C8    H5    S    
C7    H3    S    
