data_mof_unit_7435.cif
_audit_creation_date              2012-12-10T18:57:39-0500
_audit_creation_method            fapswitch 2.2
_symmetry_space_group_name_H-M    P1
_symmetry_Int_Tables_number       1
_space_group_crystal_system       triclinic
_cell_length_a                    10.928369
_cell_length_b                    10.806165
_cell_length_c                    9.560624
_cell_angle_alpha                 90.185142
_cell_angle_beta                  89.776375
_cell_angle_gamma                 90.466018
_cell_volume                      1128.99829814

loop_
_atom_site_label
_atom_site_type_symbol
_atom_type_description
_atom_site_fract_x
_atom_site_fract_y
_atom_site_fract_z
_atom_type_partial_charge
C1    C     C_R   0.503493 0.262385 0.499912 0.798581
C2    C     C_R   0.518264 0.129472 0.500510 -0.101596
C3    C     C_R   0.544923 0.064527 0.376644 -0.225629
C4    C     C_R   0.543787 0.935347 0.376440 -0.224761
C5    C     C_R   0.517526 0.870816 0.500708 -0.095107
C6    C     C_R   0.511723 0.936849 0.626118 0.122743
C7    C     C_3   0.420794 0.930122 0.742975 -0.461764
C8    C     C_3   0.421268 0.070727 0.742849 -0.478298
C9    C     C_R   0.566407 0.586323 0.073559 0.200189
C10   C     C_R   0.424917 0.422183 0.074175 0.323171
C11   C     C_R   0.424734 0.423505 0.924807 -0.132573
C12   C     C_R   0.265572 0.504180 0.500475 0.829008
C13   C     C_R   0.566317 0.586360 0.926424 0.237858
C14   C     C_3   0.701307 0.606416 0.919753 -0.471709
C15   C     C_3   0.701548 0.605574 0.078382 -0.507816
C16   C     C_R   0.503200 0.737662 0.500140 0.793650
C17   C     C_R   0.734344 0.495052 0.499735 0.724368
C18   C     C_2   0.933488 0.524533 0.395676 -0.271709
C19   C     C_2   0.865695 0.474709 0.499181 0.361723
C20   C     C_2   0.066533 0.513285 0.388630 -0.139811
C21   C     C_2   0.134262 0.517776 0.504453 -0.260735
C22   C     C_R   0.511912 0.064054 0.625924 0.122324
Cu1   Cu    Cu3+1 0.499990 0.499980 0.640670 0.940482
Cu2   Cu    Cu3+1 0.500010 0.500020 0.359330 0.952382
H1    H     H_    0.889973 0.573000 0.310208 0.124552
H2    H     H_    0.462177 0.111725 0.838712 0.196641
H3    H     H_    0.365125 0.361449 0.867340 0.156785
H4    H     H_    0.750935 0.526575 0.873717 0.234860
H5    H     H_    0.725733 0.698070 0.874659 0.188825
H6    H     H_    0.750354 0.524538 0.121671 0.216141
H7    H     H_    0.726966 0.696446 0.125215 0.188803
H8    H     H_    0.108898 0.506608 0.286013 0.151695
H9    H     H_    0.093210 0.535705 0.605974 0.196313
H10   H     H_    0.561202 0.112788 0.279389 0.166089
H11   H     H_    0.557879 0.886766 0.278481 0.161265
H12   H     H_    0.331906 0.888673 0.710162 0.196334
H13   H     H_    0.460751 0.890150 0.839420 0.195279
H14   H     H_    0.332615 0.111274 0.710396 0.197052
N1    N     N_R   0.500780 0.500930 0.147930 -0.203052
N2    N     N_R   0.500780 0.500890 0.852020 -0.201286
O1    O     O_R   0.500000 0.319640 0.618810 -0.587469
O2    O     O_R   0.500010 0.319680 0.381230 -0.544797
O3    O     O_R   0.321940 0.499980 0.618760 -0.584722
O4    O     O_R   0.321950 0.500020 0.381180 -0.569062
O5    O     O_R   0.499990 0.680320 0.618770 -0.577969
O6    O     O_R   0.500000 0.680360 0.381190 -0.584469
O7    O     O_R   0.678050 0.499980 0.618820 -0.567728
O8    O     O_R   0.678060 0.500020 0.381240 -0.607466
N3    N     N_2   0.344760 0.341064 0.147748 -0.366912
H15   H     H_    0.256700 0.374073 0.154010 0.237121
C23   C     C_3   0.348551 0.211940 0.107473 -0.720815
H16   H     H_    0.294796 0.196120 0.010600 0.203879
H17   H     H_    0.307883 0.154842 0.192314 0.242053
H18   H     H_    0.444382 0.181978 0.090193 0.222046
O9    O     O_3   0.919042 0.405830 0.604973 -0.582310
C24   C     C_3   0.869831 0.284631 0.604827 -0.320226
H19   H     H_    0.870691 0.242635 0.498215 0.150006
H20   H     H_    0.775700 0.282936 0.649150 0.172780
H21   H     H_    0.927422 0.226006 0.672652 0.184795

loop_
_geom_bond_atom_site_label_1
_geom_bond_atom_site_label_2
_ccdc_geom_bond_type
C16   O5    A    
C2    C22   A    
C8    C22   S    
Cu1   Cu2   S    
C17   O8    A    
C15   H7    S    
C6    C7    S    
Cu1   O5    S    
C21   H9    S    
C8    H2    S    
C7    H12   S    
C23   H17   S    
C5    C16   S    
Cu1   O1    S    
C24   H21   S    
C11   H3    S    
O9    C24   S    
C23   H18   S    
Cu2   O6    S    
C2    C3    A    
C7    H13   S    
C4    H11   S    
Cu1   O3    S    
C7    C8    S    
C12   O4    A    
C13   C14   S    
C20   C21   D    
C23   H16   S    
C11   N2    A    
C18   H1    S    
C8    H14   S    
C4    C5    A    
C1    O1    A    
C17   C19   S    
C24   H20   S    
N3    H15   S    
C12   O3    A    
C18   C20   S    
C9    C15   S    
C5    C6    A    
Cu2   O4    S    
Cu1   O7    S    
C10   C11   A    
C14   H5    S    
C19   O9    S    
C3    C4    A    
Cu2   O8    S    
C1    O2    A    
C9    N1    A    
Cu2   N1    S    
Cu2   O2    S    
C24   H19   S    
C15   H6    S    
C1    C2    S    
C20   H8    S    
C16   O6    A    
Cu1   N2    S    
C9    C13   A    
C14   C15   S    
C18   C19   D    
C13   N2    A    
C3    H10   S    
C14   H4    S    
C10   N3    S    
C12   C21   S    
C17   O7    A    
C10   N1    A    
N3    C23   S    
C6    C22   A    
