data_mof_unit_8158.cif
_audit_creation_date              2012-12-10T17:21:42-0500
_audit_creation_method            fapswitch 2.2
_symmetry_space_group_name_H-M    P1
_symmetry_Int_Tables_number       1
_space_group_crystal_system       triclinic
_cell_length_a                    10.732072
_cell_length_b                    10.905631
_cell_length_c                    9.574184
_cell_angle_alpha                 91.69505
_cell_angle_beta                  90.017743
_cell_angle_gamma                 92.960478
_cell_volume                      1118.57557684

loop_
_atom_site_label
_atom_site_type_symbol
_atom_type_description
_atom_site_fract_x
_atom_site_fract_y
_atom_site_fract_z
_atom_type_partial_charge
C1    C     C_R   0.506882 0.262684 0.497783 0.805069
C2    C     C_3   0.878145 0.499874 0.499113 0.173639
C3    C     C_3   0.934422 0.616082 0.577912 -0.397325
C4    C     C_3   0.928637 0.498986 0.346922 -0.367331
C5    C     C_R   0.622420 0.134285 0.726233 -0.144859
C6    C     C_R   0.631456 0.083623 0.857322 -0.149653
C7    C     C_R   0.574686 0.968943 0.880726 -0.156287
C8    C     C_R   0.521150 0.899465 0.769513 -0.169848
C9    C     C_R   0.522256 0.944855 0.632124 0.091691
C10   C     C_R   0.555188 0.070418 0.616584 0.054698
C11   C     C_R   0.517472 0.128690 0.493869 -0.149292
C12   C     C_R   0.259868 0.499427 0.499757 0.757870
C13   C     C_R   0.475857 0.056043 0.375557 0.161587
C14   C     C_R   0.469935 0.929166 0.384059 -0.216084
C15   C     C_R   0.491903 0.872081 0.509730 -0.168976
C16   C     C_R   0.670767 0.660047 0.149087 -0.158309
C17   C     C_R   0.756164 0.735632 0.078862 -0.236444
C18   C     C_R   0.756216 0.734950 0.934931 -0.211288
C19   C     C_R   0.670253 0.659328 0.860516 -0.167488
C20   C     C_R   0.583963 0.578291 0.927610 0.193027
C21   C     C_R   0.584062 0.578387 0.077316 0.214883
C22   C     C_R   0.419999 0.425494 0.071416 -0.080336
C23   C     C_R   0.495732 0.737702 0.503032 0.793133
C24   C     C_R   0.420140 0.425398 0.923352 -0.059699
C25   C     C_R   0.740123 0.500138 0.499823 0.729356
C26   C     C_3   0.065674 0.384376 0.572329 -0.381773
C27   C     C_3   0.921785 0.384260 0.571713 -0.377907
C28   C     C_3   0.078260 0.616351 0.576882 -0.372307
C29   C     C_3   0.071210 0.497863 0.346824 -0.373483
C30   C     C_3   0.121834 0.499476 0.499002 0.159254
Cu1   Cu    Cu3+1 0.499990 0.499990 0.640660 0.912419
Cu2   Cu    Cu3+1 0.500010 0.500010 0.359340 0.915042
H1    H     H_    0.099570 0.383277 0.682162 0.167231
H2    H     H_    0.899837 0.581783 0.292524 0.167951
H3    H     H_    0.116985 0.699947 0.524907 0.149241
H4    H     H_    0.903378 0.700256 0.528017 0.142322
H5    H     H_    0.668564 0.223532 0.711843 0.148192
H6    H     H_    0.678787 0.135143 0.941846 0.131247
H7    H     H_    0.574255 0.932519 0.984714 0.153603
H8    H     H_    0.474208 0.813842 0.796159 0.171447
H9    H     H_    0.444119 0.873955 0.291504 0.169122
H10   H     H_    0.354225 0.364796 0.124728 0.131575
H11   H     H_    0.096254 0.299484 0.517916 0.147276
H12   H     H_    0.677105 0.670333 0.259400 0.198406
H13   H     H_    0.821730 0.796400 0.136905 0.145387
H14   H     H_    0.821242 0.795727 0.880290 0.151610
H15   H     H_    0.673453 0.670575 0.750866 0.202483
H16   H     H_    0.354719 0.364282 0.865827 0.138003
H17   H     H_    0.882666 0.299740 0.516182 0.144605
H18   H     H_    0.887043 0.382217 0.681212 0.168720
H19   H     H_    0.113416 0.620440 0.686408 0.171451
H20   H     H_    0.901262 0.618399 0.687969 0.173049
H21   H     H_    0.110135 0.579410 0.291033 0.171349
H22   H     H_    0.100326 0.414311 0.288358 0.161344
H23   H     H_    0.889455 0.416669 0.287177 0.171301
N1    N     N_R   0.501200 0.501210 0.147910 -0.197954
N2    N     N_R   0.501250 0.501290 0.852040 -0.202561
O1    O     O_R   0.499990 0.319640 0.618810 -0.581921
O2    O     O_R   0.500000 0.319660 0.381240 -0.571195
O3    O     O_R   0.317680 0.499970 0.618790 -0.585758
O4    O     O_R   0.317700 0.499990 0.381210 -0.586967
O5    O     O_R   0.500000 0.680340 0.618760 -0.611038
O6    O     O_R   0.500010 0.680360 0.381190 -0.598250
O7    O     O_R   0.682300 0.500010 0.618790 -0.606108
O8    O     O_R   0.682320 0.500030 0.381210 -0.603795
C31   C     C_3   0.436468 0.108691 0.238859 -0.837747
H24   H     H_    0.406172 0.036094 0.160426 0.208458
H25   H     H_    0.355875 0.167080 0.256334 0.228506
H26   H     H_    0.515922 0.162258 0.192106 0.246437

loop_
_geom_bond_atom_site_label_1
_geom_bond_atom_site_label_2
_ccdc_geom_bond_type
Cu1   O3    S    
C26   H11   S    
C21   N1    A    
C31   H25   S    
C3    H20   S    
C6    H6    S    
C24   N2    A    
C16   C21   A    
C5    H5    S    
C9    C10   A    
C16   H12   S    
C26   H1    S    
C2    C4    S    
C19   C20   A    
C1    C11   S    
C27   H18   S    
C22   N1    A    
C2    C27   S    
Cu1   N2    S    
C15   C23   S    
C17   C18   A    
C9    C15   A    
C5    C10   A    
C4    C29   S    
C22   H10   S    
C1    O1    A    
C12   O4    A    
C11   C13   A    
Cu1   O5    S    
C26   C27   S    
C29   C30   S    
C29   H21   S    
C3    H4    S    
C14   H9    S    
C18   H14   S    
Cu1   O1    S    
C28   C30   S    
C3    C28   S    
C17   H13   S    
Cu2   O4    S    
C26   C30   S    
C2    C25   S    
C22   C24   A    
C13   C31   S    
C1    O2    A    
C4    H23   S    
C5    C6    A    
C28   H19   S    
C4    H2    S    
C23   O6    A    
C31   H26   S    
C29   H22   S    
Cu2   O8    S    
C24   H16   S    
C7    C8    A    
C25   O8    A    
C20   C21   A    
Cu2   O6    S    
Cu1   Cu2   S    
C18   C19   A    
C10   C11   A    
C19   H15   S    
C31   H24   S    
C7    H7    S    
C14   C15   A    
C16   C17   A    
C2    C3    S    
C8    H8    S    
Cu2   O2    S    
C12   C30   S    
C20   N2    A    
C13   C14   A    
Cu1   O7    S    
Cu2   N1    S    
C23   O5    A    
C6    C7    A    
C27   H17   S    
C28   H3    S    
C8    C9    A    
C25   O7    A    
C12   O3    A    
