data_mof_unit_14791.cif
_audit_creation_date              2012-12-11T16:58:17-0500
_audit_creation_method            fapswitch 2.2
_symmetry_space_group_name_H-M    P1
_symmetry_Int_Tables_number       1
_space_group_crystal_system       triclinic
_cell_length_a                    16.895033
_cell_length_b                    7.458108
_cell_length_c                    16.758961
_cell_angle_alpha                 89.999961
_cell_angle_beta                  100.215504
_cell_angle_gamma                 90.000028
_cell_volume                      2078.23695956

loop_
_atom_site_label
_atom_site_type_symbol
_atom_type_description
_atom_site_fract_x
_atom_site_fract_y
_atom_site_fract_z
_atom_type_partial_charge
O1    O     O_R   0.413450 0.494370 0.415710 -0.507105
O2    O     O_R   0.586550 0.994370 0.584290 -0.507104
O3    O     O_R   0.578420 0.819350 0.429360 -0.543408
O4    O     O_R   0.421580 0.319350 0.570640 -0.543409
C1    C     C_R   0.605118 0.657127 0.415091 0.851059
C2    C     C_R   0.394882 0.157127 0.584909 0.851060
O5    O     O_R   0.413570 0.823780 0.406240 -0.511592
O6    O     O_R   0.586430 0.323780 0.593760 -0.511593
O7    O     O_R   0.420530 0.998740 0.561000 -0.525083
O8    O     O_R   0.579470 0.498740 0.439000 -0.525083
C3    C     C_R   0.386351 0.656567 0.384800 0.748001
C4    C     C_R   0.613649 0.156567 0.615200 0.748003
O9    O     O_3   0.502480 0.662320 0.550800 -0.372645
O10   O     O_3   0.497520 0.162320 0.449200 -0.372645
V1    V     V_3+5 0.499540 0.935370 0.490580 1.700834
V2    V     V_3+5 0.500460 0.435370 0.509420 1.700833
C5    C     C_R   0.679112 0.029626 0.748325 -0.210476
C6    C     C_R   0.320888 0.529627 0.251675 -0.210475
C7    C     C_R   0.679536 0.153135 0.686468 -0.232223
C8    C     C_R   0.320464 0.653135 0.313532 -0.232223
C9    C     C_R   0.735405 0.294824 0.705606 0.590630
C10   C     C_R   0.264595 0.794824 0.294394 0.590630
C11   C     C_R   0.792958 0.288449 0.778710 0.407082
C12   C     C_R   0.207042 0.788449 0.221290 0.407083
C13   C     C_R   0.810175 0.125769 0.820015 -0.203986
C14   C     C_R   0.189825 0.625769 0.179985 -0.203986
C15   C     C_R   0.740041 0.024099 0.815831 -0.263995
C16   C     C_R   0.259958 0.524099 0.184169 -0.263994
C17   C     C_3   0.728132 0.833972 0.828121 0.848108
C18   C     C_3   0.271868 0.333973 0.171878 0.848106
C19   C     C_3   0.665776 0.834210 0.750054 1.133991
C20   C     C_3   0.334224 0.334210 0.249945 1.133991
C21   C     C_R   0.329605 0.160199 0.634183 -0.335393
C22   C     C_R   0.670395 0.660200 0.365816 -0.335391
C23   C     C_R   0.166146 0.110955 0.862391 -0.277851
C24   C     C_R   0.833854 0.610955 0.137609 -0.277851
C25   C     C_R   0.281532 0.958369 0.824183 0.774352
C26   C     C_R   0.718468 0.458369 0.175817 0.774351
C27   C     C_R   0.226464 0.979534 0.876401 -0.354626
C28   C     C_R   0.773536 0.479534 0.123599 -0.354626
C29   C     C_R   0.161480 0.222802 0.794367 0.664199
C30   C     C_R   0.838520 0.722802 0.205633 0.664202
C31   C     C_R   0.215836 0.200288 0.739348 -0.268934
C32   C     C_R   0.784164 0.700288 0.260652 -0.268934
C33   C     C_R   0.276971 0.067278 0.754888 -0.247471
C34   C     C_R   0.723029 0.567278 0.245113 -0.247471
C35   C     C_R   0.332270 0.045993 0.701219 0.581109
C36   C     C_R   0.667730 0.545992 0.298781 0.581108
C37   C     C_R   0.269101 0.293525 0.619059 0.269607
C38   C     C_R   0.730899 0.793527 0.380940 0.269603
C39   C     C_R   0.209596 0.305494 0.668419 0.439076
C40   C     C_R   0.790404 0.805497 0.331580 0.439077
H1    H     H_    0.230529 0.890624 0.928064 0.160722
H2    H     H_    0.769471 0.390624 0.071937 0.160722
O11   O     O_R   0.920630 0.775410 0.061150 -0.520182
O12   O     O_R   0.079370 0.275410 0.938850 -0.520182
O13   O     O_R   0.086500 0.441450 0.093690 -0.501545
O14   O     O_R   0.913500 0.941450 0.906310 -0.501545
C41   C     C_R   0.116194 0.609722 0.113837 0.728714
C42   C     C_R   0.883806 0.109722 0.886162 0.728714
O15   O     O_R   0.921670 0.445960 0.070740 -0.545956
O16   O     O_R   0.078330 0.945960 0.929260 -0.545957
O17   O     O_R   0.913380 0.271130 0.915780 -0.518573
O18   O     O_R   0.086620 0.771130 0.084220 -0.518573
C43   C     C_R   0.896645 0.612947 0.085862 0.739094
C44   C     C_R   0.103355 0.112947 0.914138 0.739092
O19   O     O_3   0.997500 0.603030 0.949220 -0.362254
O20   O     O_3   0.002500 0.103030 0.050780 -0.362254
V3    V     V_3+5 0.000470 0.329940 0.009420 1.618047
V4    V     V_3+5 0.999530 0.829940 0.990580 1.618047
F1    F     F_    0.733111 0.439126 0.656375 -0.592832
F2    F     F_    0.266889 0.939126 0.343625 -0.592832
O21   O     O_3   0.147070 0.426191 0.648397 -0.513008
C45   C     C_3   0.086247 0.344482 0.591478 -0.074470
H3    H     H_    0.063418 0.220177 0.616438 0.130433
H4    H     H_    0.107548 0.314499 0.533779 0.139322
H5    H     H_    0.035021 0.439080 0.577222 0.159406
O22   O     O_3   0.852929 0.926196 0.351601 -0.513007
C46   C     C_3   0.913751 0.844492 0.408523 -0.074467
H6    H     H_    0.936576 0.720171 0.383570 0.130421
H7    H     H_    0.892451 0.814533 0.466225 0.139329
H8    H     H_    0.964981 0.939086 0.422772 0.159408
F3    F     F_    0.102248 0.348179 0.780919 -0.636359
F4    F     F_    0.897752 0.848178 0.219081 -0.636358
O23   O     O_3   0.808136 0.441566 0.823438 -0.482385
C47   C     C_3   0.760236 0.440633 0.885826 0.066785
H9    H     H_    0.762443 0.315245 0.921756 0.008703
H10   H     H_    0.696277 0.468537 0.859739 0.157882
H11   H     H_    0.784532 0.541638 0.931958 0.157075
O24   O     O_3   0.191864 0.941566 0.176562 -0.482385
C48   C     C_3   0.239764 0.940633 0.114174 0.066785
H12   H     H_    0.237558 0.815245 0.078245 0.008703
H13   H     H_    0.303723 0.968538 0.140262 0.157883
H14   H     H_    0.215469 0.041638 0.068042 0.157074
O25   O     O_3   0.692101 0.791013 0.896409 -0.570295
C49   C     C_3   0.728840 0.880109 0.967681 -0.215652
H15   H     H_    0.707786 0.021232 0.967314 0.162285
H16   H     H_    0.795068 0.875440 0.975719 0.141481
H17   H     H_    0.710673 0.812446 0.020520 0.183080
O26   O     O_3   0.307899 0.291015 0.103591 -0.570295
C50   C     C_3   0.271159 0.380107 0.032319 -0.215650
H18   H     H_    0.292211 0.521232 0.032685 0.162283
H19   H     H_    0.204931 0.375434 0.024280 0.141482
H20   H     H_    0.289326 0.312445 0.979480 0.183080
F5    F     F_    0.799372 0.751358 0.823298 -0.630142
F6    F     F_    0.200628 0.251358 0.176701 -0.630143
F7    F     F_    0.588436 0.790349 0.759873 -0.621429
F8    F     F_    0.411564 0.290349 0.240127 -0.621429
F9    F     F_    0.690168 0.748879 0.685535 -0.598463
F10   F     F_    0.309832 0.248879 0.314465 -0.598463
F11   F     F_    0.391706 0.921262 0.716363 -0.590006
F12   F     F_    0.608295 0.421260 0.283638 -0.590009
O27   O     O_3   0.264821 0.403375 0.551609 -0.541574
C51   C     C_3   0.285378 0.580912 0.576808 -0.035393
H21   H     H_    0.339786 0.587100 0.625289 0.160419
H22   H     H_    0.234277 0.649809 0.597204 0.157123
H23   H     H_    0.299208 0.657050 0.524130 0.118172
O28   O     O_3   0.735177 0.903380 0.448389 -0.541576
C52   C     C_3   0.714619 0.080916 0.423189 -0.035392
H24   H     H_    0.660212 0.087101 0.374705 0.160424
H25   H     H_    0.765722 0.149814 0.402794 0.157123
H26   H     H_    0.700786 0.157056 0.475865 0.118172
F13   F     F_    0.338346 0.828560 0.841409 -0.591485
F14   F     F_    0.661654 0.328559 0.158592 -0.591485

loop_
_geom_bond_atom_site_label_1
_geom_bond_atom_site_label_2
_ccdc_geom_bond_type
C37   O27   S    
C50   H18   S    
C15   C17   S    
O21   C45   S    
C24   C30   A    
O25   C49   S    
O1    C3    A    
O2    C4    A    
C2    O7    A    
C51   H21   S    
O23   C47   S    
O5    C3    A    
C41   O18   A    
C20   F10   S    
C9    F1    S    
C42   O17   A    
C7    C9    A    
C12   C14   A    
C47   H10   S    
O13   C41   A    
O14   C42   A    
C29   F3    S    
C49   H17   S    
C18   O26   S    
O16   V4    S    
C33   C35   A    
O28   C52   S    
C5    C7    A    
C25   F13   S    
O17   V3    S    
O20   V3    S    
C37   C39   A    
C45   H5    S    
C49   H16   S    
C38   C40   A    
O12   C44   A    
C13   C42   S    
O18   V4    S    
C18   C20   S    
C14   C41   S    
C32   C40   A    
O5    V1    S    
O6    V2    S    
C49   H15   S    
C29   C31   A    
C17   F5    S    
C30   C32   A    
C40   O22   S    
C10   F2    S    
O11   C43   A    
C32   C34   A    
C52   H25   S    
C51   H23   S    
C34   C36   A    
C3    C8    S    
C22   C38   A    
C45   H3    S    
O16   C44   A    
C5    C15   A    
C24   C28   A    
C30   F4    S    
O4    C2    A    
C48   H12   S    
C46   H7    S    
O22   C46   S    
O14   V4    S    
C23   C44   S    
O4    V2    S    
C23   C27   A    
C48   H13   S    
O6    C4    A    
C1    C22   S    
C19   F9    S    
C6    C16   A    
O1    V2    S    
O2    V1    S    
C31   C33   A    
C45   H4    S    
C36   F12   S    
C8    C10   A    
C50   H20   S    
C28   H2    S    
C9    C11   A    
C11   O23   S    
C5    C19   S    
C10   C12   A    
C22   C36   A    
C25   C33   A    
O3    V1    S    
C47   H9    S    
C17   O25   S    
O27   C51   S    
C50   H19   S    
C52   H26   S    
O15   V3    S    
C38   O28   S    
C19   F7    S    
C39   O21   S    
O3    C1    A    
C47   H11   S    
C12   O24   S    
C46   H8    S    
C51   H22   S    
C52   H24   S    
C13   C15   A    
C14   C16   A    
C2    C21   S    
O19   V4    S    
C24   C43   S    
C16   C18   S    
O7    V1    S    
C1    O8    A    
C25   C27   A    
O8    V2    S    
C48   H14   S    
C26   C28   A    
C31   C39   A    
O24   C48   S    
C27   H1    S    
C35   F11   S    
C4    C7    S    
O26   C50   S    
C21   C35   A    
C6    C8    A    
C11   C13   A    
C23   C29   A    
C26   F14   S    
C26   C34   A    
O11   V4    S    
C46   H6    S    
O15   C43   A    
C6    C20   S    
C17   C19   S    
O12   V3    S    
C20   F8    S    
O9    V2    S    
O10   V1    S    
O13   V3    S    
C21   C37   A    
C18   F6    S    
