data_mof_unit_62222.cif
_audit_creation_date              2012-12-10T17:05:01-0500
_audit_creation_method            fapswitch 2.2
_symmetry_space_group_name_H-M    P1
_symmetry_Int_Tables_number       1
_space_group_crystal_system       triclinic
_cell_length_a                    30.261197
_cell_length_b                    30.407935
_cell_length_c                    21.422723
_cell_angle_alpha                 89.999663
_cell_angle_beta                  133.816133
_cell_angle_gamma                 90.000815
_cell_volume                      14224.0525857

loop_
_atom_site_label
_atom_site_type_symbol
_atom_type_description
_atom_site_fract_x
_atom_site_fract_y
_atom_site_fract_z
_atom_type_partial_charge
Br1   Br    Br    0.501419 0.912874 0.304130 -0.242538
Br2   Br    Br    0.034285 0.739313 0.813808 -0.438998
Br3   Br    Br    0.465717 0.239316 0.186195 -0.438933
Br4   Br    Br    0.534283 0.239318 0.813806 -0.438907
Br5   Br    Br    0.129327 0.620917 0.908770 -0.319527
Br6   Br    Br    0.870604 0.620879 0.091169 -0.319481
Br7   Br    Br    0.629183 0.121011 0.908652 -0.319599
Br8   Br    Br    0.370685 0.120938 0.091237 -0.319523
Br9   Br    Br    0.069846 0.538892 0.771466 -0.325842
Br10  Br    Br    0.930099 0.538865 0.228497 -0.325877
Br11  Br    Br    0.569649 0.038983 0.771349 -0.325693
Br12  Br    Br    0.498582 0.912876 0.695873 -0.242565
Br13  Br    Br    0.430256 0.038938 0.228598 -0.325778
Br14  Br    Br    0.457249 0.888076 0.019620 -0.224625
Br15  Br    Br    0.542853 0.888088 0.980591 -0.224685
Br16  Br    Br    0.957196 0.388076 0.019510 -0.224666
Br17  Br    Br    0.042844 0.388077 0.980556 -0.224695
Br18  Br    Br    0.433064 0.828136 0.176833 -0.424602
Br19  Br    Br    0.566958 0.828156 0.823215 -0.424651
Br20  Br    Br    0.933045 0.328152 0.176794 -0.424603
Br21  Br    Br    0.066974 0.328172 0.823249 -0.424645
Br22  Br    Br    0.412425 0.874236 0.477249 -0.391911
Br23  Br    Br    0.001420 0.412875 0.304130 -0.242531
Br24  Br    Br    0.587559 0.874232 0.522739 -0.391925
Br25  Br    Br    0.912437 0.374233 0.477259 -0.391948
Br26  Br    Br    0.087548 0.374230 0.522730 -0.391956
Br27  Br    Br    0.998589 0.412883 0.695886 -0.242535
Br28  Br    Br    0.782731 0.744043 0.810303 -0.447306
Br29  Br    Br    0.217269 0.744046 0.189697 -0.447312
Br30  Br    Br    0.282732 0.244035 0.810303 -0.447305
Br31  Br    Br    0.717269 0.244042 0.189697 -0.447316
Br32  Br    Br    0.965714 0.739309 0.186192 -0.439018
C1    C     C_R   0.309220 0.810145 0.119224 0.920970
C2    C     C_R   0.479142 0.670380 0.004589 0.354362
C3    C     C_R   0.306751 0.189816 0.250932 -0.241432
C4    C     C_R   0.185348 0.696147 0.677176 0.483120
C5    C     C_R   0.814774 0.696205 0.322945 0.483100
C6    C     C_R   0.685563 0.196022 0.677362 0.483196
C7    C     C_R   0.314754 0.196191 0.322928 0.483107
C8    C     C_R   0.139662 0.672953 0.601717 -0.231211
C9    C     C_R   0.860464 0.673004 0.398394 -0.231173
C10   C     C_R   0.639870 0.172842 0.601882 -0.231261
C11   C     C_R   0.360442 0.172989 0.398376 -0.231173
C12   C     C_R   0.104112 0.641338 0.598416 0.414860
C13   C     C_R   0.020762 0.170376 0.995230 0.354450
C14   C     C_R   0.895966 0.641363 0.401646 0.414845
C15   C     C_R   0.604221 0.141291 0.598503 0.414881
C16   C     C_R   0.395951 0.141353 0.401633 0.414910
C17   C     C_R   0.116423 0.631675 0.674539 0.021952
C18   C     C_R   0.883613 0.631689 0.325495 0.021953
C19   C     C_R   0.616472 0.131653 0.674586 0.021999
C20   C     C_R   0.383603 0.131682 0.325484 0.022009
C21   C     C_R   0.156817 0.659336 0.746800 -0.055558
C22   C     C_R   0.843217 0.659352 0.253239 -0.055525
C23   C     C_R   0.656869 0.159308 0.746855 -0.055603
C24   C     C_R   0.979090 0.170375 0.004490 0.354252
C25   C     C_R   0.343203 0.159344 0.253226 -0.055555
C26   C     C_R   0.159702 0.656152 0.815284 -0.168931
C27   C     C_R   0.840295 0.656152 0.184720 -0.168971
C28   C     C_R   0.659695 0.156155 0.815285 -0.168883
C29   C     C_R   0.340298 0.156154 0.184722 -0.168940
C30   C     C_R   0.129611 0.622594 0.818577 0.244543
C31   C     C_R   0.870353 0.622578 0.181396 0.244565
C32   C     C_R   0.629540 0.122634 0.818527 0.244495
C33   C     C_R   0.370398 0.122604 0.181430 0.244546
C34   C     C_R   0.098091 0.590647 0.754621 0.180224
C35   C     C_R   0.476935 0.832027 0.000031 0.276128
C36   C     C_R   0.901877 0.590633 0.245354 0.180187
C37   C     C_R   0.598013 0.090685 0.754572 0.180276
C38   C     C_R   0.401933 0.090661 0.245392 0.180199
C39   C     C_R   0.163583 0.749700 0.000629 0.959038
C40   C     C_R   0.836417 0.749700 0.999371 0.959034
C41   C     C_R   0.663583 0.249700 0.000629 0.959051
C42   C     C_R   0.336417 0.249700 0.999371 0.959052
C43   C     C_R   0.090120 0.595623 0.681837 -0.220690
C44   C     C_R   0.909880 0.595623 0.318165 -0.220631
C45   C     C_R   0.590113 0.095628 0.681839 -0.220714
C46   C     C_R   0.523112 0.832027 0.000067 0.276097
C47   C     C_R   0.409889 0.095627 0.318167 -0.220553
C48   C     C_R   0.941017 0.560841 0.381538 1.040724
C49   C     C_R   0.058984 0.560841 0.618463 1.040710
C50   C     C_R   0.441015 0.060839 0.381531 1.040605
C51   C     C_R   0.558986 0.060839 0.618472 1.040558
C52   C     C_R   0.442296 0.937590 0.383826 0.939179
C53   C     C_R   0.557703 0.937590 0.616173 0.939142
C54   C     C_R   0.942296 0.437590 0.383827 0.939223
C55   C     C_R   0.057703 0.437590 0.616174 0.939204
C56   C     C_R   0.599203 0.790739 0.013772 0.397019
C57   C     C_R   0.976910 0.332021 0.999977 0.276112
C58   C     C_R   0.400814 0.790743 0.986264 0.397013
C59   C     C_R   0.099206 0.290730 0.013784 0.396991
C60   C     C_R   0.900793 0.290736 0.986218 0.397002
C61   C     C_R   0.615559 0.751020 0.000481 -0.257940
C62   C     C_R   0.384436 0.751020 0.999513 -0.257986
C63   C     C_R   0.115563 0.251013 0.000489 -0.257943
C64   C     C_R   0.884429 0.251017 0.999497 -0.257956
C65   C     C_R   0.585846 0.711632 0.986210 0.392357
C66   C     C_R   0.414124 0.711628 0.013737 0.392319
C67   C     C_R   0.085842 0.211626 0.986199 0.392321
C68   C     C_R   0.023099 0.332020 0.000036 0.276113
C69   C     C_R   0.914120 0.211625 0.013727 0.392352
C70   C     C_R   0.543385 0.710688 0.993932 -0.051267
C71   C     C_R   0.456586 0.710686 0.006017 -0.051245
C72   C     C_R   0.043364 0.210682 0.993888 -0.051213
C73   C     C_R   0.956562 0.210682 0.005969 -0.051341
C74   C     C_R   0.523087 0.751178 0.999807 -0.128854
C75   C     C_R   0.476907 0.751178 0.000185 -0.128867
C76   C     C_R   0.023070 0.251171 0.999772 -0.128859
C77   C     C_R   0.976886 0.251172 0.000141 -0.128823
C78   C     C_R   0.260481 0.848698 0.183630 -0.238479
C79   C     C_R   0.739512 0.848693 0.816356 -0.238483
C80   C     C_R   0.760485 0.348693 0.183640 -0.238468
C81   C     C_R   0.690780 0.810145 0.880777 0.920985
C82   C     C_R   0.239507 0.348687 0.816343 -0.238468
C83   C     C_R   0.244007 0.856998 0.229805 0.499377
C84   C     C_R   0.755983 0.856993 0.770175 0.499381
C85   C     C_R   0.744014 0.356992 0.229820 0.499383
C86   C     C_R   0.255974 0.356985 0.770158 0.499385
C87   C     C_R   0.289498 0.869311 0.316383 -0.139055
C88   C     C_R   0.710490 0.869305 0.683597 -0.139060
C89   C     C_R   0.789506 0.369305 0.316398 -0.139047
C90   C     C_R   0.210480 0.369299 0.683582 -0.139046
C91   C     C_R   0.348808 0.878440 0.353538 0.249634
C92   C     C_R   0.809219 0.310145 0.119223 0.920970
C93   C     C_R   0.651181 0.878436 0.646449 0.249637
C94   C     C_R   0.848815 0.378436 0.353548 0.249627
C95   C     C_R   0.151174 0.378432 0.646440 0.249626
C96   C     C_R   0.361699 0.879272 0.301187 -0.017839
C97   C     C_R   0.638295 0.879270 0.698806 -0.017831
C98   C     C_R   0.861703 0.379270 0.301192 -0.017839
C99   C     C_R   0.138292 0.379268 0.698802 -0.017832
C100  C     C_R   0.320505 0.857693 0.221288 -0.027612
C101  C     C_R   0.679490 0.857690 0.778704 -0.027625
C102  C     C_R   0.820507 0.357690 0.221294 -0.027610
C103  C     C_R   0.190781 0.310145 0.880777 0.920998
C104  C     C_R   0.179488 0.357687 0.778698 -0.027620
C105  C     C_R   0.341929 0.843442 0.184013 -0.152152
C106  C     C_R   0.658072 0.843443 0.815989 -0.152158
C107  C     C_R   0.841927 0.343442 0.184012 -0.152144
C108  C     C_R   0.158074 0.343443 0.815990 -0.152154
C109  C     C_R   0.336507 0.750210 0.999549 0.932487
C110  C     C_R   0.663492 0.750210 0.000449 0.932523
C111  C     C_R   0.836506 0.250210 0.999547 0.932496
C112  C     C_R   0.163495 0.250207 0.000455 0.932519
C113  C     C_R   0.399476 0.855612 0.217821 0.191982
C114  C     C_R   0.548534 0.791689 0.004317 -0.026896
C115  C     C_R   0.600531 0.855619 0.782194 0.191981
C116  C     C_R   0.899470 0.355617 0.217811 0.191984
C117  C     C_R   0.100537 0.355625 0.782205 0.191992
C118  C     C_R   0.432713 0.887490 0.281997 0.301426
C119  C     C_R   0.567290 0.887494 0.718012 0.301388
C120  C     C_R   0.932711 0.387493 0.281992 0.301459
C121  C     C_R   0.067295 0.387498 0.718020 0.301432
C122  C     C_R   0.413616 0.900031 0.324438 -0.212621
C123  C     C_R   0.586383 0.900031 0.675562 -0.212621
C124  C     C_R   0.913617 0.400030 0.324438 -0.212601
C125  C     C_R   0.451484 0.791690 0.995722 -0.026877
C126  C     C_R   0.086383 0.400031 0.675564 -0.212604
C127  C     C_R   0.868087 0.746690 0.919722 0.158416
C128  C     C_R   0.131913 0.746689 0.080279 0.158422
C129  C     C_R   0.368088 0.246687 0.919722 0.158407
C130  C     C_R   0.631913 0.246688 0.080279 0.158413
C131  C     C_R   0.884108 0.747957 0.999167 -0.206438
C132  C     C_R   0.115892 0.747956 0.000834 -0.206436
C133  C     C_R   0.384108 0.247956 0.999167 -0.206436
C134  C     C_R   0.615892 0.247956 0.000834 -0.206421
C135  C     C_R   0.945628 0.746513 0.078672 0.202085
C136  C     C_R   0.048526 0.291681 0.004303 -0.026893
C137  C     C_R   0.054373 0.746514 0.921329 0.202109
C138  C     C_R   0.445628 0.246515 0.078673 0.202121
C139  C     C_R   0.554372 0.246515 0.921329 0.202165
C140  C     C_R   0.992061 0.747065 0.079081 0.048086
C141  C     C_R   0.007940 0.747067 0.920921 0.048078
C142  C     C_R   0.492061 0.247067 0.079081 0.048076
C143  C     C_R   0.507939 0.247066 0.920921 0.048065
C144  C     C_R   0.976593 0.747437 0.999795 0.013978
C145  C     C_R   0.023407 0.747437 0.000206 0.013974
C146  C     C_R   0.476594 0.247437 0.999795 0.013984
C147  C     C_R   0.951462 0.291684 0.995675 -0.026902
C148  C     C_R   0.523407 0.247437 0.000206 0.013976
C149  C     C_R   0.914536 0.747042 0.920103 0.056067
C150  C     C_R   0.085464 0.747041 0.079898 0.056075
C151  C     C_R   0.414536 0.247040 0.920103 0.056063
C152  C     C_R   0.585465 0.247041 0.079898 0.056073
C153  C     C_R   0.053815 0.747170 0.157226 -0.133632
C154  C     C_R   0.946186 0.747174 0.842776 -0.133622
C155  C     C_R   0.553815 0.247173 0.157226 -0.133625
C156  C     C_R   0.446186 0.247171 0.842776 -0.133603
C157  C     C_R   0.190575 0.689712 0.880537 0.936961
C158  C     C_R   0.520811 0.670381 0.995326 0.354351
C159  C     C_R   0.809423 0.689712 0.119464 0.936937
C160  C     C_R   0.690575 0.189713 0.880538 0.936957
C161  C     C_R   0.309419 0.189712 0.119464 0.936942
C162  C     C_R   0.099671 0.747166 0.157644 -0.100643
C163  C     C_R   0.900330 0.747170 0.842357 -0.100645
C164  C     C_R   0.599671 0.247169 0.157645 -0.100638
C165  C     C_R   0.400330 0.247166 0.842357 -0.100640
C166  C     C_R   0.193298 0.689795 0.749130 -0.241363
C167  C     C_R   0.806772 0.689830 0.250951 -0.241408
C168  C     C_R   0.693418 0.189725 0.749248 -0.241352
H1    H     H_    0.067875 0.747558 0.219319 0.205063
H2    H     H_    0.771434 0.708583 0.193057 0.150235
H3    H     H_    0.728732 0.208484 0.807148 0.150141
H4    H     H_    0.271416 0.208571 0.193040 0.150217
H5    H     H_    0.131647 0.679763 0.544916 0.181128
H6    H     H_    0.868517 0.679830 0.455222 0.181137
H7    H     H_    0.631918 0.179618 0.545122 0.181118
H8    H     H_    0.368497 0.179815 0.455206 0.181146
H9    H     H_    0.226652 0.835037 0.119070 0.136940
H10   H     H_    0.773342 0.835032 0.880914 0.136935
H11   H     H_    0.726655 0.335033 0.119081 0.136930
H12   H     H_    0.932125 0.747564 0.780682 0.205066
H13   H     H_    0.273338 0.335025 0.880901 0.136924
H14   H     H_    0.279301 0.870029 0.355875 0.199789
H15   H     H_    0.720683 0.870023 0.644102 0.199791
H16   H     H_    0.779312 0.370023 0.355893 0.199788
H17   H     H_    0.220670 0.370016 0.644083 0.199794
H18   H     H_    0.640980 0.833333 0.003139 0.380468
H19   H     H_    0.359038 0.833319 0.996917 0.380447
H20   H     H_    0.140988 0.333333 0.003180 0.380485
H21   H     H_    0.859030 0.333333 0.996872 0.380467
H22   H     H_    0.250394 0.739632 0.735729 0.347064
H23   H     H_    0.567876 0.247563 0.219320 0.205060
H24   H     H_    0.749770 0.739723 0.264450 0.347103
H25   H     H_    0.750711 0.239430 0.736007 0.347035
H26   H     H_    0.249781 0.239732 0.264456 0.347113
H27   H     H_    0.052692 0.633085 0.474417 0.341871
H28   H     H_    0.947406 0.633093 0.525648 0.341865
H29   H     H_    0.552864 0.133016 0.474525 0.341906
H30   H     H_    0.447400 0.133089 0.525641 0.341876
H31   H     H_    0.562944 0.662794 0.912854 0.373871
H32   H     H_    0.436987 0.662771 0.087037 0.373878
H33   H     H_    0.062963 0.162801 0.912829 0.373889
H34   H     H_    0.432125 0.247560 0.780682 0.205067
H35   H     H_    0.937038 0.162752 0.087033 0.373873
H36   H     H_    0.507119 0.609790 0.956955 0.354764
H37   H     H_    0.492818 0.609785 0.042931 0.354753
H38   H     H_    0.007020 0.109800 0.956765 0.354762
H39   H     H_    0.992707 0.109763 0.042728 0.354754
H40   H     H_    0.158688 0.841982 0.132691 0.337927
H41   H     H_    0.841303 0.841978 0.867286 0.337929
H42   H     H_    0.658693 0.341977 0.132708 0.337928
H43   H     H_    0.341294 0.341967 0.867263 0.337929
H44   H     H_    0.146244 0.747423 0.220140 0.212363
H45   H     H_    0.853757 0.747428 0.779861 0.212369
H46   H     H_    0.646244 0.247426 0.220140 0.212366
H47   H     H_    0.353757 0.247422 0.779862 0.212373
H48   H     H_    0.228626 0.708550 0.807027 0.150211
O1    O     O_R   0.321630 0.769940 0.143350 -0.583511
O2    O     O_R   0.508520 0.954180 0.591620 -0.555776
O3    O     O_R   0.991480 0.454180 0.408380 -0.555776
O4    O     O_R   0.008520 0.454180 0.591620 -0.555775
O5    O     O_R   0.416890 0.954190 0.408420 -0.616958
O6    O     O_R   0.583110 0.954190 0.591580 -0.616964
O7    O     O_R   0.916890 0.454190 0.408420 -0.616959
O8    O     O_R   0.083110 0.454190 0.591580 -0.616965
O9    O     O_R   0.269950 0.821660 0.039930 -0.624348
O10   O     O_R   0.730050 0.821660 0.960070 -0.624347
O11   O     O_R   0.769950 0.321660 0.039930 -0.624335
O12   O     O_R   0.678370 0.769940 0.856650 -0.583517
O13   O     O_R   0.230050 0.321660 0.960070 -0.624324
O14   O     O_R   0.341900 0.724110 0.051720 -0.562971
O15   O     O_R   0.658100 0.724110 0.948280 -0.562953
O16   O     O_R   0.841900 0.224110 0.051720 -0.562908
O17   O     O_R   0.158100 0.224110 0.948280 -0.563003
O18   O     O_R   0.290220 0.775830 0.948290 -0.626891
O19   O     O_R   0.709780 0.775830 0.051710 -0.626875
O20   O     O_R   0.790220 0.275830 0.948290 -0.626834
O21   O     O_R   0.209780 0.275830 0.051710 -0.626857
O22   O     O_R   0.230030 0.678320 0.960120 -0.585778
O23   O     O_R   0.821630 0.269940 0.143350 -0.583522
O24   O     O_R   0.769970 0.678320 0.039880 -0.585766
O25   O     O_R   0.730030 0.178320 0.960120 -0.585825
O26   O     O_R   0.269970 0.178320 0.039880 -0.585785
O27   O     O_R   0.178350 0.730040 0.856700 -0.606064
O28   O     O_R   0.821650 0.730040 0.143300 -0.606076
O29   O     O_R   0.678350 0.230040 0.856700 -0.606012
O30   O     O_R   0.321650 0.230040 0.143300 -0.606057
O31   O     O_R   0.209770 0.724150 0.051760 -0.563216
O32   O     O_R   0.790230 0.724150 0.948240 -0.563214
O33   O     O_R   0.709770 0.224150 0.051760 -0.563215
O34   O     O_R   0.178370 0.269940 0.856650 -0.583529
O35   O     O_R   0.290230 0.224150 0.948240 -0.563207
O36   O     O_R   0.158090 0.775870 0.948330 -0.600749
O37   O     O_R   0.841910 0.775870 0.051670 -0.600747
O38   O     O_R   0.658090 0.275870 0.948330 -0.600759
O39   O     O_R   0.341910 0.275870 0.051670 -0.600747
O40   O     O_R   0.991500 0.545800 0.408400 -0.573897
O41   O     O_R   0.008500 0.545800 0.591600 -0.573913
O42   O     O_R   0.491500 0.045800 0.408400 -0.573914
O43   O     O_R   0.508500 0.045800 0.591600 -0.573876
O44   O     O_3   0.634925 0.827838 0.042280 -0.671290
O45   O     O_R   0.916920 0.545810 0.408440 -0.601369
O46   O     O_3   0.365113 0.827851 0.957793 -0.671258
O47   O     O_3   0.134938 0.327827 0.042324 -0.671289
O48   O     O_3   0.865081 0.327839 0.957724 -0.671249
O49   O     O_3   0.220153 0.725781 0.677740 -0.711591
O50   O     O_3   0.780011 0.725862 0.322425 -0.711601
O51   O     O_3   0.720461 0.225594 0.678006 -0.711604
O52   O     O_3   0.280009 0.225861 0.322423 -0.711594
O53   O     O_3   0.055286 0.621965 0.520401 -0.726292
O54   O     O_3   0.944786 0.621973 0.479641 -0.726354
O55   O     O_3   0.555357 0.121966 0.520451 -0.726224
O56   O     O_R   0.083080 0.545810 0.591560 -0.601337
O57   O     O_3   0.444784 0.121974 0.479635 -0.726296
O58   O     O_3   0.601452 0.674069 0.969194 -0.672080
O59   O     O_3   0.398490 0.674060 0.030703 -0.672117
O60   O     O_3   0.101459 0.174063 0.969198 -0.672089
O61   O     O_3   0.898517 0.174062 0.030752 -0.672155
O62   O     O_3   0.541486 0.631081 0.990963 -0.722805
O63   O     O_3   0.458455 0.631079 0.008928 -0.722814
O64   O     O_3   0.041405 0.131076 0.990809 -0.722818
O65   O     O_3   0.958365 0.131074 0.008760 -0.722849
O66   O     O_3   0.185473 0.849889 0.194550 -0.729688
O67   O     O_R   0.416920 0.045810 0.408440 -0.601384
O68   O     O_3   0.814515 0.849884 0.805426 -0.729689
O69   O     O_3   0.685481 0.349883 0.194568 -0.729692
O70   O     O_3   0.314505 0.349873 0.805403 -0.729687
O71   O     O_R   0.583080 0.045810 0.591560 -0.601388
O72   O     O_R   0.491480 0.954180 0.408380 -0.555774
Zn1   Zn    Zn3+2 0.284500 0.715460 0.069080 1.132782
Zn2   Zn    Zn3+2 0.450210 0.999990 0.500010 1.123028
Zn3   Zn    Zn3+2 0.049790 0.499990 0.499990 1.123019
Zn4   Zn    Zn3+2 0.950210 0.499990 0.500010 1.123024
Zn5   Zn    Zn3+2 0.715500 0.715460 0.930920 1.132811
Zn6   Zn    Zn3+2 0.784500 0.215460 0.069080 1.132781
Zn7   Zn    Zn3+2 0.215500 0.215460 0.930920 1.132767
Zn8   Zn    Zn3+2 0.215490 0.784530 0.930970 1.069544
Zn9   Zn    Zn3+2 0.784510 0.784530 0.069030 1.069522
Zn10  Zn    Zn3+2 0.715490 0.284530 0.930970 1.069620
Zn11  Zn    Zn3+2 0.284510 0.284530 0.069030 1.069559
Zn12  Zn    Zn3+2 0.549790 0.999990 0.499990 1.122950

loop_
_geom_bond_atom_site_label_1
_geom_bond_atom_site_label_2
_ccdc_geom_bond_type
C92   O23   A    
Br4   C139  S    
C27   C159  S    
C112  O17   A    
C82   H13   S    
C104  C108  A    
O35   Zn7   S    
C58   O46   S    
C65   O58   S    
C151  C165  A    
C39   O36   A    
C63   C67   A    
Br15  C46   S    
O37   Zn9   S    
Br13  C38   S    
C145  C150  A    
O26   Zn7   S    
C76   C77   A    
C53   C123  S    
C117  C121  A    
C143  C156  A    
C52   C122  S    
C120  C124  A    
C13   C24   A    
C1    C105  S    
C159  O24   A    
C7    O52   S    
C150  C162  A    
C119  C123  A    
C96   C122  A    
H31   O58   S    
C11   H8    S    
C63   C112  S    
C98   C102  A    
O30   Zn11  S    
O2    Zn2   S    
C75   C125  A    
O19   Zn9   S    
C51   O43   A    
C88   C93   A    
O6    Zn12  S    
C100  C105  A    
H41   O68   S    
O29   Zn10  S    
Br6   C31   S    
C99   C126  A    
Br25  C94   S    
C18   C44   A    
C59   C136  A    
O8    Zn3   S    
O72   Zn12  S    
C10   H7    S    
C127  C149  A    
C134  C139  A    
C97   C101  A    
C55   O8    A    
C42   O35   A    
Br10  C36   S    
C6    C168  A    
C78   H9    S    
C81   O10   A    
C138  C142  A    
C54   O3    A    
C66   O59   S    
C56   O44   S    
C43   C49   S    
C40   O37   A    
O17   Zn7   S    
C80   C102  A    
O15   Zn5   S    
C21   C26   A    
C25   C29   A    
C87   C91   A    
C31   C36   A    
C27   C31   A    
C28   C32   A    
H26   O52   S    
C84   O68   S    
C17   C21   A    
C40   C131  S    
C19   C23   A    
Br17  C68   S    
C95   C99   A    
C46   C114  A    
Br2   C137  S    
C93   C97   A    
C16   C20   A    
C74   C75   A    
C1    O9    A    
C94   C98   A    
C71   C75   A    
C111  O16   A    
C141  C145  A    
C42   C133  S    
C129  C133  A    
C61   C110  S    
C148  C152  A    
C92   C107  S    
C37   C45   A    
O4    Zn4   S    
C12   O53   S    
C163  H45   S    
C16   O57   S    
O71   Zn12  S    
C33   C38   A    
O45   Zn4   S    
C60   C64   A    
C86   C90   A    
C90   C95   A    
C83   O66   S    
C54   C124  S    
C41   O38   A    
C92   O11   A    
C167  H2    S    
Br14  C35   S    
Br20  C116  S    
C81   O12   A    
Br21  C117  S    
C20   C47   A    
C140  C153  A    
C113  C118  A    
C160  O29   A    
C157  O27   A    
O25   Zn6   S    
O7    Zn4   S    
O27   Zn8   S    
C103  O34   A    
O12   Zn5   S    
O32   Zn5   S    
Br29  C128  S    
C22   C27   A    
C107  C116  A    
C48   O40   A    
C30   C34   A    
C80   H11   S    
C2    C158  A    
C99   C104  A    
C102  C107  A    
C161  O26   A    
C165  H47   S    
C39   O31   A    
C22   C167  A    
C84   C88   A    
C40   O32   A    
C146  C151  A    
C115  C119  A    
C13   C72   A    
C29   C33   A    
C142  C155  A    
C50   O67   A    
C28   C160  S    
C35   C125  A    
C32   C37   A    
C83   C87   A    
H22   O49   S    
C61   C65   A    
C41   O33   A    
C73   C77   A    
C8    H5    S    
C82   C104  A    
O24   Zn5   S    
C116  C120  A    
C13   O64   S    
C47   C50   S    
C98   C124  A    
C143  C148  A    
O33   Zn6   S    
C36   C44   A    
C2    C71   A    
C109  O18   A    
C58   C125  A    
C79   H10   S    
O3    Zn3   S    
C155  H23   S    
C42   O39   A    
O28   Zn9   S    
Br26  C95   S    
O56   Zn3   S    
C5    C9    A    
H39   O65   S    
C59   C63   A    
C48   O45   A    
Br16  C57   S    
C87   H14   S    
C52   O5    A    
C137  C141  A    
C23   C28   A    
C49   O41   A    
C108  C117  A    
C140  C144  A    
C26   C30   A    
Br23  C120  S    
C90   H17   S    
C154  H12   S    
C155  C164  A    
H27   O53   S    
C153  C162  A    
Br18  C113  S    
Br22  C91   S    
O36   Zn8   S    
C88   H15   S    
C53   O6    A    
C18   C22   A    
C128  C132  A    
C105  C113  A    
C4    C166  A    
C52   O72   A    
O67   Zn2   S    
C80   C85   A    
O38   Zn10  S    
C3    H4    S    
H32   O59   S    
C62   C66   A    
C66   C71   A    
C111  O20   A    
C153  H1    S    
C9    H6    S    
O11   Zn10  S    
C130  C134  A    
O21   Zn11  S    
C166  H48   S    
C78   C100  A    
C79   C84   A    
C142  C146  A    
C65   C70   A    
C67   C72   A    
Br31  C130  S    
C101  C106  A    
H42   O69   S    
C64   C69   A    
O34   Zn7   S    
C103  C108  S    
C53   O2    A    
O1    Zn1   S    
C58   C62   A    
C144  C149  A    
C39   C132  S    
C57   C68   A    
C44   C48   S    
C157  O22   A    
C97   C123  A    
H30   O57   S    
C15   C19   A    
O43   Zn2   S    
C152  C164  A    
Br19  C115  S    
C129  C151  A    
C3    C7    A    
C19   C45   A    
C130  C152  A    
C60   C147  A    
C160  O25   A    
C158  O62   S    
C86   O70   S    
C23   C168  A    
C67   O60   S    
C1    O1    A    
O40   Zn3   S    
H28   O54   S    
H29   O55   S    
C72   C76   A    
C156  H34   S    
C24   O65   S    
C5    O50   S    
O23   Zn6   S    
H43   O70   S    
C74   C114  A    
C146  C148  A    
Br11  C37   S    
Br3   C138  S    
C135  C140  A    
C60   O48   S    
C3    C25   A    
O31   Zn1   S    
C112  O21   A    
C64   C111  S    
C110  O15   A    
C38   C47   A    
C156  C165  A    
C34   C43   A    
C59   O47   S    
C70   C158  A    
O22   Zn1   S    
C149  C163  A    
C24   C73   A    
C20   C25   A    
C2    O63   S    
Br32  C135  S    
C81   C106  S    
Br30  C129  S    
C78   C83   A    
C12   C17   A    
Br27  C121  S    
Br1   C118  S    
O20   Zn10  S    
C109  O14   A    
C4    O49   S    
C161  O30   A    
C162  H44   S    
C21   C166  A    
C6    C10   A    
H40   O66   S    
C45   C51   S    
C29   C161  S    
C121  C126  A    
C85   C89   A    
Br9   C34   S    
C50   O42   A    
O14   Zn1   S    
H21   O48   S    
C9    C14   A    
C11   C16   A    
H36   O62   S    
H37   O63   S    
C5    C167  A    
H38   O64   S    
C6    O51   S    
H24   O50   S    
C133  C138  A    
Br12  C119  S    
C132  C137  A    
C35   C46   A    
C96   C100  A    
C128  C150  A    
C69   C73   A    
C55   O4    A    
C141  C154  A    
O9    Zn8   S    
C89   H16   S    
C154  C163  A    
C4    C8    A    
C110  O19   A    
C79   C101  A    
C7    C11   A    
C54   O7    A    
C139  C143  A    
Br28  C127  S    
O13   Zn11  S    
C131  C135  A    
C14   O54   S    
C77   C147  A    
H19   O46   S    
O39   Zn11  S    
C8    C12   A    
C106  C115  A    
C26   C157  S    
C17   C43   A    
C82   C86   A    
O10   Zn9   S    
H35   O61   S    
C144  C145  A    
C103  O13   A    
Br24  C93   S    
C127  C131  A    
H33   O60   S    
C49   O56   A    
C159  O28   A    
C56   C61   A    
C164  H46   S    
C62   C109  S    
C15   O55   S    
C41   C134  S    
C14   C18   A    
O16   Zn6   S    
H25   O51   S    
C55   C126  S    
C68   C136  A    
C89   C94   A    
H20   O47   S    
C91   C96   A    
C85   O69   S    
O5    Zn2   S    
C168  H3    S    
C51   O71   A    
Br5   C30   S    
C70   C74   A    
C10   C15   A    
C57   C147  A    
C76   C136  A    
Br7   C32   S    
Br8   C33   S    
C69   O61   S    
C118  C122  A    
O42   Zn12  S    
C56   C114  A    
O41   Zn4   S    
H18   O44   S    
O18   Zn8   S    
