data_mof_unit_15321.cif
_audit_creation_date              2012-12-10T19:37:37-0500
_audit_creation_method            fapswitch 2.2
_symmetry_space_group_name_H-M    P1
_symmetry_Int_Tables_number       1
_space_group_crystal_system       triclinic
_cell_length_a                    14.007172
_cell_length_b                    15.973514
_cell_length_c                    17.053369
_cell_angle_alpha                 94.307616
_cell_angle_beta                  84.03877
_cell_angle_gamma                 83.736602
_cell_volume                      3757.85245359

loop_
_atom_site_label
_atom_site_type_symbol
_atom_type_description
_atom_site_fract_x
_atom_site_fract_y
_atom_site_fract_z
_atom_type_partial_charge
C1    C     C_R   0.501332 0.509003 0.650644 0.845776
C2    C     C_R   0.499947 0.490912 0.349374 0.858069
C3    C     C_R   0.440537 0.499482 0.869351 -0.221448
C4    C     C_R   0.570695 0.469692 0.129693 -0.214026
C5    C     C_R   0.428061 0.504666 0.789749 -0.027818
C6    C     C_R   0.579264 0.470945 0.210551 -0.031002
C7    C     C_R   0.440100 0.249148 0.534019 0.115721
C8    C     C_R   0.559589 0.750589 0.465554 0.123871
C9    C     C_R   0.436805 0.159836 0.524715 0.398911
C10   C     C_R   0.564099 0.839721 0.475546 0.398950
C11   C     C_R   0.512057 0.107199 0.478450 0.213550
C12   C     C_R   0.489587 0.892603 0.522474 0.209431
C13   C     C_R   0.581059 0.145834 0.434442 -0.408088
C14   C     C_R   0.420347 0.854154 0.566426 -0.406115
C15   C     C_R   0.580327 0.234637 0.439168 0.242047
C16   C     C_R   0.420211 0.765417 0.561136 0.238205
C17   C     C_R   0.316865 0.512818 0.501102 0.854223
C18   C     C_R   0.683264 0.487180 0.497448 0.844275
C19   C     C_1   0.786018 0.481344 0.493304 -0.213537
C20   C     C_1   0.214371 0.518838 0.502356 -0.191743
C21   C     C_2   0.976643 0.466902 0.486075 0.087206
C22   C     C_2   0.024016 0.534190 0.506064 0.084156
C23   C     C_1   0.127945 0.524604 0.504075 -0.042715
C24   C     C_1   0.872597 0.476003 0.489637 -0.059379
C25   C     C_R   0.509541 0.510244 0.735358 -0.161717
C26   C     C_R   0.494794 0.488977 0.264493 -0.161669
C27   C     C_R   0.601787 0.511764 0.761537 0.418515
C28   C     C_R   0.403372 0.506581 0.237712 0.405391
C29   C     C_R   0.611917 0.514243 0.843171 -0.028274
C30   C     C_R   0.395341 0.502746 0.155757 -0.021677
C31   C     C_R   0.531258 0.504888 0.897109 0.249631
C32   C     C_R   0.479982 0.486059 0.101965 0.262298
Cu1   Cu    Cu3+1 0.495370 0.585120 0.503830 0.918556
Cu2   Cu    Cu3+1 0.504630 0.414880 0.496170 0.913678
H1    H     H_    0.377826 0.492403 0.910050 0.175608
H2    H     H_    0.635115 0.454134 0.087938 0.164891
H3    H     H_    0.635490 0.105830 0.394465 0.183871
H4    H     H_    0.365951 0.894238 0.606386 0.186602
N1    N     N_2   0.542521 0.503829 0.979005 -0.249599
N2    N     N_2   0.471110 0.483482 0.019923 -0.248578
N3    N     N_R   0.511590 0.287020 0.490400 -0.214581
N4    N     N_R   0.488410 0.712980 0.509600 -0.216568
N5    N     N_2   0.517738 0.016302 0.470488 -0.178033
N6    N     N_2   0.484031 0.983491 0.530382 -0.169283
O1    O     O_R   0.495670 0.579790 0.617520 -0.580699
O2    O     O_R   0.504330 0.420210 0.382480 -0.591551
O3    O     O_R   0.503490 0.436020 0.611040 -0.619189
O4    O     O_R   0.496510 0.563980 0.388960 -0.612092
O5    O     O_R   0.357690 0.582040 0.503680 -0.592589
O6    O     O_R   0.642310 0.417960 0.496320 -0.598371
O7    O     O_R   0.365510 0.438280 0.497200 -0.574528
O8    O     O_R   0.634490 0.561720 0.502800 -0.574155
C33   C     C_3   0.973160 0.622682 0.531788 -0.385427
C34   C     C_3   0.012749 0.687850 0.478962 -0.339545
C35   C     C_3   0.962724 0.777124 0.503448 -0.886576
H5    H     H_    0.884076 0.779604 0.500783 0.254041
H6    H     H_    0.974838 0.798145 0.564649 0.252827
H7    H     H_    0.991863 0.821664 0.462772 0.242235
H8    H     H_    0.091318 0.688614 0.482546 0.224680
H9    H     H_    0.003058 0.669707 0.416428 0.215765
H10   H     H_    0.893768 0.626694 0.530535 0.206847
H11   H     H_    0.985673 0.639338 0.594031 0.197279
C36   C     C_3   0.028052 0.379150 0.458096 -0.382550
C37   C     C_3   0.989124 0.311261 0.507881 -0.343495
C38   C     C_3   0.044977 0.224262 0.483271 -0.877960
H12   H     H_    0.039334 0.204988 0.420199 0.252673
H13   H     H_    0.122167 0.225233 0.491528 0.246714
H14   H     H_    0.015055 0.176869 0.520259 0.242723
H15   H     H_    0.993619 0.327987 0.571560 0.212123
H16   H     H_    0.911923 0.307677 0.500583 0.227948
H17   H     H_    0.015914 0.364672 0.395388 0.195510
H18   H     H_    0.107346 0.375452 0.459476 0.210058
O9    O     O_3   0.321515 0.519788 0.292294 -0.588086
C39   C     C_3   0.295878 0.607547 0.310886 -0.321376
H19   H     H_    0.358963 0.642058 0.321287 0.171652
H20   H     H_    0.245256 0.617454 0.366104 0.185596
H21   H     H_    0.257144 0.635545 0.263952 0.157212
O10   O     O_3   0.682201 0.513207 0.707304 -0.580349
C40   C     C_3   0.724019 0.429072 0.685060 -0.348965
H22   H     H_    0.679339 0.395785 0.645749 0.194714
H23   H     H_    0.734995 0.391880 0.736695 0.140265
H24   H     H_    0.796156 0.430368 0.651886 0.190539
C41   C     C_3   0.296923 0.513333 0.125140 -0.352814
C42   C     C_3   0.278218 0.597402 0.087663 -0.355137
C43   C     C_3   0.178137 0.607452 0.059273 -0.877391
H25   H     H_    0.171730 0.555202 0.014001 0.256331
H26   H     H_    0.121276 0.607318 0.109770 0.256176
H27   H     H_    0.166702 0.668365 0.032268 0.244971
H28   H     H_    0.283799 0.651356 0.131221 0.210376
H29   H     H_    0.332557 0.600705 0.036181 0.238568
H30   H     H_    0.292662 0.459689 0.080640 0.194423
H31   H     H_    0.238058 0.509930 0.173302 0.231348
C44   C     C_3   0.708864 0.527356 0.871922 -0.354632
C45   C     C_3   0.727679 0.619945 0.869508 -0.312135
C46   C     C_3   0.825496 0.633583 0.897110 -0.869042
H32   H     H_    0.827938 0.616786 0.958980 0.251958
H33   H     H_    0.884662 0.594245 0.858024 0.258430
H34   H     H_    0.837021 0.701076 0.894814 0.243373
H35   H     H_    0.726646 0.639015 0.808216 0.249277
H36   H     H_    0.669911 0.661066 0.908583 0.214315
H37   H     H_    0.712306 0.509231 0.933251 0.196652
H38   H     H_    0.768086 0.485984 0.835068 0.207633
C47   C     C_3   0.327381 0.500783 0.765548 -0.388982
C48   C     C_3   0.257691 0.578476 0.801121 -0.339065
C49   C     C_3   0.152944 0.565703 0.791448 -0.873330
H39   H     H_    0.143923 0.550246 0.728359 0.255278
H40   H     H_    0.130758 0.513431 0.826023 0.254550
H41   H     H_    0.104900 0.624461 0.813637 0.247152
H42   H     H_    0.263292 0.591282 0.865309 0.224492
H43   H     H_    0.276953 0.634740 0.771218 0.217788
H44   H     H_    0.327661 0.497125 0.700443 0.169879
H45   H     H_    0.300588 0.442191 0.785956 0.205747
C50   C     C_3   0.679065 0.451671 0.236760 -0.391247
C51   C     C_3   0.742505 0.521594 0.218151 -0.344574
C52   C     C_3   0.840385 0.504850 0.249556 -0.866300
H46   H     H_    0.830712 0.505272 0.315042 0.252094
H47   H     H_    0.878291 0.442680 0.223619 0.257028
H48   H     H_    0.885989 0.554874 0.233194 0.244334
H49   H     H_    0.754740 0.525418 0.153151 0.217715
H50   H     H_    0.705226 0.583301 0.245819 0.218713
H51   H     H_    0.675421 0.444700 0.301083 0.177311
H52   H     H_    0.713774 0.390314 0.206100 0.199764
C53   C     C_3   0.630630 0.701861 0.399356 -0.309215
C54   C     C_3   0.738134 0.698190 0.412929 -0.293152
C55   C     C_3   0.798554 0.732771 0.345291 -0.835397
H53   H     H_    0.794147 0.695629 0.288472 0.240501
H54   H     H_    0.773205 0.799825 0.339111 0.294123
H55   H     H_    0.875265 0.728322 0.356372 0.238384
H56   H     H_    0.746648 0.731351 0.470452 0.217564
H57   H     H_    0.768641 0.631558 0.415971 0.202723
H58   H     H_    0.618251 0.636769 0.387774 0.213633
H59   H     H_    0.617651 0.730726 0.343456 0.180498
C56   C     C_3   0.367201 0.298253 0.598607 -0.306107
C57   C     C_3   0.260903 0.302820 0.582108 -0.344875
C58   C     C_3   0.196787 0.367498 0.640864 -0.888419
H60   H     H_    0.203122 0.351358 0.702476 0.254907
H61   H     H_    0.217440 0.431640 0.634298 0.249132
H62   H     H_    0.120351 0.368176 0.629813 0.252213
H63   H     H_    0.253730 0.319629 0.520821 0.229612
H64   H     H_    0.232917 0.241680 0.589842 0.257123
H65   H     H_    0.374765 0.269008 0.655135 0.178147
H66   H     H_    0.381793 0.362695 0.610141 0.242568
O11   O     O_3   0.640460 0.874163 0.436678 -0.565258
C59   C     C_3   0.701747 0.901580 0.492140 -0.310558
H67   H     H_    0.677638 0.967462 0.517016 0.194456
H68   H     H_    0.775291 0.901253 0.460898 0.178391
H69   H     H_    0.707927 0.860363 0.541743 0.129400
O12   O     O_3   0.360630 0.124744 0.563045 -0.570016
C60   C     C_3   0.299275 0.099752 0.506745 -0.344661
H70   H     H_    0.329919 0.039864 0.471605 0.198900
H71   H     H_    0.283356 0.149404 0.465855 0.136542
H72   H     H_    0.229518 0.088274 0.538817 0.181189
C61   C     C_3   0.654782 0.267011 0.381887 -0.334239
C62   C     C_3   0.758313 0.242951 0.400897 -0.374477
C63   C     C_3   0.830772 0.279575 0.343706 -0.876870
H73   H     H_    0.905382 0.256453 0.354285 0.252402
H74   H     H_    0.821357 0.259502 0.281467 0.252600
H75   H     H_    0.820897 0.349671 0.352541 0.259560
H76   H     H_    0.765148 0.267532 0.462473 0.229595
H77   H     H_    0.776051 0.173142 0.395921 0.215745
H78   H     H_    0.647439 0.239931 0.321072 0.167544
H79   H     H_    0.643924 0.335224 0.379875 0.242306
C64   C     C_3   0.343689 0.733334 0.616646 -0.331460
C65   C     C_3   0.241931 0.757270 0.593526 -0.372708
C66   C     C_3   0.166466 0.721850 0.648566 -0.872786
H80   H     H_    0.176248 0.651836 0.639920 0.260681
H81   H     H_    0.172487 0.742751 0.711263 0.256152
H82   H     H_    0.093132 0.744997 0.635314 0.250806
H83   H     H_    0.224672 0.827096 0.597267 0.215689
H84   H     H_    0.238011 0.731827 0.531638 0.229820
H85   H     H_    0.354541 0.665074 0.620420 0.243596
H86   H     H_    0.347828 0.761665 0.677649 0.161193

loop_
_geom_bond_atom_site_label_1
_geom_bond_atom_site_label_2
_ccdc_geom_bond_type
C58   H62   S    
C29   C44   S    
C35   H5    S    
C4    H2    S    
C66   H80   S    
C53   H59   S    
C63   H74   S    
Cu1   O1    S    
O9    C39   S    
C65   H84   S    
C46   H32   S    
C27   O10   S    
C17   O7    A    
C5    C47   S    
C51   C52   S    
C46   H34   S    
C18   O8    A    
C53   C54   S    
C34   H9    S    
C43   H25   S    
C2    O2    A    
Cu1   O8    S    
C41   H31   S    
C49   H40   S    
C56   H66   S    
C44   C45   S    
C39   H20   S    
Cu1   N4    S    
C65   C66   S    
C8    N4    A    
C7    C56   S    
C60   H71   S    
C57   H64   S    
C48   H42   S    
C27   C29   A    
Cu1   O5    S    
O11   C59   S    
C17   C20   S    
C47   H44   S    
C18   C19   S    
C30   C41   S    
C47   C48   S    
C33   H10   S    
C50   H52   S    
C64   C65   S    
C52   H47   S    
C39   H21   S    
C55   H55   S    
C11   N5    S    
Cu2   O2    S    
C45   H36   S    
C64   H85   S    
C13   H3    S    
C51   H49   S    
C38   H14   S    
C7    N3    A    
C66   H81   S    
C21   C22   D    
C63   H75   S    
C1    C25   S    
C65   H83   S    
Cu2   N3    S    
C42   H29   S    
C59   H69   S    
C28   O9    S    
C48   C49   S    
C22   C33   S    
C34   H8    S    
C43   H26   S    
C16   C64   S    
C49   H41   S    
Cu2   O6    S    
C21   C36   S    
C39   H19   S    
C58   H60   S    
O12   C60   S    
C15   N3    A    
C59   H68   S    
C60   H72   S    
C44   H37   S    
C57   H63   S    
C40   H23   S    
O10   C40   S    
C1    O3    A    
C38   H13   S    
C33   C34   S    
C36   C37   S    
C61   H78   S    
C47   H45   S    
N5    N6    D    
C6    C50   S    
C62   H77   S    
C14   H4    S    
C33   H11   S    
C41   C42   S    
C20   C23   T    
C3    H1    S    
C52   H48   S    
C6    C26   A    
Cu1   Cu2   S    
Cu2   O7    S    
C54   H57   S    
C2    C26   S    
C37   H15   S    
C42   C43   S    
C3    C31   A    
C64   H86   S    
C9    C11   A    
C62   C63   S    
C4    C32   A    
C10   C12   A    
C5    C25   A    
C4    C6    A    
C12   C14   A    
C66   H82   S    
C37   H16   S    
C35   H6    S    
C55   H53   S    
C14   C16   A    
C48   H43   S    
C35   H7    S    
C42   H28   S    
C17   O5    A    
C16   N4    A    
N1    N2    D    
C18   O6    A    
C50   C51   S    
C43   H27   S    
C58   H61   S    
C34   C35   S    
C53   H58   S    
C56   H65   S    
C36   H17   S    
C59   H67   S    
C3    C5    A    
C44   H38   S    
C40   H24   S    
C46   H33   S    
C8    C53   S    
C57   C58   S    
C25   C27   A    
C41   H30   S    
C49   H39   S    
C9    O12   S    
C26   C28   A    
C61   H79   S    
C2    O4    A    
C37   C38   S    
C13   C15   A    
C19   C24   T    
C62   H76   S    
C29   C31   A    
C60   H70   S    
C30   C32   A    
C11   C13   A    
C1    O1    A    
C56   C57   S    
C45   H35   S    
C28   C30   A    
C31   N1    S    
C54   H56   S    
C10   O11   S    
C32   N2    S    
C45   C46   S    
C15   C61   S    
C40   H22   S    
C7    C9    A    
C50   H51   S    
C36   H18   S    
C8    C10   A    
C38   H12   S    
C21   C24   S    
C63   H73   S    
C55   H54   S    
Cu1   O4    S    
C22   C23   S    
C12   N6    S    
Cu2   O3    S    
C61   C62   S    
C51   H50   S    
C52   H46   S    
C54   C55   S    
