data_mof_unit_60857.cif
_audit_creation_date              2013-03-05T16:29:53-0500
_audit_creation_method            fapswitch 2.2
_symmetry_space_group_name_H-M    P1
_symmetry_Int_Tables_number       1
_space_group_crystal_system       triclinic
_cell_length_a                    39.285941
_cell_length_b                    32.099389
_cell_length_c                    21.741102
_cell_angle_alpha                 90.853489
_cell_angle_beta                  125.310723
_cell_angle_gamma                 89.81506
_cell_volume                      22369.8806306

loop_
_atom_site_label
_atom_site_type_symbol
_atom_site_description
_atom_site_fract_x
_atom_site_fract_y
_atom_site_fract_z
_atom_type_partial_charge
O1    O     O_R   0.439010 0.534430 0.439020 -0.619456
O2    O     O_R   0.560990 0.534430 0.560980 -0.615681
O3    O     O_R   0.939010 0.034430 0.439020 -0.619591
O4    O     O_R   0.060990 0.034430 0.560980 -0.615658
O5    O     O_R   0.439010 0.465570 0.438980 -0.615502
O6    O     O_R   0.560990 0.465570 0.561020 -0.619218
O7    O     O_R   0.939010 0.965570 0.438980 -0.615677
O8    O     O_R   0.060990 0.965570 0.561020 -0.619231
C1    C     C_R   0.419293 0.499881 0.419252 0.910850
C2    C     C_R   0.580706 0.500114 0.580745 0.911073
C3    C     C_R   0.919293 0.999882 0.419249 0.911068
C4    C     C_R   0.080706 0.000114 0.580744 0.911086
O9    O     O_R   0.500010 0.534430 0.590460 -0.623295
O10   O     O_R   0.499990 0.534430 0.409540 -0.616200
O11   O     O_R   0.000010 0.034430 0.590460 -0.623262
O12   O     O_R   0.999990 0.034430 0.409540 -0.616204
O13   O     O_R   0.500010 0.465570 0.590420 -0.615739
O14   O     O_R   0.499990 0.465570 0.409580 -0.622945
O15   O     O_R   0.000010 0.965570 0.590420 -0.615784
O16   O     O_R   0.999990 0.965570 0.409580 -0.622972
C5    C     C_R   0.502783 0.500503 0.621908 0.932793
C6    C     C_R   0.497187 0.499482 0.378068 0.932991
C7    C     C_R   0.002782 0.000503 0.621907 0.932905
C8    C     C_R   0.997191 0.999482 0.378070 0.933059
Zn1   Zn    Zn3+2 0.500000 0.545980 0.500000 0.958979
Zn2   Zn    Zn3+2 0.000000 0.045980 0.500000 0.958885
Zn3   Zn    Zn3+2 0.500000 0.454020 0.500000 0.959756
Zn4   Zn    Zn3+2 1.000000 0.954020 0.500000 0.959464
C9    C     C_2   0.529519 0.476169 0.813219 -0.169386
C10   C     C_2   0.470531 0.523865 0.186834 -0.169505
C11   C     C_2   0.029523 0.976174 0.813223 -0.169487
C12   C     C_2   0.970523 0.023855 0.186825 -0.169420
C13   C     C_2   0.495365 0.486418 0.810429 0.027616
C14   C     C_2   0.504653 0.513468 0.189617 0.027860
C15   C     C_2   0.995367 0.986412 0.810432 0.027412
C16   C     C_2   0.004649 0.013480 0.189611 0.027789
H1    H     H_    0.559701 0.472863 0.866769 0.150453
H2    H     H_    0.440383 0.527348 0.133284 0.150962
H3    H     H_    0.059707 0.972879 0.866773 0.150481
H4    H     H_    0.940371 0.027315 0.133276 0.151075
C17   C     C_2   0.527829 0.472541 0.744396 -0.163482
C18   C     C_2   0.472209 0.527492 0.255643 -0.163596
C19   C     C_2   0.027833 0.972545 0.744400 -0.163627
C20   C     C_2   0.972203 0.027481 0.255636 -0.163393
C21   C     C_2   0.509225 0.502856 0.694078 -0.337599
C22   C     C_2   0.490668 0.497099 0.305834 -0.338550
C23   C     C_2   0.009220 0.002856 0.694073 -0.337463
C24   C     C_2   0.990680 0.997100 0.305845 -0.338529
H5    H     H_    0.541962 0.446042 0.735762 0.167879
H6    H     H_    0.458229 0.554084 0.264412 0.168887
H7    H     H_    0.041975 0.946052 0.735773 0.167812
H8    H     H_    0.958204 0.054063 0.264386 0.168873
H9    H     H_    0.499208 0.531117 0.707442 0.173007
H10   H     H_    0.500542 0.468777 0.292342 0.173623
H11   H     H_    0.999193 0.031113 0.707429 0.173042
H12   H     H_    0.000573 0.968785 0.292371 0.173549
H13   H     H_    0.286279 0.451397 0.217905 0.141345
H14   H     H_    0.712964 0.452373 0.779572 0.140369
H15   H     H_    0.786530 0.944732 0.229866 0.141655
H16   H     H_    0.212996 0.953007 0.780558 0.140340
C25   C     C_R   0.227116 0.472183 0.190574 -0.181823
C26   C     C_R   0.772451 0.472945 0.808080 -0.181832
C27   C     C_R   0.727258 0.968467 0.197420 -0.181955
C28   C     C_R   0.272468 0.973305 0.808647 -0.181758
H17   H     H_    0.209510 0.451388 0.142089 0.141776
H18   H     H_    0.789720 0.452093 0.855289 0.141452
H19   H     H_    0.709759 0.944734 0.154067 0.141521
H20   H     H_    0.289750 0.952727 0.856277 0.141502
C29   C     C_R   0.206685 0.499098 0.210293 0.168824
C30   C     C_R   0.793310 0.499735 0.789898 0.168879
C31   C     C_R   0.706690 0.999162 0.210497 0.169163
C32   C     C_R   0.293310 0.999740 0.789919 0.168855
C33   C     C_R   0.229500 0.525954 0.272833 -0.182748
C34   C     C_R   0.770928 0.526668 0.729006 -0.182670
C35   C     C_R   0.729367 0.029800 0.266404 -0.182780
C36   C     C_R   0.270912 0.026321 0.728484 -0.182666
H21   H     H_    0.213745 0.546872 0.288164 0.141202
H22   H     H_    0.787018 0.547492 0.714874 0.141376
H23   H     H_    0.713505 0.053648 0.276566 0.140893
H24   H     H_    0.286988 0.046870 0.713925 0.141377
C37   C     C_R   0.272935 0.525971 0.315705 -0.182522
C38   C     C_R   0.727493 0.526848 0.686193 -0.181971
C39   C     C_R   0.772800 0.029811 0.309257 -0.182565
C40   C     C_R   0.227477 0.026500 0.685668 -0.181972
H25   H     H_    0.290546 0.546876 0.364019 0.140904
H26   H     H_    0.710214 0.547769 0.639099 0.141308
H27   H     H_    0.790301 0.053644 0.352397 0.141155
H28   H     H_    0.210184 0.047145 0.638149 0.141280
C41   C     C_R   0.293355 0.499145 0.295824 0.169152
C42   C     C_R   0.706649 0.500111 0.704502 0.169405
C43   C     C_R   0.793358 0.999196 0.295989 0.168808
C44   C     C_R   0.206649 0.000117 0.704518 0.169436
C45   C     C_R   0.270537 0.472202 0.233429 -0.182731
C46   C     C_R   0.729036 0.473126 0.765291 -0.183150
C47   C     C_R   0.770681 0.968479 0.240260 -0.182459
C48   C     C_R   0.229054 0.973486 0.765855 -0.183149
C49   C     C_1   0.162259 0.499475 0.165655 -0.070808
C50   C     C_1   0.837738 0.499868 0.834416 -0.070805
C51   C     C_1   0.662261 0.999510 0.165737 -0.070706
C52   C     C_1   0.337738 0.999871 0.834424 -0.070767
C53   C     C_1   0.337757 0.499389 0.339267 -0.071665
C54   C     C_1   0.662245 0.500317 0.660911 -0.071579
C55   C     C_1   0.837758 0.999411 0.339351 -0.071727
C56   C     C_1   0.162246 0.000321 0.660920 -0.071568
C57   C     C_1   0.375053 0.499612 0.375757 -0.182156
C58   C     C_1   0.624947 0.500323 0.624321 -0.182146
C59   C     C_1   0.875054 0.999618 0.375789 -0.182197
C60   C     C_1   0.124947 0.000325 0.624325 -0.182159
C61   C     C_1   0.124932 0.499755 0.127494 -0.179911
C62   C     C_1   0.875067 0.499938 0.872517 -0.179911
C63   C     C_1   0.624932 0.999772 0.127513 -0.179837
C64   C     C_1   0.375067 0.999940 0.872520 -0.179859
O17   O     O_R   0.534430 0.439010 0.034350 -0.617363
O18   O     O_R   0.465570 0.439010 0.965650 -0.615999
O19   O     O_R   0.034430 0.939010 0.034350 -0.617281
O20   O     O_R   0.965570 0.939010 0.965650 -0.615883
C65   C     C_R   0.499884 0.419320 0.999860 0.911187
C66   C     C_R   0.999884 0.919320 0.999861 0.911040
O21   O     O_R   0.534420 0.500000 0.943920 -0.636209
O22   O     O_R   0.465580 0.500000 0.056080 -0.636371
O23   O     O_R   0.034420 1.000000 0.943920 -0.636204
O24   O     O_R   0.965580 0.000000 0.056080 -0.636336
O25   O     O_R   0.465560 0.500000 0.875080 -0.614325
O26   O     O_R   0.534440 0.500000 0.124920 -0.614124
O27   O     O_R   0.965560 1.000000 0.875080 -0.614282
O28   O     O_R   0.034440 1.000000 0.124920 -0.614126
C67   C     C_R   0.499080 0.496882 0.879634 0.908781
C68   C     C_R   0.500922 0.503089 0.120374 0.908935
C69   C     C_R   0.999081 0.996880 0.879635 0.908777
C70   C     C_R   0.000922 0.003092 0.120373 0.908877
Zn5   Zn    Zn3+2 0.545980 0.500000 0.045940 0.955739
Zn6   Zn    Zn3+2 0.454020 0.500000 0.954060 0.955575
Zn7   Zn    Zn3+2 0.045980 0.000000 0.045940 0.955842
Zn8   Zn    Zn3+2 0.954020 0.000000 0.954060 0.955904
O29   O     O_R   0.534430 0.560990 0.034430 -0.615746
O30   O     O_R   0.465570 0.560990 0.965570 -0.617153
O31   O     O_R   0.034430 0.060990 0.034430 -0.615784
O32   O     O_R   0.965570 0.060990 0.965570 -0.617146
C71   C     C_R   0.500118 0.580721 0.000141 0.912299
C72   C     C_R   0.000118 0.080721 0.000141 0.912309
O33   O     O_R   0.000000 0.439050 0.051090 -0.615528
O34   O     O_R   0.000000 0.439050 0.948910 -0.616123
O35   O     O_R   0.500000 0.939050 0.051090 -0.615559
O36   O     O_R   0.500000 0.939050 0.948910 -0.616129
C73   C     C_R   0.999991 0.419388 0.999577 0.907210
C74   C     C_R   0.499991 0.919388 0.999577 0.907150
O37   O     O_R   0.060990 0.500040 0.112010 -0.616741
O38   O     O_R   0.939010 0.500040 0.887990 -0.616740
O39   O     O_R   0.560990 0.000040 0.112010 -0.616611
O40   O     O_R   0.439010 0.000040 0.887990 -0.616743
O41   O     O_R   0.060980 0.499970 0.009870 -0.615072
O42   O     O_R   0.939020 0.499970 0.990130 -0.615085
O43   O     O_R   0.560980 0.999970 0.009870 -0.614888
O44   O     O_R   0.439020 0.999970 0.990130 -0.615086
C75   C     C_R   0.080656 0.499999 0.081446 0.907806
C76   C     C_R   0.919344 0.499983 0.918555 0.907744
C77   C     C_R   0.580656 0.999999 0.081448 0.907578
C78   C     C_R   0.419344 0.999984 0.918556 0.907746
Zn9   Zn    Zn3+2 0.000010 0.500050 0.068180 0.967848
Zn10  Zn    Zn3+2 0.999990 0.500050 0.931820 0.967830
Zn11  Zn    Zn3+2 0.500010 0.000050 0.068180 0.968062
Zn12  Zn    Zn3+2 0.499990 0.000050 0.931820 0.968088
O45   O     O_R   0.000010 0.561020 0.051000 -0.616462
O46   O     O_R   0.999990 0.561020 0.949000 -0.615889
O47   O     O_R   0.500010 0.061020 0.051000 -0.616414
O48   O     O_R   0.499990 0.061020 0.949000 -0.615844
C79   C     C_R   0.000006 0.580661 0.000420 0.906728
C80   C     C_R   0.500007 0.080660 0.000421 0.906590
H29   H     H_    0.446115 0.289626 0.003770 0.151009
H30   H     H_    0.553362 0.289029 0.997823 0.150379
H31   H     H_    0.949740 0.789745 0.014079 0.150872
H32   H     H_    0.049718 0.788917 0.987384 0.150233
C81   C     C_R   0.971321 0.728744 0.009016 0.163538
C82   C     C_R   0.028503 0.728281 0.993757 0.164122
C83   C     C_R   0.469248 0.228677 0.003154 0.163688
C84   C     C_R   0.530586 0.228346 0.999760 0.164430
C85   C     C_R   0.999967 0.706726 0.001591 0.121324
C86   C     C_R   0.499970 0.206725 0.001654 0.121467
C87   C     C_R   0.530109 0.271887 0.999299 -0.186599
C88   C     C_R   0.469465 0.272224 0.002661 -0.186176
C89   C     C_R   0.028045 0.771824 0.993367 -0.186580
C90   C     C_R   0.971511 0.772292 0.008458 -0.186198
C91   C     C_R   0.499709 0.293511 0.000692 0.070431
C92   C     C_R   0.999696 0.793513 0.000628 0.070638
C93   C     C_1   0.999962 0.662104 0.001595 -0.032338
C94   C     C_1   0.499963 0.162102 0.001620 -0.032137
C95   C     C_1   0.499609 0.337876 0.000197 -0.040340
C96   C     C_1   0.999604 0.837877 0.000166 -0.040324
C97   C     C_1   0.499659 0.375138 0.999921 -0.185463
C98   C     C_1   0.999658 0.875139 0.999910 -0.185399
C99   C     C_1   0.999978 0.624839 0.001258 -0.183406
C100  C     C_1   0.499978 0.124838 0.001264 -0.183375
H33   H     H_    0.456406 0.710380 0.878474 0.140783
H34   H     H_    0.544890 0.712966 0.120402 0.140973
H35   H     H_    0.954535 0.210397 0.878993 0.140862
H36   H     H_    0.046750 0.212948 0.119832 0.141050
C101  C     C_R   0.974661 0.271037 0.931163 -0.182375
C102  C     C_R   0.026587 0.272466 0.066775 -0.181872
C103  C     C_R   0.475717 0.771028 0.930888 -0.182303
C104  C     C_R   0.525542 0.772476 0.067112 -0.181975
H37   H     H_    0.954466 0.287145 0.878447 0.141415
H38   H     H_    0.046684 0.289684 0.119286 0.141675
H39   H     H_    0.456337 0.787128 0.877931 0.141500
H40   H     H_    0.544824 0.789701 0.119858 0.141684
C105  C     C_R   0.000585 0.293383 0.998825 0.168376
C106  C     C_R   0.500590 0.793383 0.998854 0.168309
C107  C     C_R   0.525576 0.729062 0.067424 -0.182636
C108  C     C_R   0.475752 0.727608 0.931200 -0.182437
C109  C     C_R   0.026619 0.229051 0.067089 -0.182549
C110  C     C_R   0.974695 0.227618 0.931478 -0.182408
C111  C     C_R   0.500653 0.706705 0.999477 0.169146
C112  C     C_R   0.000647 0.206704 0.999451 0.169052
C113  C     C_1   0.000342 0.337810 0.998667 -0.070517
C114  C     C_1   0.500345 0.837811 0.998680 -0.070590
C115  C     C_1   0.500530 0.662282 0.999834 -0.070856
C116  C     C_1   0.000528 0.162282 0.999822 -0.070828
C117  C     C_1   0.500370 0.624977 0.000058 -0.183370
C118  C     C_1   0.000370 0.124977 0.000054 -0.183314
C119  C     C_1   0.000155 0.375122 0.998874 -0.179648
C120  C     C_1   0.500156 0.875122 0.998877 -0.179690
C121  C     C_3   0.940621 0.706266 0.017429 -0.901216
H41   H     H_    0.920531 0.728327 0.022616 0.237391
H42   H     H_    0.920147 0.685818 0.967347 0.245504
H43   H     H_    0.957687 0.686943 0.068770 0.248116
C122  C     C_3   0.059324 0.705314 0.985761 -0.901945
H44   H     H_    0.079326 0.727053 0.980238 0.237033
H45   H     H_    0.079878 0.685970 0.036183 0.245331
H46   H     H_    0.042364 0.684831 0.934751 0.248432
C123  C     C_3   0.436309 0.206131 0.005180 -0.901687
H47   H     H_    0.414766 0.228147 0.006217 0.237518
H48   H     H_    0.417588 0.185669 0.954434 0.245400
H49   H     H_    0.451366 0.186812 0.056453 0.248075
C124  C     C_3   0.563642 0.205452 0.998146 -0.902913
H50   H     H_    0.585102 0.227239 0.996788 0.237170
H51   H     H_    0.582436 0.186118 0.049217 0.245069
H52   H     H_    0.548690 0.184966 0.947197 0.248418
C125  C     C_3   0.451346 0.483266 0.738114 -0.857146
H53   H     H_    0.449649 0.466282 0.691638 0.256040
H54   H     H_    0.430922 0.465372 0.748248 0.244281
H55   H     H_    0.438291 0.514969 0.719318 0.232099
C126  C     C_3   0.548674 0.516365 0.261992 -0.858657
H56   H     H_    0.561543 0.484585 0.280583 0.233523
H57   H     H_    0.569225 0.534157 0.252044 0.243496
H58   H     H_    0.550442 0.533324 0.308559 0.255309
C127  C     C_3   0.951348 0.983244 0.738121 -0.856709
H59   H     H_    0.930932 0.965344 0.748266 0.244285
H60   H     H_    0.938281 0.014942 0.719311 0.232236
H61   H     H_    0.949656 0.966259 0.691650 0.256018
C128  C     C_3   0.048670 0.016410 0.261978 -0.858643
H62   H     H_    0.069205 0.034215 0.252009 0.243499
H63   H     H_    0.050429 0.033370 0.308535 0.255303
H64   H     H_    0.061564 0.984639 0.280595 0.233512

loop_
_geom_bond_atom_site_label_1
_geom_bond_atom_site_label_2
_geom_bond_distance
_ccdc_geom_bond_type
O27   Zn8   2.013439 S    
O35   C74   1.277157 A    
C111  C115  1.426111 S    
C127  H60   1.110119 S    
Zn7   O31   1.994705 S    
C83   C123  1.507680 S    
C9    C13   1.347559 D    
O25   Zn6   2.013439 S    
H31   C90   1.084421 S    
C101  C105  1.398940 A    
C13   C67   1.459215 S    
C32   C36   1.398815 A    
C28   C32   1.398741 A    
O37   Zn9   2.002051 S    
C36   C40   1.393617 A    
C113  C119  1.197633 T    
O7    C3    1.273389 A    
H34   C107  1.083610 S    
O38   C76   1.277506 A    
C79   C99   1.417938 S    
C26   C30   1.398742 A    
C128  H62   1.110524 S    
C123  H47   1.110841 S    
C11   C19   1.461807 S    
C33   H21   1.083589 S    
Zn11  O47   1.997878 S    
C50   C62   1.196867 T    
C12   C16   1.347533 D    
O24   C70   1.282443 A    
C41   C53   1.424869 S    
C82   C122  1.507837 S    
C116  C118  1.197601 T    
O44   C78   1.276117 A    
C121  H43   1.110411 S    
Zn5   O29   1.994705 S    
C115  C117  1.197602 T    
O43   C77   1.276159 A    
C18   C22   1.334452 D    
C93   C99   1.196101 T    
C25   C45   1.393072 A    
H13   C45   1.083653 S    
O20   Zn8   1.994724 S    
O28   C70   1.265898 A    
C1    C57   1.419447 S    
C27   C47   1.393135 A    
C44   C48   1.398571 A    
C122  H46   1.110424 S    
C85   C93   1.432344 S    
C10   H2    1.086141 S    
C96   C98   1.196178 T    
C126  H56   1.110124 S    
O38   Zn10  2.002049 S    
C65   C97   1.418300 S    
C17   H5    1.086147 S    
C107  C111  1.398873 A    
C102  C109  1.393690 A    
O16   C8    1.265194 A    
O24   Zn8   1.990333 S    
C101  C110  1.393847 A    
O44   Zn11  1.979955 S    
Zn12  O48   1.986948 S    
H32   C89   1.084456 S    
O33   Zn9   1.987518 S    
C84   C87   1.397838 A    
C42   C54   1.424846 S    
O42   C76   1.276124 A    
O28   Zn7   2.013439 S    
O20   C66   1.272548 A    
C30   C34   1.398818 A    
O21   Zn5   1.990333 S    
C36   H24   1.083586 S    
C101  H37   1.083597 S    
O41   C75   1.276132 A    
O8    C4    1.273105 A    
O4    C4    1.273492 A    
O37   C75   1.277466 A    
C124  H50   1.110850 S    
C15   C69   1.459220 S    
H29   C88   1.084402 S    
C87   C91   1.394589 A    
C88   C91   1.394744 A    
C104  H40   1.083612 S    
O26   C68   1.265905 A    
C74   C120  1.420791 S    
C20   H8    1.086161 S    
O11   C7    1.265151 A    
O42   Zn9   1.979955 S    
C81   C121  1.507712 S    
O12   C8    1.276555 A    
H33   C108  1.083601 S    
O5    Zn3   1.993179 S    
C127  H59   1.110569 S    
O39   C77   1.277445 A    
C14   C126  1.525219 S    
O48   C80   1.274932 A    
O34   C73   1.277862 A    
O9    Zn1   2.006537 S    
H15   C47   1.083638 S    
C34   C38   1.393619 A    
O30   C71   1.272896 A    
C82   C89   1.397860 A    
C33   C37   1.393513 A    
C127  H61   1.108450 S    
O22   Zn6   1.990333 S    
C42   C46   1.398573 A    
C83   C86   1.411947 A    
C5    C21   1.438471 S    
O46   C79   1.274928 A    
O12   Zn2   1.995683 S    
O40   Zn12  2.002049 S    
O31   C72   1.273112 A    
C27   H19   1.083649 S    
C15   C127  1.525114 S    
C53   C57   1.196852 T    
C128  H63   1.108463 S    
C10   C14   1.347543 D    
O13   Zn3   1.994828 S    
O1    C1    1.273228 A    
C112  C116  1.426113 S    
C62   C76   1.419462 S    
C28   C48   1.392943 A    
H35   C110  1.083604 S    
O36   C74   1.277866 A    
C43   C55   1.424878 S    
C4    C60   1.419418 S    
C26   H18   1.083654 S    
O11   Zn2   2.006537 S    
O16   Zn4   2.005683 S    
C38   H26   1.083607 S    
C31   C51   1.424898 S    
C21   H9    1.088228 S    
C103  C106  1.398937 A    
O13   C5    1.276575 A    
O7    Zn4   1.993179 S    
C92   C96   1.424240 S    
O26   Zn5   2.013439 S    
C126  H57   1.110534 S    
C8    C24   1.438483 S    
O15   C7    1.276571 A    
C102  H38   1.083611 S    
C121  H41   1.110842 S    
C16   C70   1.459158 S    
C49   C61   1.196883 T    
C71   C117  1.420702 S    
O25   C67   1.265987 A    
O6    Zn3   1.988696 S    
C73   C119  1.420790 S    
C123  H48   1.110417 S    
C81   C85   1.411955 A    
O45   C79   1.275615 A    
Zn6   O30   1.990258 S    
O19   C66   1.272245 A    
C51   C63   1.196887 T    
C22   H10   1.088262 S    
O22   C68   1.282449 A    
C16   C128  1.525207 S    
C12   C20   1.461754 S    
O36   Zn12  1.998390 S    
O9    C5    1.265150 A    
C29   C33   1.398745 A    
O15   Zn4   1.994828 S    
C124  H51   1.110405 S    
C82   C85   1.411989 A    
C64   C78   1.419459 S    
C18   H6    1.086159 S    
C13   C125  1.525118 S    
O17   C65   1.272242 A    
H36   C109  1.083611 S    
H16   C48   1.083666 S    
C72   C118  1.420704 S    
C6    C22   1.438510 S    
C27   C31   1.398815 A    
C81   C90   1.398176 A    
C84   C124  1.507787 S    
O47   C80   1.275601 A    
C110  C112  1.399081 A    
C125  H54   1.110566 S    
C3    C59   1.419460 S    
O10   C6    1.276553 A    
O8    Zn4   1.988696 S    
C11   C15   1.347560 D    
C2    C58   1.419416 S    
O39   Zn11  2.002051 S    
O43   Zn12  1.980000 S    
O2    C2    1.273499 A    
C28   H20   1.083656 S    
Zn10  O46   1.986948 S    
C56   C60   1.196839 T    
C39   C43   1.398937 A    
C23   H11   1.088228 S    
C30   C50   1.424861 S    
C32   C52   1.424862 S    
C89   C92   1.394597 A    
C25   C29   1.398825 A    
C24   H12   1.088267 S    
O23   C69   1.282376 A    
C128  H64   1.110127 S    
C41   C45   1.398571 A    
O17   Zn5   1.990226 S    
C90   C92   1.394759 A    
C9    C17   1.461807 S    
O14   C6    1.265193 A    
O18   Zn6   1.994724 S    
O3    Zn2   1.988728 S    
O14   Zn3   2.005683 S    
C40   H28   1.083601 S    
O34   Zn10  1.998390 S    
C19   C23   1.334448 D    
C80   C100  1.417915 S    
C39   H27   1.083624 S    
Zn8   O32   1.990258 S    
C25   H17   1.083651 S    
O4    Zn2   1.993199 S    
O1    Zn1   1.988728 S    
C52   C64   1.196867 T    
C83   C88   1.398143 A    
O32   C72   1.272893 A    
O33   C73   1.277161 A    
C104  C107  1.393680 A    
O19   Zn7   1.990226 S    
O40   C78   1.277510 A    
C38   C42   1.398972 A    
C102  C105  1.399038 A    
H30   C87   1.084437 S    
O29   C71   1.273109 A    
O41   Zn10  1.980000 S    
C126  H58   1.108448 S    
C7    C23   1.438469 S    
C26   C46   1.392949 A    
H14   C46   1.083664 S    
C37   C41   1.398979 A    
C121  H42   1.110419 S    
C114  C120  1.197628 T    
C31   C35   1.398744 A    
C66   C98   1.418273 S    
C106  C114  1.426144 S    
C63   C77   1.419494 S    
C19   H7    1.086146 S    
C108  C111  1.399083 A    
C84   C86   1.411954 A    
C103  C108  1.393853 A    
C122  H45   1.110417 S    
C11   H3    1.086133 S    
C54   C58   1.196834 T    
O2    Zn1   1.993199 S    
Zn9   O45   1.997878 S    
C35   C39   1.393467 A    
C12   H4    1.086123 S    
O10   Zn1   1.995683 S    
C94   C100  1.196081 T    
C61   C75   1.419488 S    
C124  H52   1.110421 S    
C104  C106  1.399034 A    
C95   C97   1.196193 T    
O18   C65   1.272557 A    
O3    C3    1.273213 A    
O6    C2    1.273101 A    
C44   C56   1.424845 S    
C105  C113  1.426139 S    
C123  H49   1.110413 S    
C86   C94   1.432335 S    
C103  H39   1.083594 S    
O27   C69   1.265991 A    
C43   C47   1.398621 A    
C14   C68   1.459143 S    
C34   H22   1.083589 S    
C125  H55   1.110120 S    
C9    H1    1.086131 S    
C17   C21   1.334448 D    
C10   C18   1.461768 S    
C55   C59   1.196867 T    
O5    C1    1.273374 A    
C40   C44   1.398966 A    
O23   Zn7   1.990333 S    
C125  H53   1.108451 S    
C35   H23   1.083600 S    
C109  C112  1.398879 A    
O35   Zn11  1.987518 S    
C37   H25   1.083612 S    
C91   C95   1.424269 S    
C20   C24   1.334444 D    
O21   C67   1.282383 A    
C122  H44   1.110850 S    
C29   C49   1.424878 S    
