data_mof_unit_13794.cif
_audit_creation_date              2013-03-05T16:05:30-0500
_audit_creation_method            fapswitch 2.2
_symmetry_space_group_name_H-M    P1
_symmetry_Int_Tables_number       1
_space_group_crystal_system       triclinic
_cell_length_a                    10.82749
_cell_length_b                    9.515552
_cell_length_c                    10.696469
_cell_angle_alpha                 91.240808
_cell_angle_beta                  90.286315
_cell_angle_gamma                 89.994636
_cell_volume                      1101.7801522

loop_
_atom_site_label
_atom_site_type_symbol
_atom_site_description
_atom_site_fract_x
_atom_site_fract_y
_atom_site_fract_z
_atom_type_partial_charge
O1    O     O_R   0.319640 0.618740 0.499990 -0.576686
O2    O     O_R   0.680360 0.381260 0.500010 -0.576712
O3    O     O_R   0.680360 0.618740 0.500010 -0.608091
O4    O     O_R   0.319640 0.381260 0.499990 -0.608093
C1    C     C_R   0.871771 0.499994 0.499910 -0.001517
C2    C     C_R   0.128229 0.500006 0.500091 -0.001519
C3    C     C_R   0.262063 0.500003 0.500113 0.823734
C4    C     C_R   0.737937 0.499997 0.499887 0.823713
O5    O     O_R   0.499970 0.618770 0.316850 -0.580426
O6    O     O_R   0.500030 0.381230 0.683150 -0.580429
O7    O     O_R   0.500030 0.618770 0.683150 -0.543119
O8    O     O_R   0.499970 0.381230 0.316850 -0.543110
C5    C     C_R   0.500892 0.498081 0.259674 0.894523
C6    C     C_R   0.499103 0.501917 0.740327 0.894546
Cu1   Cu    Cu3+1 0.500000 0.640660 0.500000 0.994077
Cu2   Cu    Cu3+1 0.500000 0.359340 0.500000 0.994063
H1    H     H_    0.356873 0.127331 0.364687 0.134817
H2    H     H_    0.643120 0.872668 0.635321 0.134727
H3    H     H_    0.642997 0.133788 0.635538 0.145755
H4    H     H_    0.357000 0.866211 0.364465 0.145762
N1    N     N_R   0.500000 0.852070 0.500000 -0.165639
N2    N     N_R   0.500000 0.147930 0.500000 -0.165656
C7    C     C_3   0.393457 0.550852 0.044426 -0.059272
C8    C     C_3   0.606533 0.449147 0.955573 -0.059390
C9    C     C_3   0.486358 0.634578 0.966565 -0.029422
C10   C     C_3   0.513629 0.365418 0.033436 -0.029398
C11   C     C_3   0.406461 0.423172 0.953863 0.048468
C12   C     C_3   0.593526 0.576829 0.046134 0.048423
C13   C     C_3   0.499454 0.506356 0.876275 -0.067817
C14   C     C_3   0.500535 0.493644 0.123723 -0.067816
C15   C     C_R   0.420476 0.072624 0.424916 0.040746
C16   C     C_R   0.579520 0.927376 0.575088 0.040649
C17   C     C_R   0.579442 0.076233 0.575199 -0.022232
C18   C     C_R   0.420556 0.923767 0.424803 -0.022164
C19   C     C_R   0.063925 0.372822 0.508331 -0.196865
C20   C     C_R   0.936075 0.627178 0.491669 -0.196869
C21   C     C_R   0.936174 0.372815 0.508257 -0.134713
C22   C     C_R   0.063826 0.627185 0.491743 -0.134686
H5    H     H_    0.112048 0.273441 0.515117 0.151361
H6    H     H_    0.887952 0.726558 0.484884 0.151358
H7    H     H_    0.888132 0.273436 0.515067 0.155277
H8    H     H_    0.111868 0.726564 0.484933 0.155284
C23   C     C_3   0.298693 0.336992 0.901454 -0.850625
H9    H     H_    0.333956 0.249798 0.841005 0.248627
H10   H     H_    0.245299 0.292525 0.979555 0.244390
H11   H     H_    0.237474 0.405163 0.845427 0.225271
C24   C     C_3   0.701296 0.663008 0.098541 -0.850765
H12   H     H_    0.666030 0.750196 0.158994 0.248624
H13   H     H_    0.762521 0.594836 0.154562 0.225300
H14   H     H_    0.754681 0.707481 0.020439 0.244375
C25   C     C_2   0.271290 0.606576 0.088882 0.332674
H15   H     H_    0.205086 0.645184 0.021412 0.085989
O9    O     O_2   0.245453 0.608531 0.199757 -0.566434
C26   C     C_2   0.728698 0.393422 0.911117 0.332582
H16   H     H_    0.794903 0.354815 0.978589 0.085940
O10   O     O_2   0.754538 0.391473 0.800244 -0.566416
C27   C     C_2   0.469866 0.788665 0.943626 0.337289
H17   H     H_    0.470795 0.862128 0.022585 0.087231
O11   O     O_2   0.454090 0.832526 0.838545 -0.547058
C28   C     C_2   0.530108 0.211326 0.056343 0.337368
H18   H     H_    0.529423 0.137915 0.977353 0.087111
O12   O     O_2   0.545591 0.167406 0.161445 -0.547114

loop_
_geom_bond_atom_site_label_1
_geom_bond_atom_site_label_2
_geom_bond_distance
_ccdc_geom_bond_type
O4    Cu2   1.963934 S    
C1    C4    1.449085 S    
C19   H5    1.083303 S    
C23   H9    1.109700 S    
C2    C22   1.400949 A    
C12   C24   1.523823 S    
C10   C14   1.546548 S    
C2    C3    1.449085 S    
O1    Cu1   1.963972 S    
C1    C21   1.400948 A    
C11   C13   1.538199 S    
O2    Cu2   1.963971 S    
C7    C14   1.539485 S    
C7    C25   1.500731 S    
C24   H12   1.109688 S    
Cu1   N1    2.011683 S    
H4    C18   1.081834 S    
C16   C17   1.416433 A    
C12   C14   1.538197 S    
O5    Cu1   1.965610 S    
C15   C18   1.416432 A    
C24   H13   1.110004 S    
O6    Cu2   1.965609 S    
O8    C5    1.280615 A    
C9    C12   1.543708 S    
C9    C13   1.546546 S    
C23   H10   1.109658 S    
C10   C11   1.543745 S    
C10   C28   1.502299 S    
C9    C27   1.502333 S    
O4    C3    1.290402 A    
Cu1   Cu2   2.676915 S    
C20   C22   1.383217 A    
N1    C16   1.366815 A    
C8    C10   1.541929 S    
C22   H8    1.083323 S    
C24   H14   1.109640 S    
C27   H17   1.084633 S    
C7    C11   1.544238 S    
C7    C9    1.541888 S    
C21   H7    1.083323 S    
H1    C15   1.081814 S    
C23   H11   1.109997 S    
C26   O10   1.219619 D    
C27   O11   1.218653 D    
H2    C16   1.081818 S    
N2    C15   1.366816 A    
C6    C13   1.453844 S    
C8    C26   1.500725 S    
C25   H15   1.084390 S    
C1    C20   1.400917 A    
C11   C23   1.523826 S    
C5    C14   1.453878 S    
C20   H6    1.083303 S    
O3    Cu1   1.963933 S    
C2    C19   1.400917 A    
C8    C12   1.544241 S    
C28   O12   1.218647 D    
O3    C4    1.290402 A    
H3    C17   1.081832 S    
O7    C6    1.280632 A    
N2    C17   1.367135 A    
O5    C5    1.289438 A    
C26   H16   1.084403 S    
O1    C3    1.290509 A    
Cu2   N2    2.011684 S    
N1    C18   1.367135 A    
C19   C21   1.383217 A    
C8    C13   1.539507 S    
O7    Cu1   1.974579 S    
O2    C4    1.290509 A    
O8    Cu2   1.974580 S    
O6    C6    1.289430 A    
C28   H18   1.084565 S    
C25   O9    1.219625 D    
