data_mof_unit_14224.cif
_audit_creation_date              2013-03-05T15:58:35-0500
_audit_creation_method            fapswitch 2.2
_symmetry_space_group_name_H-M    P1
_symmetry_Int_Tables_number       1
_space_group_crystal_system       triclinic
_cell_length_a                    15.083399
_cell_length_b                    13.898803
_cell_length_c                    10.686339
_cell_angle_alpha                 90.62167
_cell_angle_beta                  86.059253
_cell_angle_gamma                 89.617071
_cell_volume                      2234.80647629

loop_
_atom_site_label
_atom_site_type_symbol
_atom_site_description
_atom_site_fract_x
_atom_site_fract_y
_atom_site_fract_z
_atom_type_partial_charge
O1    O     O_R   0.370260 0.582280 0.500030 -0.612554
O2    O     O_R   0.629740 0.417720 0.499970 -0.621677
O3    O     O_R   0.629740 0.582280 0.499970 -0.570964
O4    O     O_R   0.370260 0.417720 0.500030 -0.591192
C1    C     C_R   0.329248 0.500324 0.501754 0.785711
C2    C     C_R   0.670859 0.499614 0.497991 0.866451
O5    O     O_R   0.499980 0.582260 0.316850 -0.551804
O6    O     O_R   0.500020 0.417740 0.683150 -0.565095
O7    O     O_R   0.500020 0.582260 0.683150 -0.559230
O8    O     O_R   0.499980 0.417740 0.316850 -0.579692
C3    C     C_R   0.498619 0.499683 0.260210 0.857173
C4    C     C_R   0.500945 0.500520 0.739977 0.892334
Cu1   Cu    Cu3+1 0.500000 0.597420 0.500000 0.966512
Cu2   Cu    Cu3+1 0.500000 0.402580 0.500000 0.953105
C5    C     C_3   0.444775 0.571177 0.047341 0.045546
C6    C     C_3   0.554139 0.430174 0.953521 0.056396
C7    C     C_3   0.529074 0.586706 0.959510 0.074090
C8    C     C_3   0.469720 0.414861 0.041176 0.071708
C9    C     C_3   0.418721 0.486425 0.964036 0.374561
C10   C     C_3   0.580160 0.515038 0.036737 0.381335
C11   C     C_3   0.502082 0.501661 0.876053 -0.145863
C12   C     C_3   0.496810 0.499585 0.124462 -0.143622
C13   C     C_R   0.819084 0.448831 0.399501 0.031735
C14   C     C_R   0.181469 0.537444 0.611317 0.045997
C15   C     C_R   0.767771 0.497758 0.495866 -0.113478
C16   C     C_R   0.232389 0.500518 0.505425 -0.166690
C17   C     C_R   0.807317 0.543580 0.594086 0.315069
C18   C     C_R   0.191556 0.456710 0.405454 0.348635
C19   C     C_R   0.899291 0.532521 0.606749 -0.014304
C20   C     C_R   0.099643 0.439826 0.416511 0.040393
C21   C     C_R   0.952703 0.485832 0.509725 -0.105507
C22   C     C_R   0.046426 0.486933 0.513251 -0.134112
C23   C     C_R   0.912572 0.439027 0.408638 0.053314
C24   C     C_R   0.086871 0.536596 0.611865 0.050216
C25   C     C_R   0.938974 0.566319 0.714670 0.058701
C26   C     C_R   0.059505 0.378129 0.331134 0.093619
C27   C     C_R   0.031411 0.579821 0.710255 0.406251
C28   C     C_R   0.966861 0.382387 0.321763 0.378843
C29   C     C_R   0.457322 0.794992 0.597796 0.471711
C30   C     C_R   0.541659 0.204520 0.401203 0.470991
C31   C     C_R   0.545034 0.792477 0.404235 0.466635
C32   C     C_R   0.460897 0.206525 0.600115 0.468320
N1    N     N_R   0.500000 0.743810 0.500000 -0.266369
N2    N     N_R   0.500000 0.256190 0.500000 -0.281895
C33   C     C_R   0.547530 0.895274 0.402568 -0.054997
C34   C     C_R   0.468063 0.104159 0.607388 -0.047108
C35   C     C_R   0.460011 0.898028 0.603920 -0.049328
C36   C     C_R   0.539857 0.101496 0.396411 -0.040886
C37   C     C_R   0.503640 0.948116 0.502788 -0.099988
C38   C     C_R   0.503734 0.051228 0.502089 -0.106084
C39   C     C_R   0.593355 0.946986 0.303704 0.173475
C40   C     C_R   0.437111 0.053132 0.716100 0.193047
C41   C     C_R   0.421400 0.952818 0.708438 0.165967
C42   C     C_R   0.578228 0.047066 0.292023 0.183211
O9    O     O_3   0.333853 0.469603 0.924430 -0.743766
H1    H     H_    0.294238 0.466537 0.002204 0.343571
O10   O     O_3   0.664792 0.530988 0.077946 -0.745375
H2    H     H_    0.703951 0.539952 0.000795 0.333044
C43   C     C_3   0.381505 0.650196 0.098276 -0.778574
H3    H     H_    0.352025 0.686909 0.019101 0.246590
H4    H     H_    0.327656 0.618615 0.160396 0.218871
H5    H     H_    0.418313 0.703525 0.152317 0.264226
C44   C     C_3   0.618204 0.351976 0.902479 -0.779538
H6    H     H_    0.646691 0.314217 0.981628 0.247661
H7    H     H_    0.582461 0.299416 0.845978 0.250547
H8    H     H_    0.672641 0.384766 0.842465 0.225336
C45   C     C_3   0.566347 0.683523 0.917908 -0.749689
H9    H     H_    0.586905 0.724230 0.000798 0.241067
H10   H     H_    0.624783 0.672446 0.850357 0.253127
H11   H     H_    0.514882 0.725533 0.873172 0.270391
C46   C     C_3   0.430305 0.319935 0.085329 -0.772144
H12   H     H_    0.416757 0.274470 0.003188 0.249197
H13   H     H_    0.477582 0.282911 0.142765 0.269786
H14   H     H_    0.367342 0.333135 0.142935 0.248782
C47   C     C_3   0.774518 0.416655 0.282824 -0.670806
H15   H     H_    0.812033 0.443867 0.197536 0.260097
H16   H     H_    0.769871 0.337057 0.279516 0.266688
H17   H     H_    0.706468 0.445775 0.277843 0.218357
C48   C     C_3   0.228511 0.572120 0.724641 -0.641531
H18   H     H_    0.299826 0.552975 0.721325 0.217168
H19   H     H_    0.223726 0.651670 0.733255 0.247777
H20   H     H_    0.199121 0.537233 0.810553 0.280420
O11   O     O_3   0.754606 0.603351 0.672332 -0.750297
H21   H     H_    0.788351 0.663304 0.684449 0.330983
O12   O     O_3   0.239131 0.433589 0.293389 -0.757426
H22   H     H_    0.295139 0.470298 0.285068 0.307266
C49   C     C_3   0.886869 0.574168 0.841133 -0.839341
H23   H     H_    0.865831 0.649682 0.861811 0.225122
H24   H     H_    0.828228 0.526263 0.845384 0.257621
H25   H     H_    0.928214 0.549410 0.916881 0.244933
C50   C     C_3   0.112541 0.298543 0.261197 -0.749270
H26   H     H_    0.135506 0.322865 0.165835 0.247406
H27   H     H_    0.170209 0.275477 0.313064 0.257905
H28   H     H_    0.072080 0.232583 0.253021 0.223571
O13   O     O_3   0.067672 0.635168 0.801854 -0.759712
H29   H     H_    0.022260 0.680364 0.840149 0.335935
O14   O     O_3   0.928517 0.326063 0.233254 -0.751474
H30   H     H_    0.968876 0.322951 0.156077 0.330912
O15   O     O_3   0.413779 0.746282 0.693857 -0.757144
H31   H     H_    0.380247 0.694641 0.655939 0.360207
O16   O     O_3   0.590047 0.251314 0.307465 -0.758243
H32   H     H_    0.616657 0.307855 0.344664 0.368732
O17   O     O_3   0.583402 0.741805 0.303732 -0.723867
H33   H     H_    0.621395 0.691881 0.337766 0.363045
O18   O     O_3   0.409968 0.254168 0.693124 -0.726308
H34   H     H_    0.380297 0.308579 0.655328 0.376683
C51   C     C_3   0.664872 0.899367 0.216399 -0.772066
H35   H     H_    0.712039 0.952344 0.173096 0.215922
H36   H     H_    0.707144 0.851288 0.269905 0.243828
H37   H     H_    0.634344 0.859082 0.140325 0.253736
C52   C     C_3   0.431547 0.102020 0.844157 -0.790816
H38   H     H_    0.446069 0.050681 0.919140 0.210547
H39   H     H_    0.483379 0.157964 0.848765 0.245687
H40   H     H_    0.364458 0.133948 0.865374 0.259572
C53   C     C_3   0.360625 0.907711 0.810738 -0.767101
H41   H     H_    0.323966 0.961585 0.871954 0.214022
H42   H     H_    0.307521 0.866171 0.768172 0.252296
H43   H     H_    0.399521 0.861457 0.871282 0.251374
C54   C     C_3   0.596787 0.091783 0.163922 -0.778708
H44   H     H_    0.600436 0.037272 0.087043 0.209307
H45   H     H_    0.540761 0.138929 0.142235 0.240959
H46   H     H_    0.660261 0.131961 0.159840 0.264309

loop_
_geom_bond_atom_site_label_1
_geom_bond_atom_site_label_2
_geom_bond_distance
_ccdc_geom_bond_type
O9    H1    0.991196 S    
C44   H7    1.108738 S    
C6    C11   1.544615 S    
C17   C19   1.410637 A    
C24   C27   1.422987 A    
C31   N1    1.375455 A    
O13   H29   0.990652 S    
C49   H23   1.109942 S    
O3    C2    1.301298 A    
O14   H30   0.991212 S    
C35   C37   1.417883 A    
O12   H22   0.989095 S    
C5    C9    1.538186 S    
O16   H32   0.977784 S    
O11   H21   0.991245 S    
O1    C1    1.299549 A    
Cu2   N2    2.034646 S    
C25   C27   1.405723 A    
C14   C16   1.412966 A    
C2    C15   1.460419 S    
C33   C39   1.425920 A    
C53   H41   1.108371 S    
C34   C40   1.420682 A    
C7    C10   1.536884 S    
C27   O13   1.382724 S    
C5    C7    1.545425 S    
C8    C9    1.534713 S    
C32   C34   1.429502 A    
O7    Cu1   1.970803 S    
O17   H33   0.985371 S    
C46   H14   1.108785 S    
C30   O16   1.370798 S    
C25   C49   1.518412 S    
C5    C12   1.543236 S    
C21   C22   1.416924 A    
C13   C23   1.425890 A    
C51   H35   1.109766 S    
C21   C23   1.427035 A    
C6    C44   1.520912 S    
C30   N2    1.382595 A    
O3    Cu1   1.966780 S    
C6    C10   1.538678 S    
C35   C41   1.432759 A    
C36   C38   1.413498 A    
C44   H8    1.110034 S    
C43   H3    1.109955 S    
Cu1   Cu2   2.708041 S    
C51   H36   1.110287 S    
O2    C2    1.299553 A    
C32   N2    1.379746 A    
C28   O14   1.380982 S    
C16   C18   1.404533 A    
O7    C4    1.294454 A    
O5    C3    1.292671 A    
C54   H45   1.104548 S    
C7    C45   1.520920 S    
C43   H4    1.109062 S    
C45   H9    1.109102 S    
O8    Cu2   1.970804 S    
C50   H26   1.110541 S    
C46   H13   1.100971 S    
C29   N1    1.377648 A    
C40   C52   1.518122 S    
C53   H42   1.110133 S    
C47   H17   1.105708 S    
C44   H6    1.109965 S    
C4    C11   1.455352 S    
C14   C24   1.426592 A    
C48   H18   1.104479 S    
C45   H10   1.109060 S    
C22   C24   1.427363 A    
C36   C42   1.427852 A    
C47   H15   1.110574 S    
C50   H27   1.110412 S    
C14   C48   1.520639 S    
C29   O15   1.368155 S    
O15   H31   0.980748 S    
C33   C37   1.415505 A    
O6    C4    1.295735 A    
C53   H43   1.110065 S    
C52   H39   1.109426 S    
C47   H16   1.109341 S    
C26   C50   1.519913 S    
C6    C8    1.545343 S    
C10   C12   1.533464 S    
C49   H24   1.109395 S    
C51   H37   1.109703 S    
O1    Cu1   1.969578 S    
C26   C28   1.408715 A    
Cu1   N1    2.034646 S    
C40   C41   1.418233 A    
C29   C35   1.433823 A    
C54   H46   1.110091 S    
C9    O9    1.395981 S    
C8    C46   1.517313 S    
C30   C36   1.432790 A    
C19   C25   1.412759 A    
C43   H5    1.109695 S    
O6    Cu2   1.966258 S    
C52   H38   1.110702 S    
C9    C11   1.534669 S    
C8    C12   1.542538 S    
C5    C43   1.521459 S    
C13   C47   1.521060 S    
O4    C1    1.299852 A    
C48   H20   1.109550 S    
C54   H44   1.109826 S    
C15   C17   1.392732 A    
O18   H34   0.980965 S    
C34   C38   1.410832 A    
C3    C12   1.452760 S    
C48   H19   1.109932 S    
C23   C28   1.422385 A    
C20   C26   1.414269 A    
C45   H11   1.105930 S    
C39   C42   1.416304 A    
C17   O11   1.380639 S    
C46   H12   1.107212 S    
C19   C21   1.417303 A    
C50   H28   1.110676 S    
C20   C22   1.416320 A    
O10   H2    0.990150 S    
C18   C20   1.404798 A    
C52   H40   1.110228 S    
C13   C15   1.410737 A    
O4    Cu2   1.966780 S    
O2    Cu2   1.969577 S    
C32   O18   1.374941 S    
C7    C11   1.546539 S    
O8    C3    1.296243 A    
C1    C16   1.458786 S    
C31   O17   1.370083 S    
O5    Cu1   1.966259 S    
C39   C51   1.520154 S    
C37   C38   1.433239 A    
C49   H25   1.111356 S    
C18   O12   1.386653 S    
C31   C33   1.429770 A    
C10   O10   1.396974 S    
C42   C54   1.518790 S    
C41   C53   1.520961 S    
