data_mof_unit_18042.cif
_audit_creation_date              2012-12-10T19:46:25-0500
_audit_creation_method            fapswitch 2.2
_symmetry_space_group_name_H-M    P1
_symmetry_Int_Tables_number       1
_space_group_crystal_system       triclinic
_cell_length_a                    10.877162
_cell_length_b                    10.877509
_cell_length_c                    10.403969
_cell_angle_alpha                 91.501917
_cell_angle_beta                  91.110375
_cell_angle_gamma                 90.217869
_cell_volume                      1230.29503357

loop_
_atom_site_label
_atom_site_type_symbol
_atom_type_description
_atom_site_fract_x
_atom_site_fract_y
_atom_site_fract_z
_atom_type_partial_charge
C1    C     C_R   0.500831 0.261369 0.498098 0.805938
C2    C     C_R   0.499168 0.738631 0.501902 0.805949
C3    C     C_R   0.872093 0.501726 0.504071 -0.092269
C4    C     C_R   0.127908 0.498271 0.495928 -0.092251
C5    C     C_R   0.942130 0.523650 0.618320 -0.006395
C6    C     C_R   0.057870 0.476355 0.381676 -0.006406
C7    C     C_R   0.483904 0.178060 0.047648 -0.177757
C8    C     C_R   0.516154 0.821901 0.952331 -0.177765
C9    C     C_R   0.457799 0.142232 0.172406 -0.082331
C10   C     C_R   0.542233 0.857715 0.827561 -0.082253
C11   C     C_R   0.553467 0.108906 0.256810 0.076736
C12   C     C_R   0.446550 0.891099 0.743200 0.076741
C13   C     C_R   0.675148 0.109865 0.214348 -0.185373
C14   C     C_R   0.324881 0.890213 0.785719 -0.185460
C15   C     C_R   0.700920 0.144757 0.089149 0.289849
C16   C     C_R   0.299135 0.855329 0.910928 0.289830
C17   C     C_R   0.605278 0.179399 0.006042 -0.162793
C18   C     C_R   0.394792 0.820630 0.993992 -0.162730
C19   C     C_R   0.524896 0.930164 0.389670 -0.229446
C20   C     C_R   0.475096 0.069837 0.610330 -0.229468
C21   C     C_R   0.499863 0.872103 0.504844 -0.089473
C22   C     C_R   0.500134 0.127898 0.495157 -0.089469
C23   C     C_R   0.261378 0.498366 0.498416 0.804671
C24   C     C_R   0.738622 0.501633 0.501583 0.804670
C25   C     C_R   0.474874 0.942936 0.617080 0.010842
C26   C     C_R   0.525124 0.057065 0.382922 0.010835
C27   C     C_1   0.500026 0.500022 0.071880 0.078240
C28   C     C_1   0.499974 0.499977 0.928120 0.078255
C29   C     C_R   0.173600 0.513687 0.044402 -0.114510
C30   C     C_R   0.826196 0.486394 0.955523 -0.114510
C31   C     C_R   0.132875 0.542124 0.168388 -0.092985
C32   C     C_R   0.866964 0.457923 0.831567 -0.092839
C33   C     C_R   0.111177 0.447706 0.254757 0.107287
C34   C     C_R   0.888820 0.552342 0.745223 0.107300
C35   C     C_R   0.129627 0.324870 0.215429 -0.108927
C36   C     C_R   0.870487 0.675209 0.784545 -0.109169
C37   C     C_R   0.169416 0.296889 0.091057 -0.091551
C38   C     C_R   0.830648 0.703219 0.908885 -0.091665
C39   C     C_R   0.191532 0.391183 0.005679 -0.137281
C40   C     C_R   0.808373 0.608928 0.994239 -0.137289
C41   C     C_R   0.930904 0.478429 0.387490 -0.218364
C42   C     C_R   0.069096 0.521570 0.612510 -0.218393
Cu1   Cu    Cu3+1 0.500000 0.500000 0.625300 0.976308
Cu2   Cu    Cu3+1 0.500000 0.500000 0.374700 0.976321
H1    H     H_    0.749245 0.080648 0.277381 0.158592
H2    H     H_    0.250775 0.919477 0.722722 0.158606
H3    H     H_    0.190471 0.586287 0.977851 0.167101
H4    H     H_    0.809191 0.413792 0.022053 0.167035
H5    H     H_    0.117088 0.637199 0.196703 0.155685
H6    H     H_    0.882653 0.362820 0.803252 0.155626
H7    H     H_    0.111079 0.250984 0.280186 0.137352
H8    H     H_    0.889150 0.749091 0.719804 0.137403
H9    H     H_    0.182003 0.201968 0.060435 0.169753
H10   H     H_    0.818123 0.798158 0.939493 0.169806
H11   H     H_    0.877827 0.460355 0.299569 0.169100
H12   H     H_    0.122173 0.539646 0.700431 0.169048
H13   H     H_    0.624732 0.205902 0.908914 0.157916
H14   H     H_    0.375359 0.794138 0.091130 0.157940
H15   H     H_    0.410037 0.203165 0.982449 0.139352
H16   H     H_    0.590033 0.796754 0.017496 0.139343
N1    N     N_1   0.500010 0.499990 0.186410 -0.144533
N2    N     N_1   0.499990 0.500010 0.813590 -0.144533
O1    O     O_R   0.499990 0.319650 0.605810 -0.589178
O2    O     O_R   0.500010 0.680350 0.394190 -0.589169
O3    O     O_R   0.499990 0.319640 0.394190 -0.569433
O4    O     O_R   0.500010 0.680360 0.605810 -0.569432
O5    O     O_R   0.319640 0.500010 0.605810 -0.586596
O6    O     O_R   0.680360 0.499990 0.394190 -0.586594
O7    O     O_R   0.319650 0.500010 0.394190 -0.571406
O8    O     O_R   0.680350 0.499990 0.605810 -0.571415
H17   H     H_    0.222181 0.369361 0.909395 0.135185
H18   H     H_    0.777678 0.630773 0.090496 0.135165
Br1   Br    Br    0.865987 0.139472 0.030065 -0.583006
Br2   Br    Br    0.134087 0.860701 0.970087 -0.583052
H19   H     H_    0.544839 0.876470 0.303229 0.162384
H20   H     H_    0.455154 0.123532 0.696771 0.162386
H21   H     H_    0.363312 0.138271 0.202802 0.131469
H22   H     H_    0.636713 0.861622 0.797122 0.131446

loop_
_geom_bond_atom_site_label_1
_geom_bond_atom_site_label_2
_ccdc_geom_bond_type
C30   C32   A    
C5    C42   A    
C23   O7    A    
C10   H22   S    
Cu1   O1    S    
C14   H2    S    
Cu2   O2    S    
C29   H3    S    
C16   Br2   S    
C30   H4    S    
C38   C40   A    
C20   C25   A    
C20   H20   S    
C15   C17   A    
C23   O5    A    
C19   C26   A    
C41   H11   S    
C27   N1    T    
C42   H12   S    
C18   H14   S    
C7    C17   A    
C6    C41   A    
C1    O3    A    
C31   C33   A    
C36   H8    S    
C37   H9    S    
C1    C22   S    
Cu2   O3    S    
C31   H5    S    
C1    O1    A    
C7    H15   S    
C2    O2    A    
C24   O8    A    
C4    C6    A    
C4    C23   S    
C11   C26   S    
C3    C5    A    
C8    C18   A    
C32   C34   A    
Cu1   Cu2   S    
C38   H10   S    
C29   C31   A    
C5    C34   S    
C29   C39   A    
C2    C21   S    
C30   C40   A    
Cu2   O7    S    
C9    H21   S    
C9    C11   A    
C32   H6    S    
C10   C12   A    
C16   C18   A    
C15   Br1   S    
C12   C14   A    
Cu1   O8    S    
C13   C15   A    
C35   H7    S    
C14   C16   A    
Cu2   O6    S    
C20   C22   A    
C35   C37   A    
C7    C9    A    
C21   C25   A    
C3    C41   A    
C40   H18   S    
C19   C21   A    
C8    C10   A    
C3    C24   S    
C2    O4    A    
Cu2   N1    S    
C6    C33   S    
C12   C25   S    
C36   C38   A    
C37   C39   A    
C8    H16   S    
C13   H1    S    
C11   C13   A    
C4    C42   A    
Cu1   O4    S    
C19   H19   S    
C33   C35   A    
C34   C36   A    
C24   O6    A    
Cu1   O5    S    
C22   C26   A    
C27   C28   S    
C39   H17   S    
Cu1   N2    S    
C17   H13   S    
C28   N2    T    
