data_mof_unit_43902.cif
_audit_creation_date              2012-12-10T19:44:27-0500
_audit_creation_method            fapswitch 2.2
_symmetry_space_group_name_H-M    P1
_symmetry_Int_Tables_number       1
_space_group_crystal_system       triclinic
_cell_length_a                    10.854954
_cell_length_b                    12.353429
_cell_length_c                    13.329422
_cell_angle_alpha                 116.826758
_cell_angle_beta                  77.344369
_cell_angle_gamma                 101.756788
_cell_volume                      1544.96488286

loop_
_atom_site_label
_atom_site_type_symbol
_atom_type_description
_atom_site_fract_x
_atom_site_fract_y
_atom_site_fract_z
_atom_type_partial_charge
C1    C     C_R   0.514105 0.854552 0.286988 0.759351
C2    C     C_R   0.648394 0.765660 0.748193 -0.170559
C3    C     C_R   0.039005 0.938505 0.552256 -0.243794
C4    C     C_R   0.129469 0.996312 0.494023 -0.083684
C5    C     C_R   0.090262 0.054823 0.438545 0.002737
C6    C     C_R   0.961432 0.058516 0.447468 -0.258782
C7    C     C_R   0.870700 0.001291 0.505605 -0.078007
C8    C     C_R   0.909891 0.939837 0.558695 0.015673
C9    C     C_R   0.188917 0.231520 0.391800 -0.159611
C10   C     C_R   0.274872 0.280228 0.323468 -0.134381
C11   C     C_R   0.351743 0.204801 0.228683 -0.123131
C12   C     C_R   0.737045 0.001462 0.503048 0.778328
C13   C     C_R   0.341124 0.080115 0.200887 -0.130484
C14   C     C_R   0.255082 0.030968 0.268582 -0.095977
C15   C     C_R   0.179530 0.106679 0.365423 0.129826
C16   C     C_R   0.313305 0.279929 0.011932 -0.205765
C17   C     C_R   0.452308 0.227644 0.832708 -0.046130
C18   C     C_R   0.627444 0.809768 0.094131 -0.193839
C19   C     C_R   0.667369 0.728318 0.984377 -0.163967
C20   C     C_R   0.615209 0.606625 0.943865 -0.200235
C21   C     C_R   0.518519 0.563766 0.012653 0.084576
C22   C     C_R   0.472228 0.649557 0.122796 0.083067
C23   C     C_R   0.480490 0.145049 0.712800 0.787462
C24   C     C_R   0.466314 0.438758 0.975858 0.077132
C25   C     C_R   0.365765 0.402742 0.047087 0.164617
C26   C     C_R   0.315683 0.489972 0.151018 -0.252668
C27   C     C_R   0.366218 0.611733 0.187340 -0.207648
C28   C     C_R   0.509713 0.348185 0.869660 -0.253605
C29   C     C_R   0.356152 0.192739 0.905026 -0.209329
C30   C     C_R   0.532911 0.771513 0.165387 -0.099011
C31   C     C_R   0.682861 0.343435 0.317606 -0.291051
C32   C     C_R   0.331713 0.762252 0.648691 0.068622
C33   C     C_R   0.295391 0.667106 0.682205 -0.270902
C34   C     C_R   0.263063 0.998168 0.496998 0.786332
C35   C     C_R   0.356595 0.561951 0.625790 -0.205494
C36   C     C_R   0.455355 0.551076 0.534842 0.002959
C37   C     C_R   0.489327 0.651730 0.503963 0.299759
C38   C     C_R   0.522914 0.445591 0.473846 -0.046399
C39   C     C_R   0.616653 0.442969 0.381095 0.118930
C40   C     C_R   0.648005 0.541246 0.352678 -0.285667
C41   C     C_R   0.588485 0.644727 0.415106 -0.157272
C42   C     C_R   0.502615 0.342184 0.499382 -0.001667
C43   C     C_R   0.666296 0.247845 0.348961 0.365217
C44   C     C_R   0.655070 0.892319 0.784893 0.228021
C45   C     C_R   0.740529 0.948672 0.722026 -0.094076
C46   C     C_R   0.820430 0.879885 0.624898 0.080440
C47   C     C_R   0.816130 0.754159 0.591760 -0.154708
C48   C     C_R   0.729972 0.697377 0.653066 -0.177867
Cu1   Cu    Cu3+1 0.529370 0.098270 0.475420 0.933519
Cu2   Cu    Cu3+1 0.470630 0.901730 0.524580 0.919706
H1    H     H_    0.580713 0.719736 0.793473 0.143635
H2    H     H_    0.419332 0.243047 0.176831 0.143437
H3    H     H_    0.399400 0.021126 0.127101 0.131268
H4    H     H_    0.248177 0.934283 0.246355 0.097237
H5    H     H_    0.309877 0.099636 0.876803 0.138857
H6    H     H_    0.235880 0.464158 0.204117 0.141100
H7    H     H_    0.236260 0.252072 0.065746 0.142060
H8    H     H_    0.585987 0.368563 0.811657 0.141004
H9    H     H_    0.675425 0.901656 0.124889 0.140723
H10   H     H_    0.652707 0.549473 0.858034 0.125844
H11   H     H_    0.742344 0.759064 0.931266 0.151326
H12   H     H_    0.319100 0.675968 0.265846 0.169005
H13   H     H_    0.722762 0.539893 0.283257 0.150988
H14   H     H_    0.750644 0.341681 0.243974 0.149470
H15   H     H_    0.430670 0.336450 0.567345 0.135260
H16   H     H_    0.283669 0.843411 0.693201 0.120475
H17   H     H_    0.324900 0.490635 0.654474 0.138719
H18   H     H_    0.219518 0.674954 0.752163 0.143301
H19   H     H_    0.625249 0.717967 0.391606 0.207132
H20   H     H_    0.744742 0.045950 0.748169 0.107855
H21   H     H_    0.877725 0.699868 0.517287 0.136886
H22   H     H_    0.725497 0.600036 0.626155 0.147553
H23   H     H_    0.068785 0.894526 0.595888 0.155893
H24   H     H_    0.931593 0.102267 0.404620 0.173112
H25   H     H_    0.130964 0.291125 0.465863 0.125537
H26   H     H_    0.282822 0.376658 0.344621 0.138251
N1    N     N_R   0.573890 0.246290 0.438210 -0.197417
N2    N     N_R   0.426890 0.754320 0.561170 -0.207062
O1    O     O_R   0.536940 0.972510 0.318130 -0.595673
O2    O     O_R   0.487330 0.806530 0.359650 -0.602158
O3    O     O_R   0.705160 0.082990 0.479250 -0.593333
O4    O     O_R   0.655550 0.917010 0.520760 -0.591068
O5    O     O_R   0.512670 0.193470 0.640350 -0.584786
O6    O     O_R   0.463060 0.027490 0.681870 -0.598579
O7    O     O_R   0.344450 0.082990 0.479240 -0.568016
O8    O     O_R   0.294840 0.917010 0.520750 -0.596809
C49   C     C_3   0.572986 0.967708 0.891378 -0.423521
C50   C     C_3   0.654689 0.062376 0.979680 -0.869532
H27   H     H_    0.722604 0.016742 0.994398 0.249506
H28   H     H_    0.708781 0.132218 0.950778 0.250030
H29   H     H_    0.593692 0.110105 0.060869 0.240649
H30   H     H_    0.512433 0.014670 0.870444 0.218987
H31   H     H_    0.508970 0.908500 0.928738 0.198212
C51   C     C_3   0.752021 0.148927 0.276914 -0.380906
C52   C     C_3   0.893550 0.199367 0.273901 -0.918733
H32   H     H_    0.915711 0.259960 0.361127 0.259096
H33   H     H_    0.952356 0.122548 0.234290 0.248487
H34   H     H_    0.921108 0.251736 0.221621 0.248700
H35   H     H_    0.738170 0.075098 0.303152 0.252739
H36   H     H_    0.730130 0.107007 0.189043 0.174692

loop_
_geom_bond_atom_site_label_1
_geom_bond_atom_site_label_2
_ccdc_geom_bond_type
C49   C50   S    
C17   C29   A    
C52   H32   S    
C52   H34   S    
Cu2   O6    S    
C7    C8    A    
C45   C46   A    
C26   C27   A    
C17   C23   S    
C40   H13   S    
C31   C43   A    
C41   H19   S    
C36   C37   A    
C38   C42   A    
C5    C6    A    
C43   C51   S    
C18   C19   A    
C34   O8    A    
Cu1   O3    S    
C11   H2    S    
C13   C14   A    
C10   H26   S    
C19   C20   A    
C2    C44   A    
C42   H15   S    
C18   C30   A    
C51   H36   S    
C20   H10   S    
C44   C49   S    
C9    C10   A    
C49   H30   S    
C37   C41   A    
C48   H22   S    
Cu2   N2    S    
C6    H24   S    
C13   H3    S    
C7    C12   S    
C4    C34   S    
C23   O6    A    
Cu1   O7    S    
C24   C25   A    
C3    C8    A    
C10   C11   A    
C39   C40   A    
C29   H5    S    
C2    C48   A    
C16   C29   A    
Cu1   O1    S    
C26   H6    S    
C35   C36   A    
C27   H12   S    
C47   C48   A    
C50   H29   S    
C35   H17   S    
C12   O4    A    
C20   C21   A    
C47   H21   S    
C23   O5    A    
C40   C41   A    
C14   H4    S    
C50   H28   S    
C22   C27   A    
C1    O1    A    
C3    C4    A    
C44   C45   A    
Cu2   O4    S    
C32   H16   S    
C16   C25   A    
C46   C47   A    
C22   C30   A    
C45   H20   S    
C17   C28   A    
C31   H14   S    
C24   C28   A    
C4    C5    A    
Cu2   O2    S    
C52   H33   S    
C6    C7    A    
C28   H8    S    
C43   N1    A    
C37   N2    A    
C32   C33   A    
Cu1   O5    S    
C36   C38   A    
C25   C26   A    
C11   C13   A    
C38   C39   A    
C51   H35   S    
C19   H11   S    
C49   H31   S    
C1    C30   S    
C33   C35   A    
Cu1   N1    S    
C12   O3    A    
C16   H7    S    
C9    C15   A    
C51   C52   S    
C3    H23   S    
C8    C46   S    
C5    C15   S    
C2    H1    S    
Cu2   O8    S    
C32   N2    A    
C18   H9    S    
C50   H27   S    
C42   N1    A    
Cu1   Cu2   S    
C21   C24   A    
C31   C39   A    
C1    O2    A    
C14   C15   A    
C9    H25   S    
C21   C22   A    
C34   O7    A    
C33   H18   S    
