data_mof_unit_53106.cif
_audit_creation_date              2013-03-05T15:50:55-0500
_audit_creation_method            fapswitch 2.2
_symmetry_space_group_name_H-M    P1
_symmetry_Int_Tables_number       1
_space_group_crystal_system       triclinic
_cell_length_a                    11.990566
_cell_length_b                    12.84518
_cell_length_c                    15.736032
_cell_angle_alpha                 90.155545
_cell_angle_beta                  86.627132
_cell_angle_gamma                 93.737211
_cell_volume                      2414.33419176

loop_
_atom_site_label
_atom_site_type_symbol
_atom_site_description
_atom_site_fract_x
_atom_site_fract_y
_atom_site_fract_z
_atom_type_partial_charge
O1    O     O_R   0.421690 0.658830 0.504140 -0.630448
O2    O     O_R   0.609320 0.646410 0.494190 -0.591782
C1    C     C_R   0.522569 0.700392 0.496395 0.946940
O3    O     O_R   0.406150 0.506210 0.627840 -0.625192
O4    O     O_R   0.593770 0.493790 0.617880 -0.613417
C2    C     C_R   0.500503 0.500037 0.661709 0.896460
Zn1   Zn    Zn3+2 0.374720 0.508290 0.506640 0.965156
Zn2   Zn    Zn3+2 0.625280 0.491710 0.493360 1.036425
O5    O     O_R   0.390680 0.353590 0.505810 -0.637241
O6    O     O_R   0.578310 0.341170 0.495860 -0.571598
O7    O     O_R   0.406230 0.506210 0.382120 -0.613714
O8    O     O_R   0.593850 0.493790 0.372160 -0.578315
C3    C     C_R   0.477547 0.299685 0.500561 0.908623
C4    C     C_R   0.499507 0.499754 0.338333 0.929089
C5    C     C_3   0.388064 0.536413 0.954451 -0.520972
C6    C     C_3   0.595942 0.574576 0.947730 -0.352999
C7    C     C_3   0.598976 0.569451 0.045397 -0.331485
H1    H     H_    0.376346 0.616172 0.930425 0.234217
H2    H     H_    0.678541 0.556981 0.917335 0.219091
H3    H     H_    0.581203 0.655673 0.928521 0.198903
H4    H     H_    0.598857 0.649213 0.072820 0.233108
H5    H     H_    0.678938 0.537592 0.062243 0.192731
C8    C     C_1   0.498446 0.499079 0.249582 -0.128045
C9    C     C_3   0.500937 0.498215 0.917386 0.148479
C10   C     C_3   0.385177 0.534374 0.053097 0.192366
C11   C     C_3   0.498615 0.498415 0.082884 0.147794
C12   C     C_3   0.513340 0.386209 0.049491 -0.526498
C13   C     C_3   0.512508 0.385226 0.950934 0.202464
C14   C     C_1   0.498314 0.498546 0.174323 -0.033357
C15   C     C_1   0.501776 0.498978 0.825851 -0.033604
C16   C     C_1   0.501588 0.499543 0.750547 -0.129604
H6    H     H_    0.436865 0.336481 0.933497 0.110108
H7    H     H_    0.444081 0.332048 0.076605 0.165575
H8    H     H_    0.317139 0.485073 0.932275 0.164632
H9    H     H_    0.317967 0.474943 0.075513 0.105313
H10   H     H_    0.592301 0.357213 0.071309 0.225002
C17   C     C_R   0.463405 0.188446 0.501499 -0.139009
C18   C     C_R   0.537208 0.811856 0.488935 -0.234168
C19   C     C_R   0.633603 0.970328 0.432513 0.248191
C20   C     C_R   0.627086 0.861563 0.439526 0.218121
C21   C     C_R   0.454644 0.868298 0.529530 -0.274044
C22   C     C_R   0.456252 0.974703 0.519301 0.041174
C23   C     C_R   0.546803 0.026483 0.471055 -0.058369
C24   C     C_R   0.547426 0.133378 0.461299 -0.175619
C25   C     C_R   0.372740 0.137814 0.547273 -0.276143
C26   C     C_R   0.367516 0.030108 0.555351 0.502920
H11   H     H_    0.614039 0.175233 0.423409 0.223759
H12   H     H_    0.308033 0.181663 0.578747 0.179714
H13   H     H_    0.387088 0.828156 0.567959 0.207804
N1    N     N_R   0.207800 0.519340 0.515510 -0.105318
N2    N     N_R   0.792190 0.480660 0.484490 -0.132819
C27   C     C_R   0.953727 0.401403 0.421779 -0.415416
C28   C     C_R   0.836496 0.412533 0.426777 0.689887
C29   C     C_R   0.858904 0.542215 0.534241 -0.101236
C30   C     C_R   0.976036 0.535717 0.528703 0.095114
C31   C     C_R   0.023695 0.464192 0.471809 0.029295
C32   C     C_R   0.140930 0.457117 0.466478 0.011850
C33   C     C_R   0.162652 0.588935 0.571015 0.033640
C34   C     C_R   0.046495 0.598122 0.578905 -0.289399
H14   H     H_    0.179144 0.402394 0.423104 0.127721
H15   H     H_    0.216954 0.637377 0.609545 0.130950
H16   H     H_    0.991180 0.344472 0.380409 0.161863
H17   H     H_    0.012159 0.653233 0.623870 0.150613
H18   H     H_    0.820608 0.596353 0.578097 0.150042
N3    N     N_R   0.357109 0.635577 0.089357 0.230053
O9    O     O_R   0.271082 0.640424 0.143270 -0.364273
O10   O     O_R   0.413570 0.721558 0.065521 -0.373637
N4    N     N_R   0.725499 0.022630 0.383676 0.213979
O11   O     O_R   0.743576 0.000763 0.303473 -0.329071
O12   O     O_R   0.795838 0.086613 0.420802 -0.395933
O13   O     O_3   0.279767 0.980333 0.603564 -0.641451
C35   C     C_3   0.189539 0.959636 0.550941 0.063557
H19   H     H_    0.214994 0.909616 0.495999 0.155334
H20   H     H_    0.159596 0.033769 0.526717 0.157074
C36   C     C_3   0.093252 0.901892 0.602948 -0.364188
H21   H     H_    0.122980 0.829322 0.629621 0.221218
H22   H     H_    0.065112 0.951959 0.656749 0.248307
C37   C     C_3   0.994479 0.873728 0.548513 -0.814285
H23   H     H_    0.962919 0.945318 0.521593 0.299628
H24   H     H_    0.925601 0.832893 0.588276 0.253607
H25   H     H_    0.020097 0.821104 0.495752 0.284005
N5    N     N_R   0.708793 0.802304 0.394056 0.244213
O14   O     O_R   0.814926 0.821891 0.404410 -0.356891
O15   O     O_R   0.677801 0.735103 0.336628 -0.371010
O16   O     O_3   0.762072 0.352036 0.379438 -0.618089
C38   C     C_3   0.801668 0.333467 0.294392 0.082820
H26   H     H_    0.734752 0.284720 0.264489 0.189793
H27   H     H_    0.875275 0.285328 0.291106 0.165582
C39   C     C_3   0.823021 0.434346 0.241653 -0.421409
H28   H     H_    0.746040 0.478026 0.244017 0.258010
H29   H     H_    0.891279 0.485038 0.267875 0.238085
C40   C     C_3   0.856297 0.410297 0.148952 -0.847530
H30   H     H_    0.934415 0.368122 0.144731 0.272054
H31   H     H_    0.871184 0.484274 0.112492 0.275981
H32   H     H_    0.788522 0.361831 0.119921 0.272925
N6    N     N_R   0.611522 0.337645 0.912363 0.228260
O17   O     O_R   0.598749 0.258103 0.861696 -0.360990
O18   O     O_R   0.712113 0.370150 0.931307 -0.401053

loop_
_geom_bond_atom_site_label_1
_geom_bond_atom_site_label_2
_geom_bond_distance
_ccdc_geom_bond_type
C5    H1    1.113294 S    
C30   C31   1.405706 A    
C30   C34   1.402570 A    
C21   C22   1.375428 A    
C36   H21   1.111404 S    
C25   C26   1.386670 A    
C12   H7    1.113686 S    
Zn1   O7    1.974039 S    
C11   C12   1.550098 S    
C7    C11   1.550796 S    
C8    C14   1.184362 T    
C35   C36   1.527531 S    
C22   C26   1.409213 A    
O4    C2    1.285851 A    
O7    C4    1.285952 A    
C38   H27   1.108887 S    
C5    C10   1.550904 S    
C31   C32   1.412119 A    
C19   N4    1.436234 S    
O5    C3    1.286368 A    
C1    C18   1.435368 S    
C6    C7    1.541147 S    
N3    O10   1.301427 A    
N6    O18   1.301517 A    
C39   H29   1.110372 S    
C5    H8    1.113760 S    
C3    C17   1.427910 S    
C24   H11   1.082697 S    
C6    H3    1.113441 S    
C33   H15   1.081819 S    
C2    C16   1.398821 S    
C6    C9    1.550364 S    
O3    Zn1   1.966302 S    
C21   H13   1.085046 S    
N1    C33   1.363211 A    
C20   N5    1.436307 S    
C13   H6    1.115484 S    
C10   N3    1.469420 S    
C18   C21   1.389392 A    
O3    C2    1.285745 A    
C19   C20   1.398494 A    
C38   H26   1.111138 S    
N4    O11   1.300984 A    
C32   H14   1.082824 S    
C19   C23   1.411578 A    
C10   C11   1.562451 S    
O16   C38   1.418292 S    
O6    C3    1.286452 A    
C40   H32   1.110343 S    
C7    H4    1.110687 S    
N2    C28   1.368328 A    
C4    C8    1.397395 S    
C23   C24   1.381543 A    
Zn2   O8    1.966303 S    
N6    O17   1.301017 A    
C40   H31   1.110326 S    
C39   C40   1.525683 S    
C36   H22   1.111729 S    
Zn2   N2    2.012228 S    
C26   O13   1.382909 S    
C10   H9    1.115558 S    
C35   H20   1.115187 S    
C5    C9    1.550748 S    
O8    C4    1.285009 A    
N3    O9    1.301054 A    
N5    O15   1.301284 A    
C22   C23   1.417483 A    
C17   C25   1.393516 A    
C27   C28   1.419735 A    
C25   H12   1.083878 S    
Zn1   O5    2.008655 S    
C29   C30   1.409947 A    
O1    Zn1   1.978339 S    
N1    C32   1.364891 A    
Zn2   O6    1.978339 S    
O2    Zn2   2.008655 S    
C9    C13   1.563139 S    
Zn1   N1    2.012349 S    
C35   H19   1.115796 S    
C38   C39   1.539805 S    
O4    Zn2   1.974039 S    
C12   H10   1.112614 S    
C34   H17   1.082725 S    
C7    H5    1.112959 S    
C13   N6    1.469442 S    
N2    C29   1.365969 A    
C17   C24   1.389605 A    
O2    C1    1.285948 A    
C33   C34   1.403634 A    
O13   C35   1.411942 S    
C27   H16   1.079862 S    
C18   C20   1.409973 A    
C37   H23   1.111137 S    
C37   H25   1.111134 S    
C15   C16   1.185169 T    
C29   H18   1.082792 S    
C6    H2    1.110685 S    
C40   H30   1.110809 S    
C37   H24   1.110513 S    
C36   C37   1.526152 S    
C9    C15   1.439887 S    
C11   C14   1.438681 S    
N4    O12   1.301203 A    
N5    O14   1.300682 A    
C12   C13   1.551527 S    
C28   O16   1.392784 S    
O1    C1    1.289122 A    
C39   H28   1.109750 S    
C27   C31   1.400061 A    
