data_mof_unit_62723.cif
_audit_creation_date              2012-12-10T17:40:16-0500
_audit_creation_method            fapswitch 2.2
_symmetry_space_group_name_H-M    P1
_symmetry_Int_Tables_number       1
_space_group_crystal_system       triclinic
_cell_length_a                    37.288972
_cell_length_b                    30.384875
_cell_length_c                    21.914018
_cell_angle_alpha                 90.514194
_cell_angle_beta                  125.448223
_cell_angle_gamma                 89.525081
_cell_volume                      20225.7662591

loop_
_atom_site_label
_atom_site_type_symbol
_atom_type_description
_atom_site_fract_x
_atom_site_fract_y
_atom_site_fract_z
_atom_type_partial_charge
C1    C     C_R   0.414880 0.500065 0.914826 0.784755
C2    C     C_R   0.585121 0.499935 0.085175 0.784541
C3    C     C_R   0.914879 0.000071 0.914787 0.784707
C4    C     C_R   0.085121 0.999929 0.085213 0.784441
C5    C     C_2   0.504431 0.497614 0.820676 -0.316690
C6    C     C_2   0.495563 0.502385 0.179320 -0.313392
C7    C     C_2   0.004432 0.997611 0.820676 -0.318577
C8    C     C_2   0.995564 0.002387 0.179320 -0.315335
C9    C     C_R   0.297346 0.462642 0.815038 -0.169218
C10   C     C_R   0.702655 0.537405 0.185139 -0.169227
C11   C     C_R   0.797157 0.038112 0.814869 -0.168611
C12   C     C_R   0.202844 0.961878 0.185175 -0.168714
C13   C     C_R   0.343210 0.462539 0.860818 -0.184833
C14   C     C_R   0.656791 0.537505 0.139356 -0.183929
C15   C     C_R   0.843035 0.038095 0.860673 -0.180794
C16   C     C_R   0.156966 0.961895 0.139367 -0.182049
C17   C     C_R   0.366536 0.500152 0.866240 -0.026226
C18   C     C_R   0.633467 0.499848 0.133762 -0.026355
C19   C     C_R   0.866534 0.000234 0.866059 -0.026771
C20   C     C_R   0.133466 0.999766 0.133941 -0.026703
C21   C     C_R   0.343298 0.537740 0.824691 -0.180595
C22   C     C_R   0.656709 0.462217 0.175139 -0.181675
C23   C     C_R   0.843468 0.962545 0.824399 -0.184573
C24   C     C_R   0.156532 0.037466 0.175561 -0.183614
C25   C     C_R   0.297419 0.537578 0.777990 -0.168807
C26   C     C_R   0.702588 0.462378 0.221837 -0.168738
C27   C     C_R   0.797599 0.962828 0.777669 -0.169298
C28   C     C_R   0.202401 0.037186 0.222288 -0.169480
C29   C     C_R   0.274198 0.500097 0.773178 0.100667
C30   C     C_R   0.725806 0.499905 0.226824 0.100725
C31   C     C_R   0.774196 0.000536 0.772927 0.100389
C32   C     C_R   0.225806 0.999467 0.227075 0.100447
C33   C     C_R   0.202837 0.513366 0.649940 -0.168377
C34   C     C_R   0.797171 0.486478 0.349985 -0.167942
C35   C     C_R   0.702941 0.986983 0.649632 -0.167839
C36   C     C_R   0.297062 0.013128 0.350320 -0.168196
C37   C     C_R   0.156946 0.512955 0.604018 -0.183172
C38   C     C_R   0.843063 0.486893 0.395910 -0.182672
C39   C     C_R   0.657048 0.987189 0.603805 -0.182817
C40   C     C_R   0.342954 0.012926 0.396147 -0.183395
C41   C     C_R   0.133485 0.499958 0.632837 -0.028917
C42   C     C_R   0.866519 0.500056 0.367167 -0.027619
C43   C     C_R   0.633484 0.000296 0.632791 -0.027678
C44   C     C_R   0.366518 0.999717 0.367213 -0.028677
C45   C     C_R   0.501382 0.499665 0.883858 0.851544
C46   C     C_R   0.498616 0.500335 0.116141 0.851066
C47   C     C_R   0.001381 0.999664 0.883857 0.851862
C48   C     C_R   0.998617 0.000336 0.116142 0.851268
C49   C     C_R   0.156592 0.487022 0.708028 -0.182708
C50   C     C_R   0.843412 0.513153 0.292056 -0.183104
C51   C     C_R   0.656488 0.013604 0.708038 -0.182973
C52   C     C_R   0.343518 0.986300 0.292021 -0.182461
C53   C     C_R   0.202450 0.486778 0.753549 -0.169023
C54   C     C_R   0.797554 0.513391 0.246534 -0.168985
C55   C     C_R   0.702350 0.014070 0.753468 -0.169060
C56   C     C_R   0.297656 0.985830 0.246592 -0.169138
C57   C     C_R   0.225830 0.500105 0.724864 0.100844
C58   C     C_R   0.774176 0.499900 0.275139 0.101021
C59   C     C_R   0.725829 0.000575 0.724627 0.100806
C60   C     C_R   0.274174 0.999429 0.275377 0.100657
C61   C     C_R   0.500065 0.414877 0.500112 0.783948
C62   C     C_R   0.000064 0.914877 0.500108 0.783939
C63   C     C_R   0.499645 0.501378 0.617172 0.852475
C64   C     C_R   0.500355 0.498621 0.382828 0.852666
C65   C     C_R   0.999645 0.001375 0.617172 0.852446
C66   C     C_R   0.000355 0.998625 0.382828 0.852622
C67   C     C_R   0.499930 0.585144 0.499833 0.797753
C68   C     C_R   0.999930 0.085144 0.499835 0.797742
C69   C     C_R   0.999947 0.414845 0.499718 0.840583
C70   C     C_R   0.499949 0.914845 0.499719 0.840624
C71   C     C_R   0.085138 0.499995 0.584908 0.789392
C72   C     C_R   0.914863 0.500023 0.415094 0.789268
C73   C     C_R   0.585138 0.000067 0.584904 0.789388
C74   C     C_R   0.414862 0.999950 0.415097 0.789088
C75   C     C_R   0.999985 0.585140 0.500212 0.789538
C76   C     C_R   0.499989 0.085140 0.500216 0.789576
C77   C     C_R   0.462643 0.297353 0.444945 -0.169877
C78   C     C_R   0.537592 0.297414 0.556961 -0.169130
C79   C     C_R   0.962639 0.797356 0.444919 -0.169675
C80   C     C_R   0.037589 0.797411 0.556926 -0.169403
C81   C     C_R   0.999467 0.274069 0.498268 0.001654
C82   C     C_R   0.499471 0.774069 0.498249 0.001631
C83   C     C_R   0.462536 0.343212 0.444933 -0.185004
C84   C     C_R   0.537751 0.343288 0.556307 -0.181834
C85   C     C_R   0.962534 0.843214 0.444916 -0.184952
C86   C     C_R   0.037751 0.843284 0.556282 -0.181982
C87   C     C_R   0.500154 0.366533 0.500434 -0.025891
C88   C     C_R   0.000153 0.866532 0.500419 -0.025877
C89   C     C_R   0.500106 0.274197 0.501089 0.100893
C90   C     C_R   0.000101 0.774197 0.501056 0.100908
C91   C     C_R   0.013416 0.702821 0.566228 -0.168830
C92   C     C_R   0.986724 0.702457 0.435612 -0.169280
C93   C     C_R   0.513430 0.202817 0.566259 -0.168774
C94   C     C_R   0.486734 0.202461 0.435641 -0.169285
C95   C     C_R   0.013002 0.656936 0.565860 -0.182571
C96   C     C_R   0.986965 0.656604 0.435531 -0.184754
C97   C     C_R   0.513016 0.156931 0.565883 -0.185333
C98   C     C_R   0.486976 0.156608 0.435552 -0.181963
C99   C     C_R   0.999952 0.633486 0.500574 -0.028763
C100  C     C_R   0.499962 0.133486 0.500590 -0.028765
C101  C     C_R   0.000106 0.725827 0.501015 0.101162
C102  C     C_R   0.500115 0.225827 0.501047 0.101162
C103  C     C_R   0.460434 0.702855 0.470604 -0.100967
C104  C     C_R   0.538709 0.702545 0.526162 -0.102611
C105  C     C_R   0.960431 0.202854 0.470621 -0.100823
C106  C     C_R   0.038708 0.202548 0.526197 -0.102846
C107  C     C_R   0.460494 0.656995 0.470826 -0.198596
C108  C     C_R   0.538910 0.656694 0.527042 -0.202329
C109  C     C_R   0.960492 0.156995 0.470835 -0.198532
C110  C     C_R   0.038911 0.156697 0.527070 -0.202465
C111  C     C_R   0.499776 0.633525 0.499267 -0.034338
C112  C     C_R   0.999776 0.133526 0.499280 -0.034348
C113  C     C_R   0.008671 0.296770 0.453183 0.358093
C114  C     C_R   0.990371 0.297262 0.543705 0.357546
C115  C     C_R   0.508693 0.796775 0.453188 0.358370
C116  C     C_R   0.490361 0.797258 0.543671 0.357303
C117  C     C_R   0.499512 0.725745 0.498150 0.211611
C118  C     C_R   0.999510 0.225745 0.498179 0.211679
C119  C     C_R   0.999748 0.366429 0.499084 -0.111645
C120  C     C_R   0.499753 0.866430 0.499081 -0.111683
C121  C     C_R   0.008548 0.342980 0.453716 -0.290454
C122  C     C_R   0.990754 0.343441 0.543956 -0.292685
C123  C     C_R   0.508570 0.842986 0.453730 -0.293647
C124  C     C_R   0.490745 0.843437 0.543931 -0.289451
C125  C     C_2   0.528775 0.524488 0.745335 -0.152358
C126  C     C_2   0.471232 0.475497 0.254674 -0.155422
C127  C     C_2   0.028771 0.024487 0.745330 -0.152871
C128  C     C_2   0.971243 0.975494 0.254686 -0.155924
C129  C     C_2   0.497578 0.504450 0.681334 -0.315709
C130  C     C_2   0.502422 0.495551 0.318666 -0.312192
C131  C     C_2   0.997577 0.004443 0.681333 -0.315905
C132  C     C_2   0.002422 0.995562 0.318667 -0.312404
C133  C     C_2   0.524459 0.528810 0.807860 -0.154091
C134  C     C_2   0.475548 0.471180 0.192147 -0.157228
C135  C     C_2   0.024452 0.028811 0.807851 -0.151591
C136  C     C_2   0.975560 0.971177 0.192161 -0.154759
Cu1   Cu    Cu3+1 0.500000 0.544050 0.000000 0.950015
Cu2   Cu    Cu3+1 0.000000 0.044050 0.000000 0.949721
Cu3   Cu    Cu3+1 0.500000 0.455950 0.000000 0.944146
Cu4   Cu    Cu3+1 0.000000 0.955950 0.000000 0.943883
Cu5   Cu    Cu3+1 0.544050 0.500000 0.544060 0.946347
Cu6   Cu    Cu3+1 0.455950 0.500000 0.455940 0.946928
Cu7   Cu    Cu3+1 0.044050 1.000000 0.544060 0.946265
Cu8   Cu    Cu3+1 0.955950 0.000000 0.455940 0.946863
Cu9   Cu    Cu3+1 0.000010 0.500010 0.438990 0.940788
Cu10  Cu    Cu3+1 0.999990 0.500010 0.561010 0.940606
Cu11  Cu    Cu3+1 0.500010 0.000010 0.438990 0.940642
Cu12  Cu    Cu3+1 0.499990 0.000010 0.561010 0.940739
H1    H     H_    0.556591 0.540001 0.750584 0.162808
H2    H     H_    0.443426 0.459967 0.249437 0.160002
H3    H     H_    0.056585 0.040007 0.750577 0.163220
H4    H     H_    0.943445 0.959947 0.249459 0.160420
H5    H     H_    0.139845 0.523217 0.546273 0.150347
H6    H     H_    0.860168 0.476502 0.453593 0.149583
H7    H     H_    0.640030 0.976661 0.546006 0.149454
H8    H     H_    0.359972 0.023541 0.453903 0.150034
H9    H     H_    0.139241 0.476722 0.731489 0.150852
H10   H     H_    0.860766 0.523585 0.268663 0.149278
H11   H     H_    0.639046 0.024017 0.731606 0.149323
H12   H     H_    0.360963 0.975804 0.268500 0.150760
H13   H     H_    0.219716 0.476698 0.811427 0.130528
H14   H     H_    0.780288 0.523598 0.188718 0.130193
H15   H     H_    0.719545 0.024403 0.811407 0.130592
H16   H     H_    0.280463 0.975411 0.188696 0.130758
H17   H     H_    0.433333 0.279917 0.401627 0.130081
H18   H     H_    0.566892 0.280008 0.600456 0.130752
H19   H     H_    0.933326 0.779921 0.401602 0.130032
H20   H     H_    0.066889 0.780003 0.600416 0.130779
H21   H     H_    0.433182 0.360392 0.401117 0.148971
H22   H     H_    0.567105 0.360548 0.599872 0.151103
H23   H     H_    0.933179 0.860398 0.401107 0.149077
H24   H     H_    0.067106 0.860543 0.599847 0.150951
H25   H     H_    0.023603 0.720397 0.617091 0.130324
H26   H     H_    0.976602 0.719726 0.384898 0.129968
H27   H     H_    0.523618 0.220389 0.617125 0.130144
H28   H     H_    0.476612 0.219733 0.384929 0.130173
H29   H     H_    0.023304 0.639831 0.616786 0.150168
H30   H     H_    0.976621 0.639263 0.384408 0.149074
H31   H     H_    0.523320 0.139822 0.616807 0.148669
H32   H     H_    0.476632 0.139272 0.384426 0.150542
H33   H     H_    0.015596 0.360559 0.419031 0.159834
H34   H     H_    0.983811 0.361365 0.578982 0.159119
H35   H     H_    0.515633 0.860568 0.419066 0.158636
H36   H     H_    0.483790 0.861358 0.578944 0.160341
H37   H     H_    0.429943 0.720547 0.448722 0.139708
H38   H     H_    0.569121 0.719994 0.547805 0.139250
H39   H     H_    0.929939 0.220545 0.448733 0.139652
H40   H     H_    0.069122 0.219998 0.547847 0.139213
H41   H     H_    0.467433 0.493246 0.673008 0.154391
H42   H     H_    0.532562 0.506770 0.326985 0.154306
H43   H     H_    0.967433 0.993233 0.673007 0.154404
H44   H     H_    0.032556 0.006798 0.326982 0.154287
H45   H     H_    0.429894 0.639968 0.449242 0.156481
H46   H     H_    0.569615 0.639430 0.549055 0.155901
H47   H     H_    0.929891 0.139966 0.449240 0.156574
H48   H     H_    0.069617 0.139433 0.549086 0.155794
H49   H     H_    0.539981 0.556620 0.845917 0.162180
H50   H     H_    0.460036 0.443363 0.154101 0.160072
H51   H     H_    0.039965 0.056627 0.845895 0.164080
H52   H     H_    0.960061 0.943354 0.154130 0.161994
H53   H     H_    0.493223 0.467475 0.787674 0.154270
H54   H     H_    0.506761 0.532527 0.212311 0.156504
H55   H     H_    0.993230 0.967469 0.787684 0.153140
H56   H     H_    0.006752 0.032535 0.212299 0.155376
H57   H     H_    0.279899 0.433338 0.811617 0.130559
H58   H     H_    0.720098 0.566745 0.188698 0.130370
H59   H     H_    0.779553 0.067581 0.811511 0.131242
H60   H     H_    0.220447 0.932399 0.188569 0.131366
H61   H     H_    0.360390 0.433193 0.892486 0.149029
H62   H     H_    0.639611 0.566887 0.107828 0.149891
H63   H     H_    0.860090 0.067521 0.892426 0.151629
H64   H     H_    0.139912 0.932460 0.107646 0.150707
H65   H     H_    0.360568 0.567087 0.827731 0.151977
H66   H     H_    0.639444 0.432833 0.171965 0.151261
H67   H     H_    0.860867 0.933004 0.827395 0.150128
H68   H     H_    0.139133 0.067016 0.172535 0.150934
H69   H     H_    0.280012 0.566869 0.746365 0.131301
H70   H     H_    0.719997 0.433052 0.253322 0.131318
H71   H     H_    0.780338 0.933446 0.745982 0.130895
H72   H     H_    0.219660 0.066579 0.253938 0.130840
H73   H     H_    0.220428 0.523510 0.626824 0.130918
H74   H     H_    0.779583 0.476204 0.373040 0.130786
H75   H     H_    0.720612 0.976690 0.626413 0.130790
H76   H     H_    0.279391 0.023503 0.373499 0.130888
O1    O     O_R   0.435730 0.537200 0.935720 -0.587464
O2    O     O_R   0.564270 0.537200 0.064280 -0.591405
O3    O     O_R   0.935730 0.037200 0.935720 -0.587243
O4    O     O_R   0.064270 0.037200 0.064280 -0.591639
O5    O     O_R   0.064280 0.500010 0.512760 -0.588278
O6    O     O_R   0.935720 0.500010 0.487240 -0.588418
O7    O     O_R   0.564280 0.000010 0.512760 -0.588206
O8    O     O_R   0.435720 0.000010 0.487240 -0.588295
O9    O     O_R   0.064270 0.500010 0.615800 -0.589131
O10   O     O_R   0.935730 0.500010 0.384200 -0.588850
O11   O     O_R   0.564270 0.000010 0.615800 -0.588817
O12   O     O_R   0.435730 0.000010 0.384200 -0.589149
O13   O     O_R   0.000010 0.564280 0.448470 -0.590295
O14   O     O_R   0.999990 0.564280 0.551530 -0.586316
O15   O     O_R   0.500010 0.064280 0.448470 -0.586365
O16   O     O_R   0.499990 0.064280 0.551530 -0.590238
O17   O     O_R   0.435730 0.462800 0.935730 -0.592393
O18   O     O_R   0.564270 0.462800 0.064270 -0.588624
O19   O     O_R   0.935730 0.962800 0.935730 -0.592605
O20   O     O_R   0.064270 0.962800 0.064270 -0.588358
O21   O     O_R   0.500010 0.537200 0.910980 -0.580828
O22   O     O_R   0.499990 0.537200 0.089020 -0.582878
O23   O     O_R   0.000010 0.037200 0.910980 -0.576572
O24   O     O_R   0.999990 0.037200 0.089020 -0.587241
O25   O     O_R   0.500010 0.462800 0.910980 -0.584886
O26   O     O_R   0.499990 0.462800 0.089020 -0.582452
O27   O     O_R   0.000010 0.962800 0.910980 -0.589202
O28   O     O_R   0.999990 0.962800 0.089020 -0.578239
O29   O     O_R   0.537200 0.435730 0.537210 -0.588599
O30   O     O_R   0.462800 0.435730 0.462790 -0.592450
O31   O     O_R   0.037200 0.935730 0.537210 -0.588543
O32   O     O_R   0.962800 0.935730 0.462790 -0.592505
O33   O     O_R   0.537190 0.500000 0.626220 -0.580765
O34   O     O_R   0.462810 0.500000 0.373780 -0.580016
O35   O     O_R   0.037190 1.000000 0.626220 -0.580897
O36   O     O_R   0.962810 1.000000 0.373780 -0.580133
O37   O     O_R   0.462790 0.500000 0.551820 -0.585656
O38   O     O_R   0.537210 0.500000 0.448180 -0.586060
O39   O     O_R   0.962790 1.000000 0.551820 -0.585563
O40   O     O_R   0.037210 0.000000 0.448180 -0.585988
O41   O     O_R   0.537200 0.564270 0.537200 -0.592779
O42   O     O_R   0.462800 0.564270 0.462800 -0.588625
O43   O     O_R   0.037200 0.064270 0.537200 -0.592776
O44   O     O_R   0.962800 0.064270 0.462800 -0.588629
O45   O     O_R   0.000000 0.435740 0.448480 -0.587081
O46   O     O_R   0.000000 0.435740 0.551520 -0.591132
O47   O     O_R   0.500000 0.935740 0.448480 -0.591004
O48   O     O_R   0.500000 0.935740 0.551520 -0.587206
O49   O     O_3   0.017079 0.273127 0.408567 -0.734278
H77   H     H_    0.022814 0.293924 0.380552 0.324210
O50   O     O_3   0.981887 0.274108 0.588009 -0.734502
H78   H     H_    0.976258 0.295213 0.616367 0.323791
O51   O     O_3   0.517118 0.773137 0.408589 -0.734332
H79   H     H_    0.522863 0.793937 0.380590 0.323749
O52   O     O_3   0.481862 0.774100 0.587953 -0.734400
H80   H     H_    0.476228 0.795202 0.616309 0.324292

loop_
_geom_bond_atom_site_label_1
_geom_bond_atom_site_label_2
_ccdc_geom_bond_type
C83   H21   S    
C52   H12   S    
C61   O29   A    
C83   C87   A    
C43   C73   S    
C61   O30   A    
C3    O3    A    
C89   C102  S    
C8    C136  D    
Cu6   O42   S    
Cu5   O38   S    
Cu12  O48   S    
C94   H28   S    
C25   H69   S    
O50   H78   S    
C103  H37   S    
C84   C87   A    
C104  C108  A    
C43   C51   A    
C136  H52   S    
C47   O23   A    
Cu9   Cu10  S    
C23   H67   S    
C50   H10   S    
C15   C19   A    
Cu8   O32   S    
C77   C89   A    
C50   C54   A    
C21   C25   A    
C76   O15   A    
C86   H24   S    
C12   H60   S    
Cu10  O46   S    
Cu9   O45   S    
C65   O35   A    
C127  C135  S    
C82   C115  A    
C124  H36   S    
C84   H22   S    
C63   O33   A    
C135  H51   S    
C35   C39   A    
C67   O41   A    
C98   H32   S    
C64   O38   A    
C97   H31   S    
Cu9   O5    S    
C26   H70   S    
C126  C130  D    
C95   C99   A    
C1    O1    A    
Cu7   Cu8   S    
C96   C99   A    
C63   O37   A    
C92   C96   A    
C9    C13   A    
C91   H25   S    
C35   C59   A    
C68   C112  S    
C31   C59   S    
Cu3   O18   S    
C14   C18   A    
C46   O26   A    
C68   O43   A    
Cu1   O1    S    
Cu2   O23   S    
C61   C87   S    
Cu11  Cu12  S    
C45   O25   A    
C69   O46   A    
C52   C56   A    
Cu11  O7    S    
C128  H4    S    
C12   C16   A    
C70   C120  S    
C79   C90   A    
Cu9   O13   S    
C81   C114  A    
C24   H68   S    
C15   H63   S    
O52   H80   S    
C3    C19   S    
Cu12  O8    S    
Cu6   O37   S    
C23   C27   A    
C6    C46   S    
C36   H76   S    
C40   C44   A    
C7    H55   S    
C120  C123  A    
C9    C29   A    
C41   C71   S    
C127  H3    S    
Cu11  O12   S    
C115  O51   S    
C63   C129  S    
Cu10  O9    S    
C11   C31   A    
C28   H72   S    
C18   C22   A    
O51   H79   S    
C106  C118  A    
C37   C41   A    
C79   H19   S    
C49   H9    S    
C65   O39   A    
Cu4   O27   S    
C11   H59   S    
C91   C101  A    
C66   O40   A    
C27   H71   S    
C128  C132  D    
C41   C49   A    
C105  C109  A    
C65   C131  S    
C64   O34   A    
C114  O50   S    
C62   O32   A    
C66   C132  S    
C1    C17   S    
C119  C121  A    
C78   C89   A    
C25   C29   A    
C62   O31   A    
Cu8   O44   S    
C78   H18   S    
C115  C123  A    
C14   H62   S    
C86   C88   A    
C27   C31   A    
C13   H61   S    
C28   C32   A    
Cu7   O35   S    
C46   O22   A    
C74   O8    A    
C10   C14   A    
C109  C112  A    
C113  O49   S    
C67   O42   A    
C53   C57   A    
C19   C23   A    
C34   C38   A    
C16   H64   S    
C39   C43   A    
C51   C55   A    
C92   H26   S    
C5    C45   S    
C81   C118  S    
C69   C119  S    
C77   C83   A    
C33   C37   A    
C56   C60   A    
C68   O44   A    
C129  H41   S    
Cu4   O20   S    
C7    C47   S    
C48   O28   A    
C5    C133  D    
C8    C48   S    
C90   C101  S    
C7    C135  D    
Cu1   O2    S    
C35   H75   S    
C125  H1    S    
C82   C116  A    
C73   O7    A    
Cu1   Cu3   S    
C107  C111  A    
C10   C30   A    
C70   O48   A    
C6    C134  D    
C95   H29   S    
C8    H56   S    
C110  C112  A    
C16   C20   A    
C33   H73   S    
C42   C72   S    
O49   H77   S    
C71   O5    A    
C113  C121  A    
C3    O19   A    
C108  H46   S    
C54   H14   S    
C44   C74   S    
C2    O18   A    
C75   C99   S    
C126  C134  S    
Cu2   Cu4   S    
C92   C101  A    
C42   C50   A    
C105  C118  A    
C1    O17   A    
C131  H43   S    
C67   C111  S    
C38   H6    S    
C64   C130  S    
Cu10  O14   S    
C26   C30   A    
C11   C15   A    
C22   H66   S    
C110  H48   S    
Cu3   O25   S    
C21   H65   S    
C36   C40   A    
C75   O13   A    
Cu3   O26   S    
C32   C60   S    
C62   C88   S    
C45   O21   A    
C81   C113  A    
C93   C97   A    
C107  H45   S    
C97   C100  A    
C104  H38   S    
C55   C59   A    
C2    O2    A    
C121  H33   S    
C104  C117  A    
Cu10  O6    S    
C85   C88   A    
C125  C133  S    
C134  H50   S    
C132  H44   S    
C133  H49   S    
Cu11  O15   S    
C116  C124  A    
Cu2   O4    S    
Cu12  O16   S    
C93   C102  A    
C47   O27   A    
C116  O52   S    
Cu5   O33   S    
C24   C28   A    
C105  H39   S    
C29   C57   S    
C2    C18   S    
C36   C60   A    
C44   C52   A    
C103  C107  A    
Cu8   O39   S    
C4    O20   A    
C6    H54   S    
C75   O14   A    
C4    C20   S    
C33   C57   A    
C76   C100  S    
C72   O6    A    
C130  H42   S    
C56   H16   S    
C77   H17   S    
C80   C86   A    
Cu6   O30   S    
C108  C111  A    
C13   C17   A    
C76   O16   A    
Cu12  O11   S    
Cu5   O29   S    
Cu6   O34   S    
Cu4   O19   S    
C37   H5    S    
C128  C136  S    
C10   H58   S    
C55   H15   S    
C48   O24   A    
C9    H57   S    
Cu5   Cu6   S    
C106  H40   S    
C20   C24   A    
C5    H53   S    
Cu1   O22   S    
C126  H2    S    
C53   H13   S    
C70   O47   A    
Cu11  O47   S    
C49   C53   A    
C93   H27   S    
C30   C58   S    
C51   H11   S    
C119  C122  A    
C79   C85   A    
C72   O10   A    
C109  H47   S    
Cu7   O43   S    
C4    O4    A    
C80   C90   A    
Cu2   O3    S    
Cu3   O17   S    
C98   C100  A    
C127  C131  D    
C78   C84   A    
C73   O11   A    
Cu2   O24   S    
C120  C124  A    
Cu8   O36   S    
C69   O45   A    
C114  C122  A    
C38   C42   A    
C125  C129  D    
C122  H34   S    
C85   H23   S    
C54   C58   A    
Cu4   O28   S    
C94   C102  A    
C91   C95   A    
C106  C110  A    
Cu1   O21   S    
C22   C26   A    
C123  H35   S    
C39   H7    S    
C34   C58   A    
C94   C98   A    
C40   H8    S    
C103  C117  A    
Cu7   O31   S    
Cu7   O40   S    
C82   C117  S    
C96   H30   S    
Cu9   O10   S    
C66   O36   A    
C74   O12   A    
C80   H20   S    
C12   C32   A    
C34   H74   S    
C71   O9    A    
Cu5   O41   S    
C17   C21   A    
