data_mof_unit_26248.cif
_audit_creation_date              2012-12-10T19:33:09-0500
_audit_creation_method            fapswitch 2.2
_symmetry_space_group_name_H-M    P1
_symmetry_Int_Tables_number       1
_space_group_crystal_system       triclinic
_cell_length_a                    8.733769
_cell_length_b                    15.800855
_cell_length_c                    17.074776
_cell_angle_alpha                 97.185822
_cell_angle_beta                  90.998629
_cell_angle_gamma                 84.568717
_cell_volume                      2327.29595869

loop_
_atom_site_label
_atom_site_type_symbol
_atom_type_description
_atom_site_fract_x
_atom_site_fract_y
_atom_site_fract_z
_atom_type_partial_charge
C1    C     C_R   0.501586 0.488658 0.348487 0.872943
C2    C     C_R   0.498344 0.511347 0.651496 0.873662
C3    C     C_R   0.422105 0.756910 0.463512 0.033131
C4    C     C_R   0.578458 0.243020 0.536176 0.033390
C5    C     C_R   0.426479 0.845987 0.465718 -0.277080
C6    C     C_R   0.574027 0.153949 0.534005 -0.277315
C7    C     C_R   0.532164 0.889009 0.515928 0.383322
C8    C     C_R   0.467688 0.111009 0.484162 0.383439
C9    C     C_R   0.629979 0.839721 0.562462 -0.321568
C10   C     C_R   0.369287 0.160368 0.437953 -0.321711
C11   C     C_R   0.621786 0.750810 0.558444 0.043100
C12   C     C_R   0.377539 0.249272 0.441935 0.043189
C13   C     C_R   0.205411 0.521890 0.500992 0.894329
C14   C     C_R   0.794590 0.478111 0.499016 0.894124
C15   C     C_2   0.040604 0.533968 0.501668 -0.354220
C16   C     C_2   0.959397 0.466035 0.498350 -0.354549
C17   C     C_R   0.503746 0.480324 0.262138 -0.179549
C18   C     C_R   0.496126 0.519735 0.737819 -0.178691
C19   C     C_R   0.426812 0.545323 0.224084 -0.310487
C20   C     C_R   0.574633 0.455310 0.775981 -0.310594
C21   C     C_R   0.431583 0.541310 0.142600 -0.214649
C22   C     C_R   0.570138 0.459499 0.857486 -0.215047
C23   C     C_R   0.514695 0.471794 0.097171 0.220476
C24   C     C_R   0.485777 0.528630 0.902802 0.220532
C25   C     C_R   0.586910 0.403911 0.134758 0.341522
C26   C     C_R   0.412058 0.596003 0.865079 0.341508
C27   C     C_R   0.582940 0.408534 0.217635 0.332485
C28   C     C_R   0.415542 0.591126 0.782179 0.332286
Cu1   Cu    Cu3+1 0.492520 0.415770 0.496210 0.945652
Cu2   Cu    Cu3+1 0.507480 0.584230 0.503790 0.944885
H1    H     H_    0.985916 0.599048 0.504945 0.172635
H2    H     H_    0.014086 0.400955 0.495075 0.172573
H3    H     H_    0.638309 0.400879 0.742421 0.179359
H4    H     H_    0.364190 0.600086 0.257713 0.179568
H5    H     H_    0.629655 0.407213 0.884534 0.186484
H6    H     H_    0.373345 0.594036 0.115664 0.186377
H7    H     H_    0.660227 0.275274 0.574646 0.129796
H8    H     H_    0.340813 0.724594 0.424776 0.129733
H9    H     H_    0.653016 0.119531 0.571037 0.154339
H10   H     H_    0.347977 0.880345 0.428415 0.154273
H11   H     H_    0.712633 0.870132 0.601860 0.143777
H12   H     H_    0.286128 0.130020 0.398837 0.143895
H13   H     H_    0.697907 0.713849 0.594751 0.126372
H14   H     H_    0.300938 0.286287 0.405891 0.126141
N1    N     N_2   0.535468 0.469783 0.014651 -0.228100
N2    N     N_2   0.465155 0.530690 0.985340 -0.227520
N3    N     N_R   0.518730 0.710760 0.509500 -0.170882
N4    N     N_R   0.481270 0.289240 0.490500 -0.170578
N5    N     N_2   0.544816 0.979847 0.521721 -0.246039
N6    N     N_2   0.455020 0.020173 0.478380 -0.246080
O1    O     O_R   0.493000 0.421040 0.382520 -0.575488
O2    O     O_R   0.507000 0.578960 0.617480 -0.576315
O3    O     O_R   0.505640 0.563310 0.388930 -0.589933
O4    O     O_R   0.494360 0.436690 0.611070 -0.589741
O5    O     O_R   0.269980 0.445280 0.497530 -0.584654
O6    O     O_R   0.730020 0.554720 0.502470 -0.584422
O7    O     O_R   0.282610 0.587550 0.503940 -0.595564
O8    O     O_R   0.717390 0.412450 0.496060 -0.594904
O9    O     O_3   0.678166 0.337792 0.092446 -0.547342
C29   C     C_3   0.584446 0.282899 0.045405 0.064286
H15   H     H_    0.545123 0.310947 0.991269 0.171190
H16   H     H_    0.481596 0.269352 0.077929 0.105156
C30   C     C_3   0.678288 0.198193 0.019599 -0.789783
H17   H     H_    0.719637 0.167342 0.071991 0.243406
H18   H     H_    0.606084 0.154522 0.982549 0.197434
H19   H     H_    0.778941 0.209250 0.984609 0.254457
O10   O     O_3   0.319887 0.661718 0.907351 -0.547283
C31   C     C_3   0.412918 0.717567 0.953728 0.063373
H20   H     H_    0.513718 0.732371 0.920348 0.104913
H21   H     H_    0.455370 0.689701 0.007468 0.170619
C32   C     C_3   0.316919 0.801321 0.980430 -0.789155
H22   H     H_    0.218301 0.789013 0.016256 0.254371
H23   H     H_    0.388596 0.845767 0.016911 0.197316
H24   H     H_    0.272453 0.831926 0.928428 0.243425
O11   O     O_3   0.676067 0.350351 0.255696 -0.546071
C33   C     C_3   0.602438 0.274676 0.256704 0.109673
H25   H     H_    0.600077 0.238280 0.196977 0.153374
H26   H     H_    0.482441 0.288470 0.279065 0.126080
C34   C     C_3   0.692775 0.217904 0.310382 -0.752712
H27   H     H_    0.702689 0.253094 0.370443 0.267080
H28   H     H_    0.633371 0.159466 0.314228 0.193663
H29   H     H_    0.810057 0.198582 0.286457 0.239006
O12   O     O_3   0.320667 0.648416 0.743962 -0.546757
C35   C     C_3   0.391836 0.724846 0.742654 0.109092
H30   H     H_    0.512759 0.712094 0.721435 0.125463
H31   H     H_    0.391033 0.762129 0.802065 0.154684
C36   C     C_3   0.301495 0.779812 0.687467 -0.753065
H32   H     H_    0.183142 0.798290 0.710246 0.238495
H33   H     H_    0.359149 0.838778 0.683324 0.193825
H34   H     H_    0.294371 0.743573 0.627697 0.268166

loop_
_geom_bond_atom_site_label_1
_geom_bond_atom_site_label_2
_ccdc_geom_bond_type
C14   O6    A    
C36   H32   S    
C30   H18   S    
C23   N1    S    
C2    C18   S    
C11   N3    A    
C35   C36   S    
C12   N4    A    
C21   H6    S    
N1    N2    D    
C22   H5    S    
C29   C30   S    
C26   O10   S    
C19   C21   A    
C24   C26   A    
C4    N4    A    
C13   O7    A    
Cu1   O4    S    
C15   C16   D    
Cu2   O7    S    
C29   H16   S    
C1    O3    A    
C3    H8    S    
C31   H20   S    
C33   C34   S    
C11   H13   S    
C18   C20   A    
C30   H19   S    
O9    C29   S    
C28   O12   S    
C27   O11   S    
C10   C12   A    
C26   C28   A    
C14   O8    A    
Cu2   O3    S    
Cu1   N4    S    
O10   C31   S    
C17   C27   A    
Cu2   N3    S    
C18   C28   A    
C35   H30   S    
C7    N5    S    
C4    C6    A    
C2    O4    A    
C5    C7    A    
C6    C8    A    
Cu1   O5    S    
Cu2   O6    S    
C34   H27   S    
C29   H15   S    
O11   C33   S    
Cu1   Cu2   S    
C34   H29   S    
C9    C11   A    
O12   C35   S    
C13   C15   S    
C33   H25   S    
C10   H12   S    
C1    O1    A    
C2    O2    A    
C20   H3    S    
C31   H21   S    
C20   C22   A    
C36   H33   S    
C22   C24   A    
C36   H34   S    
C16   H2    S    
C8    N6    S    
Cu1   O8    S    
C34   H28   S    
Cu1   O1    S    
C7    C9    A    
Cu2   O2    S    
C1    C17   S    
C33   H26   S    
C3    C5    A    
C19   H4    S    
C32   H24   S    
C15   H1    S    
C25   C27   A    
C9    H11   S    
C24   N2    S    
C21   C23   A    
C32   H22   S    
C12   H14   S    
C31   C32   S    
C3    N3    A    
C17   C19   A    
C14   C16   S    
C23   C25   A    
C30   H17   S    
C4    H7    S    
C8    C10   A    
N5    N6    D    
C5    H10   S    
C32   H23   S    
C6    H9    S    
C35   H31   S    
C25   O9    S    
C13   O5    A    
