data_mof_unit_31142.cif
_audit_creation_date              2012-12-11T14:21:17-0500
_audit_creation_method            fapswitch 2.2
_symmetry_space_group_name_H-M    P1
_symmetry_Int_Tables_number       1
_space_group_crystal_system       triclinic
_cell_length_a                    11.576106
_cell_length_b                    11.608193
_cell_length_c                    19.615304
_cell_angle_alpha                 89.872317
_cell_angle_beta                  90.042566
_cell_angle_gamma                 59.29098
_cell_volume                      2266.22632892

loop_
_atom_site_label
_atom_site_type_symbol
_atom_type_description
_atom_site_fract_x
_atom_site_fract_y
_atom_site_fract_z
_atom_type_partial_charge
C1    C     C_R   0.616499 0.086214 0.606546 0.553214
C2    C     C_1   0.627619 0.115793 0.676844 0.001089
C3    C     C_R   0.690411 0.575342 0.204753 -0.022289
C4    C     C_R   0.612756 0.746015 0.598715 0.545305
C5    C     C_R   0.558143 0.638164 0.232511 0.036247
C6    C     C_R   0.532682 0.717715 0.289001 0.023732
C7    C     C_R   0.773275 0.598736 0.313053 -0.132672
C8    C     C_R   0.798568 0.550112 0.246689 -0.126039
C9    C     C_R   0.450232 0.624915 0.206459 -0.093586
C10   C     C_R   0.320330 0.705697 0.228773 -0.135614
C11   C     C_R   0.291978 0.805981 0.274593 -0.108527
C12   C     C_1   0.641636 0.704050 0.668153 0.002892
C13   C     C_R   0.397570 0.815402 0.302030 -0.076072
C14   C     C_R   0.641700 0.690856 0.332500 -0.015050
C15   C     C_R   0.155582 0.185921 0.188496 0.012841
C16   C     C_R   0.242163 0.144698 0.598447 0.544990
C17   C     C_R   0.250495 0.220295 0.207327 -0.008864
C18   C     C_R   0.270727 0.232430 0.277336 0.056384
C19   C     C_R   0.142855 0.122988 0.304210 -0.175720
C20   C     C_R   0.100593 0.139902 0.237257 -0.164555
C21   C     C_R   0.312775 0.257681 0.157432 -0.097903
C22   C     C_R   0.367829 0.334421 0.175043 -0.142371
C23   C     C_1   0.125899 0.199990 0.859170 0.004318
C24   C     C_R   0.360504 0.374419 0.241945 -0.099916
C25   C     C_R   0.314859 0.324339 0.294109 0.288161
C26   C     C_R   0.233590 0.161203 0.324713 0.006545
C27   C     C_R   0.738703 0.197126 0.206492 0.006226
C28   C     C_R   0.641789 0.105242 0.399487 0.539513
C29   C     C_R   0.811587 0.060597 0.230546 0.032303
C30   C     C_R   0.763977 0.028275 0.288831 -0.010367
C31   C     C_R   0.632028 0.266780 0.316287 -0.143268
C32   C     C_R   0.661101 0.296680 0.252696 -0.182083
C33   C     C_R   0.927567 0.954420 0.198054 -0.139394
C34   C     C_1   0.172494 0.169931 0.727889 -0.028870
C35   C     C_R   0.971936 0.821712 0.211795 -0.066922
C36   C     C_R   0.921828 0.788485 0.266782 0.243131
C37   C     C_R   0.812874 0.890262 0.302380 -0.097971
C38   C     C_R   0.674398 0.134626 0.332861 0.010774
C39   C     C_R   0.080600 0.231954 0.928363 0.546385
C40   C     C_R   0.613119 0.744976 0.400799 0.522385
C41   C     C_R   0.683442 0.604342 0.929402 0.559292
C42   C     C_R   0.706880 0.206386 0.930489 0.561327
C43   C     C_R   0.084589 0.233766 0.124263 0.517436
C44   C     C_R   0.710476 0.544936 0.132361 0.536247
C45   C     C_1   0.150091 0.183014 0.799005 -0.028802
C46   C     C_R   0.745418 0.233127 0.134589 0.525126
C47   C     C_R   0.290612 0.123198 0.393669 0.528759
C48   C     C_1   0.669404 0.646703 0.860037 0.003800
C49   C     C_1   0.654725 0.683966 0.728543 -0.030471
C50   C     C_1   0.662722 0.667013 0.799685 -0.030367
C51   C     C_1   0.196710 0.159933 0.667672 0.003188
C52   C     C_1   0.668790 0.184276 0.863951 -0.001098
C53   C     C_1   0.635959 0.138810 0.736235 -0.027887
C54   C     C_1   0.649392 0.164104 0.805712 -0.027586
Cr1   Cr    Cr6+3 0.404720 0.198220 0.499960 1.067343
Cr2   Cr    Cr6+3 0.698290 0.897110 0.500380 1.017797
Cr3   Cr    Cr6+3 0.396970 0.904720 0.499610 1.025492
Cr4   Cr    Cr6+3 0.926180 0.151990 0.028120 1.012406
Cr5   Cr    Cr6+3 0.921330 0.451820 0.027470 1.034153
Cr6   Cr    Cr6+3 0.626260 0.446870 0.028710 1.007131
H1    H     H_    0.854978 0.566538 0.348883 0.151655
H2    H     H_    0.901089 0.490772 0.228740 0.174993
H3    H     H_    0.243596 0.689271 0.209688 0.114977
H4    H     H_    0.189471 0.872217 0.290360 0.122095
H5    H     H_    0.374419 0.895832 0.334926 0.150943
H6    H     H_    0.102131 0.082754 0.340598 0.140013
H7    H     H_    0.310357 0.235775 0.103967 0.138063
H8    H     H_    0.021013 0.121713 0.224130 0.122903
H9    H     H_    0.323595 0.448588 0.358732 0.311498
H10   H     H_    0.978482 0.657991 0.338367 0.326468
H11   H     H_    0.405932 0.371928 0.135962 0.143446
H12   H     H_    0.388850 0.446996 0.253685 0.098086
H13   H     H_    0.572345 0.347428 0.351496 0.132336
H14   H     H_    0.989726 0.969618 0.162489 0.152392
H15   H     H_    0.623398 0.397348 0.239534 0.107042
H16   H     H_    0.048597 0.744012 0.180597 0.128362
H17   H     H_    0.767734 0.857990 0.339325 0.159851
H18   H     H_    0.464475 0.547374 0.171209 0.141313
O1    O     O_R   0.267740 0.231960 0.575440 -0.505422
O2    O     O_R   0.596130 0.579390 0.952730 -0.499488
O3    O     O_R   0.639060 0.321160 0.958670 -0.488353
O4    O     O_R   0.527280 0.186640 0.570530 -0.484971
O5    O     O_R   0.821240 0.124200 0.104370 -0.517445
O6    O     O_R   0.036890 0.167040 0.097840 -0.531400
O7    O     O_R   0.056180 0.349610 0.102880 -0.517769
O8    O     O_R   0.797660 0.564870 0.097950 -0.474605
O9    O     O_R   0.595880 0.584250 0.104270 -0.525966
O10   O     O_R   0.638830 0.325670 0.099150 -0.526910
O11   O     O_3   0.824590 0.350230 0.028100 -0.295172
O12   O     O_R   0.685970 0.784660 0.430010 -0.527102
O13   O     O_R   0.728090 0.003450 0.576380 -0.491803
O14   O     O_R   0.682970 0.789190 0.570490 -0.504822
O15   O     O_R   0.499290 0.771880 0.575530 -0.495766
O16   O     O_R   0.285330 0.030870 0.569730 -0.487670
O17   O     O_R   0.270980 0.227080 0.423890 -0.422804
O18   O     O_R   0.530280 0.182120 0.430050 -0.479492
O19   O     O_R   0.731330 0.998570 0.424830 -0.529817
O20   O     O_3   0.292519 0.383254 0.357416 -0.647382
O21   O     O_3   0.988755 0.657331 0.288177 -0.704264
O22   O     O_R   0.502530 0.767000 0.423990 -0.519053
O23   O     O_R   0.288330 0.026350 0.429250 -0.523640
O24   O     O_3   0.499990 0.000020 0.499980 -0.300039
O25   O     O_R   0.821500 0.119340 0.952830 -0.495466
O26   O     O_R   0.037130 0.162530 0.957360 -0.490580
O27   O     O_R   0.056440 0.344740 0.951340 -0.505611
O28   O     O_R   0.797900 0.560360 0.957470 -0.485290

loop_
_geom_bond_atom_site_label_1
_geom_bond_atom_site_label_2
_ccdc_geom_bond_type
C28   O19   A    
C47   O23   A    
C27   C29   A    
C19   C20   A    
C18   C26   A    
C16   C51   S    
C42   O25   A    
C32   H15   S    
C12   C49   T    
Cr6   O10   S    
C7    C8    A    
C13   H5    S    
C53   C54   S    
Cr3   O24   S    
C42   O3    A    
Cr1   O24   S    
C34   C51   T    
Cr5   O27   S    
C23   C45   T    
C36   C37   A    
C5    C6    A    
C31   H13   S    
C29   C33   A    
C30   C38   A    
C19   H6    S    
C15   C17   A    
C1    C2    S    
Cr5   O11   S    
C19   C26   A    
C7    H1    S    
Cr2   O13   S    
C10   H3    S    
C4    C12   S    
C44   O9    A    
C9    C10   A    
H9    O20   S    
Cr2   O12   S    
C1    O13   A    
Cr3   O15   S    
C21   C22   A    
C21   H7    S    
C43   O6    A    
C18   C25   A    
Cr2   O19   S    
C41   O2    A    
C44   O8    A    
Cr6   O9    S    
C52   C54   T    
C46   O10   A    
C7    C14   A    
C15   C20   A    
C35   H16   S    
C3    C44   S    
Cr5   O28   S    
C41   O28   A    
C43   O7    A    
C39   O26   A    
C24   C25   A    
Cr1   O17   S    
C3    C8    A    
C1    O4    A    
Cr6   O11   S    
Cr3   O22   S    
C37   H17   S    
C17   C21   A    
C4    O15   A    
C30   C37   A    
Cr2   O24   S    
C35   C36   A    
Cr5   O7    S    
C5    C9    A    
C29   C30   A    
Cr4   O6    S    
C6    C14   A    
Cr1   O1    S    
Cr6   O3    S    
C25   O20   S    
C31   C32   A    
C28   C38   S    
C17   C18   A    
C34   C45   S    
Cr1   O4    S    
C26   C47   S    
C27   C46   S    
C11   H4    S    
Cr3   O16   S    
C22   C24   A    
Cr4   O26   S    
C22   H11   S    
H10   O21   S    
C24   H12   S    
C39   O27   A    
Cr6   O2    S    
C27   C32   A    
C20   H8    S    
Cr1   O18   S    
C3    C5    A    
C2    C53   T    
C40   O22   A    
Cr3   O23   S    
C16   O16   A    
C31   C38   A    
C28   O18   A    
C16   O1    A    
Cr5   O8    S    
C15   C43   S    
Cr4   O5    S    
C6    C13   A    
C11   C13   A    
C23   C39   S    
C48   C50   T    
C33   C35   A    
C41   C48   S    
C36   O21   S    
C9    H18   S    
Cr4   O11   S    
C10   C11   A    
C14   C40   S    
C46   O5    A    
C33   H14   S    
Cr2   O14   S    
C49   C50   S    
C8    H2    S    
C47   O17   A    
Cr4   O25   S    
C40   O12   A    
C42   C52   S    
C4    O14   A    
