data_mof_unit_17872.cif
_audit_creation_date              2012-12-11T14:33:45-0500
_audit_creation_method            fapswitch 2.2
_symmetry_space_group_name_H-M    P1
_symmetry_Int_Tables_number       1
_space_group_crystal_system       triclinic
_cell_length_a                    13.876322
_cell_length_b                    13.990663
_cell_length_c                    27.312972
_cell_angle_alpha                 89.997169
_cell_angle_beta                  89.773237
_cell_angle_gamma                 119.653913
_cell_volume                      4607.99199419

loop_
_atom_site_label
_atom_site_type_symbol
_atom_type_description
_atom_site_fract_x
_atom_site_fract_y
_atom_site_fract_z
_atom_type_partial_charge
C1    C     C_R   0.233888 0.786755 0.568805 0.539717
C2    C     C_1   0.708777 0.865517 0.860133 -0.085906
C3    C     C_3   0.034269 0.563711 0.674701 -0.414563
C4    C     C_3   0.389978 0.411516 0.723558 -0.283792
C5    C     C_3   0.431876 0.460460 0.672670 -0.416685
C6    C     C_1   0.113136 0.876570 0.853118 -0.088297
C7    C     C_1   0.116801 0.231905 0.852434 -0.089529
C8    C     C_1   0.626386 0.818949 0.659068 -0.098380
C9    C     C_1   0.172909 0.810851 0.656740 -0.098437
C10   C     C_1   0.183759 0.360596 0.656498 -0.097350
C11   C     C_1   0.599201 0.796839 0.616920 -0.039013
C12   C     C_1   0.198377 0.803148 0.615474 -0.040922
C13   C     C_1   0.194167 0.394598 0.615340 -0.041277
C14   C     C_R   0.064708 0.150924 0.096165 0.608390
C15   C     C_R   0.212654 0.446910 0.568822 0.541845
C16   C     C_R   0.774483 0.882293 0.087109 0.589924
C17   C     C_R   0.116863 0.892901 0.087495 0.597162
C18   C     C_R   0.069733 0.160644 0.943296 0.534301
C19   C     C_R   0.780111 0.887343 0.950735 0.540051
C20   C     C_R   0.091244 0.929345 0.943333 0.529811
C21   C     C_R   0.614948 0.892323 0.359370 -0.133908
C22   C     C_R   0.098141 0.739157 0.362809 -0.135365
C23   C     C_R   0.266112 0.360021 0.363407 -0.135975
C24   C     C_R   0.635345 0.904504 0.308983 0.019321
C25   C     C_R   0.082452 0.750050 0.312906 0.018722
C26   C     C_R   0.552041 0.765066 0.569152 0.540436
C27   C     C_R   0.242578 0.308896 0.317405 0.016859
C28   C     C_R   0.665382 0.920013 0.206909 0.014243
C29   C     C_R   0.060480 0.764470 0.211368 0.001421
C30   C     C_R   0.199905 0.227986 0.220835 0.002271
C31   C     C_R   0.233387 0.788322 0.431531 0.547726
C32   C     C_R   0.211940 0.444392 0.431587 0.550360
C33   C     C_R   0.554599 0.766525 0.431318 0.548090
C34   C     C_R   0.646935 0.996843 0.232092 -0.118931
C35   C     C_R   0.971621 0.684982 0.239216 -0.113795
C36   C     C_R   0.302986 0.259860 0.242549 -0.117764
C37   C     C_3   0.661569 0.741620 0.789131 -0.232685
C38   C     C_R   0.631569 0.988898 0.282842 -0.133988
C39   C     C_R   0.983114 0.676716 0.289603 -0.126580
C40   C     C_R   0.324643 0.301311 0.290294 -0.126472
C41   C     C_R   0.692156 0.933071 0.157023 -0.146191
C42   C     C_R   0.048954 0.775219 0.161310 -0.179818
C43   C     C_R   0.180999 0.195981 0.171662 -0.181394
C44   C     C_R   0.711265 0.855620 0.133038 0.032767
C45   C     C_R   0.137818 0.856548 0.134282 0.026097
C46   C     C_R   0.081426 0.174144 0.149035 0.023114
C47   C     C_R   0.642709 0.733824 0.360005 -0.129774
C48   C     C_3   0.239814 0.943637 0.782528 -0.233704
C49   C     C_R   0.280022 0.902865 0.358128 -0.124957
C50   C     C_R   0.075995 0.322674 0.370388 -0.129573
C51   C     C_R   0.658801 0.742269 0.309734 0.015803
C52   C     C_R   0.269291 0.909332 0.308269 0.013487
C53   C     C_R   0.052251 0.274184 0.324372 0.013361
C54   C     C_R   0.653353 0.826667 0.283851 0.068732
C55   C     C_R   0.170584 0.832722 0.285214 0.066918
C56   C     C_R   0.136360 0.269973 0.296991 0.066452
C57   C     C_R   0.673812 0.663512 0.284751 -0.138282
C58   C     C_R   0.359397 0.986811 0.280924 -0.136732
C59   C     C_3   0.050814 0.298353 0.783481 -0.235099
C60   C     C_R   0.947175 0.235793 0.304268 -0.137605
C61   C     C_R   0.679731 0.665818 0.234032 -0.132420
C62   C     C_R   0.352980 0.987517 0.230401 -0.124581
C63   C     C_R   0.927470 0.200882 0.255948 -0.125237
C64   C     C_R   0.673528 0.748870 0.207542 0.010641
C65   C     C_R   0.253317 0.915509 0.206650 0.019729
C66   C     C_R   0.012152 0.202364 0.226859 0.018846
C67   C     C_3   0.566237 0.867188 0.738884 -0.086803
C68   C     C_3   0.128928 0.717648 0.740074 -0.087478
C69   C     C_3   0.277877 0.402848 0.739209 -0.086708
C70   C     C_3   0.631411 0.728375 0.734255 -0.245213
C71   C     C_R   0.664076 0.831896 0.232749 0.027236
C72   C     C_R   0.161307 0.837681 0.234361 0.026839
C73   C     C_R   0.115637 0.231911 0.248364 0.029031
C74   C     C_R   0.684343 0.755325 0.156494 0.228108
C75   C     C_R   0.242477 0.921097 0.155968 0.227122
C76   C     C_R   0.996565 0.176844 0.176615 0.222934
C77   C     C_R   0.612541 0.803202 0.384362 -0.004651
C78   C     C_R   0.199166 0.813091 0.384884 -0.002570
C79   C     C_R   0.184106 0.371606 0.388878 -0.004882
C80   C     C_3   0.773517 0.929059 0.722532 0.482676
C81   C     C_3   0.255805 0.921212 0.728735 -0.244311
C82   C     C_3   0.050962 0.845187 0.714748 0.493524
C83   C     C_3   0.140341 0.201836 0.713228 0.497519
C84   C     C_3   0.788283 0.945630 0.779087 -0.068076
C85   C     C_3   0.032373 0.853823 0.770530 -0.055657
C86   C     C_3   0.128005 0.172059 0.768713 -0.059341
C87   C     C_1   0.735652 0.874231 0.902466 -0.020023
C88   C     C_1   0.103572 0.899708 0.894584 -0.017226
C89   C     C_1   0.097130 0.200377 0.894157 -0.022211
C90   C     C_3   0.650076 0.838743 0.711867 0.095571
C91   C     C_3   0.149321 0.820854 0.708381 0.095326
C92   C     C_3   0.074244 0.337752 0.729700 -0.245219
C93   C     C_3   0.171674 0.325706 0.707936 0.095595
C94   C     C_3   0.584906 0.870322 0.795521 -0.232653
C95   C     C_3   0.119289 0.741068 0.795500 -0.230711
C96   C     C_3   0.254447 0.367812 0.794288 -0.228231
C97   C     C_3   0.685869 0.855955 0.807284 -0.006911
C98   C     C_3   0.125725 0.853955 0.801687 -0.016990
C99   C     C_3   0.137284 0.267136 0.800977 -0.016439
C100  C     C_3   0.567357 0.974495 0.722820 -0.282425
C101  C     C_3   0.530661 0.974227 0.670082 -0.414174
C102  C     C_3   0.028362 0.604400 0.725987 -0.281432
Cr1   Cr    Cr6+3 0.164410 0.584450 0.499910 1.013614
Cr2   Cr    Cr6+3 0.415550 0.579960 0.499910 1.012801
Cr3   Cr    Cr6+3 0.420040 0.835590 0.499910 1.009753
Cr4   Cr    Cr6+3 0.155170 0.075460 0.019960 1.040768
Cr5   Cr    Cr6+3 0.924540 0.079710 0.019960 1.040958
Cr6   Cr    Cr6+3 0.920290 0.844830 0.019960 1.044092
H1    H     H_    0.598192 0.948808 0.811913 0.117669
H2    H     H_    0.735727 0.731939 0.794726 0.139594
H3    H     H_    0.246817 0.025835 0.785557 0.136269
H4    H     H_    0.965901 0.226036 0.786602 0.142080
H5    H     H_    0.703092 0.005216 0.137528 0.164194
H6    H     H_    0.969052 0.725304 0.144077 0.146796
H7    H     H_    0.245600 0.192866 0.150449 0.130183
H8    H     H_    0.592790 0.947023 0.378171 0.123154
H9    H     H_    0.034842 0.670639 0.383582 0.119555
H10   H     H_    0.349433 0.396037 0.377929 0.124399
H11   H     H_    0.646285 0.064064 0.212672 0.104491
H12   H     H_    0.040357 0.676222 0.812078 0.120149
H13   H     H_    0.893734 0.628561 0.221936 0.112149
H14   H     H_    0.368171 0.256426 0.222001 0.102756
H15   H     H_    0.617706 0.049176 0.301683 0.091493
H16   H     H_    0.914534 0.613136 0.310288 0.100584
H17   H     H_    0.406279 0.329707 0.305591 0.101070
H18   H     H_    0.693124 0.604361 0.216138 0.116087
H19   H     H_    0.426395 0.045898 0.210626 0.118248
H20   H     H_    0.846094 0.175298 0.241630 0.124211
H21   H     H_    0.678765 0.598737 0.304380 0.098899
H22   H     H_    0.436286 0.044644 0.298532 0.096142
H23   H     H_    0.316642 0.347273 0.809180 0.120307
H24   H     H_    0.881316 0.236974 0.325272 0.104065
H25   H     H_    0.643026 0.666155 0.379252 0.128685
H26   H     H_    0.357716 0.962057 0.374820 0.133469
H27   H     H_    0.011485 0.328645 0.390372 0.130272
H28   H     H_    0.801245 0.028178 0.789366 0.111225
H29   H     H_    0.950877 0.784054 0.782349 0.119819
H30   H     H_    0.192726 0.152144 0.780094 0.110014
H31   H     H_    0.863872 0.943724 0.790935 0.112350
H32   H     H_    0.028432 0.929563 0.778078 0.131836
H33   H     H_    0.046416 0.097843 0.775716 0.138484
H34   H     H_    0.480664 0.798576 0.731766 0.118163
H35   H     H_    0.542908 0.664302 0.730177 0.102725
H36   H     H_    0.325758 0.904238 0.726341 0.101878
H37   H     H_    0.095734 0.425399 0.728151 0.102095
H38   H     H_    0.681319 0.697968 0.714516 0.167802
H39   H     H_    0.279668 0.996428 0.706476 0.179095
H40   H     H_    0.997397 0.290557 0.707784 0.172234
H41   H     H_    0.591959 0.675505 0.810469 0.120136
H42   H     H_    0.307354 0.945541 0.805132 0.122159
H43   H     H_    0.053470 0.364676 0.806943 0.123482
H44   H     H_    0.621377 0.598964 0.144517 0.315191
H45   H     H_    0.203869 0.708310 0.736198 0.118494
H46   H     H_    0.362621 0.066844 0.141849 0.308447
H47   H     H_    0.879459 0.210864 0.164663 0.312765
H48   H     H_    0.599570 0.993160 0.644187 0.173042
H49   H     H_    0.457364 0.893823 0.660803 0.158833
H50   H     H_    0.507587 0.039255 0.665648 0.136967
H51   H     H_    0.508600 0.985055 0.746887 0.118210
H52   H     H_    0.648910 0.048472 0.729280 0.201310
H53   H     H_    0.009559 0.604758 0.646718 0.174436
H54   H     H_    0.118862 0.577755 0.666684 0.154616
H55   H     H_    0.975003 0.474081 0.672232 0.134845
H56   H     H_    0.290841 0.487973 0.736671 0.118632
H57   H     H_    0.025434 0.542385 0.752307 0.118957
H58   H     H_    0.948647 0.603584 0.730816 0.201233
H59   H     H_    0.390346 0.396922 0.644075 0.171911
H60   H     H_    0.418476 0.531268 0.665782 0.155373
H61   H     H_    0.522182 0.489999 0.669922 0.137402
H62   H     H_    0.454004 0.466920 0.750054 0.121270
H63   H     H_    0.387497 0.331382 0.726741 0.200255
H64   H     H_    0.842285 0.888483 0.669525 0.334702
H65   H     H_    0.082419 0.939726 0.656824 0.318884
H66   H     H_    0.046675 0.145223 0.654705 0.315448
H67   H     H_    0.509343 0.803347 0.813409 0.114332
H68   H     H_    0.797492 0.021526 0.664639 0.321408
H69   H     H_    0.961323 0.759902 0.658733 0.312308
H70   H     H_    0.226264 0.195302 0.657282 0.314460
H71   H     H_    0.187565 0.740017 0.816334 0.118346
H72   H     H_    0.261729 0.437910 0.816417 0.118468
O1    O     O_R   0.137150 0.468200 0.553200 -0.511853
O2    O     O_R   0.140110 0.470540 0.446010 -0.519939
O3    O     O_R   0.529460 0.669570 0.446010 -0.521562
O4    O     O_R   0.330430 0.859890 0.446010 -0.525188
O5    O     O_R   0.176710 0.690910 0.450560 -0.499304
O6    O     O_R   0.309090 0.485800 0.450560 -0.501767
O7    O     O_R   0.514200 0.823290 0.450560 -0.502509
O8    O     O_3   0.333333 0.666667 0.499990 -0.262765
O9    O     O_R   0.176750 0.985260 0.074180 -0.475300
O10   O     O_R   0.014740 0.191490 0.074180 -0.434489
O11   O     O_R   0.808510 0.823250 0.074180 -0.443854
O12   O     O_R   0.531800 0.668950 0.553200 -0.510711
O13   O     O_R   0.146100 0.172630 0.068980 -0.498883
O14   O     O_R   0.827370 0.973470 0.068980 -0.506255
O15   O     O_R   0.026530 0.853900 0.068980 -0.505871
O16   O     O_3   1.000000 0.000000 0.020040 -0.308121
O17   O     O_R   0.148270 0.170520 0.969620 -0.490689
O18   O     O_R   0.829480 0.977750 0.969620 -0.525940
O19   O     O_R   0.022250 0.851730 0.969620 -0.482893
O20   O     O_3   0.677281 0.668880 0.129151 -0.686165
O21   O     O_3   0.331026 0.992681 0.127123 -0.679601
O22   O     O_3   0.900377 0.156445 0.153170 -0.710646
O23   O     O_R   0.331050 0.862850 0.553200 -0.510367
O24   O     O_3   0.847645 0.894647 0.705707 -0.625545
O25   O     O_3   0.077134 0.946495 0.692761 -0.619776
O26   O     O_3   0.037719 0.132425 0.690562 -0.621944
O27   O     O_3   0.801036 0.030788 0.700702 -0.699140
O28   O     O_3   0.951579 0.760952 0.694684 -0.706251
O29   O     O_3   0.222560 0.182037 0.693085 -0.707167
O30   O     O_R   0.179100 0.982980 0.967000 -0.495374
O31   O     O_R   0.017020 0.196120 0.967000 -0.483908
O32   O     O_R   0.803880 0.820900 0.967000 -0.510117
O33   O     O_R   0.173970 0.688730 0.549930 -0.504675
O34   O     O_R   0.311270 0.485240 0.549930 -0.504157
O35   O     O_R   0.514760 0.826030 0.549930 -0.503044

loop_
_geom_bond_atom_site_label_1
_geom_bond_atom_site_label_2
_ccdc_geom_bond_type
C58   C62   A    
C22   H9    S    
C49   H26   S    
Cr3   O35   S    
C4    H63   S    
C48   H42   S    
C31   O4    A    
C92   H40   S    
Cr1   O2    S    
C59   C99   S    
C36   H14   S    
Cr1   O5    S    
C69   H56   S    
C80   C84   S    
C69   C96   S    
C33   C77   S    
C50   C79   A    
C9    C91   S    
C23   H10   S    
C82   O28   S    
C75   O21   S    
C95   C98   S    
C14   C46   S    
C49   C78   A    
C70   H35   S    
C3    H53   S    
C4    H62   S    
C60   C63   A    
C84   C97   S    
C6    C98   S    
H68   O27   S    
C57   H21   S    
C17   C45   S    
C83   O26   S    
C69   C93   S    
C50   H27   S    
C21   H8    S    
C62   H19   S    
C29   C42   A    
C76   O22   S    
C64   C71   A    
Cr5   O31   S    
C24   C54   A    
Cr4   O30   S    
C96   C99   S    
C15   O1    A    
C28   C41   A    
C68   C91   S    
C6    C88   T    
C48   C81   S    
H44   O20   S    
C11   C26   S    
C5    H60   S    
H64   O24   S    
Cr5   O16   S    
C85   C98   S    
C3    H54   S    
C43   H7    S    
C42   H6    S    
C81   H36   S    
C54   C71   A    
C84   H31   S    
C81   H39   S    
C22   C25   A    
C33   O3    A    
C67   C94   S    
C24   C38   A    
C52   C58   A    
Cr6   O11   S    
C61   H18   S    
C70   H38   S    
C20   O30   A    
Cr6   O16   S    
H47   O22   S    
C16   C44   S    
C55   C72   A    
C52   C55   A    
C3    H55   S    
C94   H67   S    
C29   C72   A    
C63   C66   A    
C28   C34   A    
C32   O6    A    
C102  H58   S    
C34   C38   A    
C37   C70   S    
C47   H25   S    
C60   H24   S    
C70   C90   S    
C1    C12   S    
C15   O34   A    
C46   C76   A    
C4    C69   S    
Cr6   O32   S    
C53   C60   A    
H65   O25   S    
Cr4   O13   S    
Cr2   O8    S    
C68   C95   S    
C19   O32   A    
C50   C53   A    
C25   C55   A    
C36   C40   A    
C16   O14   A    
C2    C97   S    
C68   H45   S    
Cr4   O17   S    
C30   C73   A    
C26   O12   A    
C27   C56   A    
Cr4   O16   S    
C94   C97   S    
C17   O9    A    
C66   C73   A    
C67   C90   S    
C82   C91   S    
H70   O29   S    
C82   C85   S    
C26   O35   A    
C42   C45   A    
C81   C91   S    
C61   C64   A    
C35   C39   A    
C20   O19   A    
C16   O11   A    
C100  H52   S    
C35   H13   S    
C27   C40   A    
C49   C52   A    
C10   C93   S    
C31   O5    A    
C18   O17   A    
C59   H4    S    
C21   C24   A    
C2    C87   T    
C33   O7    A    
C96   H72   S    
Cr6   O15   S    
C44   C74   A    
C86   C99   S    
C85   H32   S    
C22   C78   A    
C37   H2    S    
C83   O29   S    
C7    C99   S    
C67   C100  S    
C96   H23   S    
C51   C57   A    
C3    C102  S    
C95   H71   S    
C14   O13   A    
C74   O20   S    
C101  H50   S    
C102  H57   S    
C23   C27   A    
C13   C15   S    
C1    O33   A    
C41   C44   A    
C30   C43   A    
C17   O15   A    
C28   C71   A    
C8    C90   S    
C47   C77   A    
C1    O23   A    
C85   H29   S    
H46   O21   S    
C48   C98   S    
Cr3   O8    S    
C31   C78   S    
Cr2   O12   S    
Cr2   O3    S    
C53   C56   A    
C32   O2    A    
C34   H11   S    
C7    C89   T    
Cr1   O33   S    
C84   H28   S    
C19   O18   A    
C5    H61   S    
C56   C73   A    
C62   C65   A    
C92   H37   S    
Cr1   O1    S    
C18   C89   S    
Cr1   O8    S    
C63   H20   S    
C41   H5    S    
C4    C5    S    
C10   C13   T    
C65   C75   A    
Cr5   O18   S    
C47   C51   A    
C37   C97   S    
C57   C61   A    
C59   H43   S    
C95   H12   S    
C37   H41   S    
C65   C72   A    
Cr2   O6    S    
C48   H3    S    
C29   C35   A    
C94   H1    S    
C19   C87   S    
C101  H48   S    
H69   O28   S    
C30   C36   A    
C45   C75   A    
C51   C54   A    
C83   C86   S    
Cr6   O19   S    
C18   O31   A    
Cr2   O34   S    
C39   H16   S    
C25   C39   A    
C32   C79   S    
C100  H51   S    
Cr3   O7    S    
C80   O24   S    
C58   H22   S    
C8    C11   T    
C40   H17   S    
C20   C88   S    
Cr5   O10   S    
C92   C93   S    
C59   C92   S    
C5    H59   S    
Cr3   O4    S    
C80   C90   S    
C43   C46   A    
Cr3   O23   S    
C9    C12   T    
C86   H30   S    
C101  H49   S    
C14   O10   A    
C80   O27   S    
C38   H15   S    
C21   C77   A    
H66   O26   S    
C64   C74   A    
C100  C101  S    
Cr4   O9    S    
C23   C79   A    
C67   H34   S    
C68   C102  S    
C82   O25   S    
C66   C76   A    
Cr5   O14   S    
C86   H33   S    
C83   C93   S    
