data_mof_unit_27036.cif
_audit_creation_date              2012-12-11T16:51:21-0500
_audit_creation_method            fapswitch 2.2
_symmetry_space_group_name_H-M    P1
_symmetry_Int_Tables_number       1
_space_group_crystal_system       triclinic
_cell_length_a                    24.544439
_cell_length_b                    17.299067
_cell_length_c                    15.571789
_cell_angle_alpha                 89.723111
_cell_angle_beta                  128.752698
_cell_angle_gamma                 90.318636
_cell_volume                      5156.09367085

loop_
_atom_site_label
_atom_site_type_symbol
_atom_type_description
_atom_site_fract_x
_atom_site_fract_y
_atom_site_fract_z
_atom_type_partial_charge
C1    C     C_R   0.839811 0.874528 0.216163 -0.136510
C2    C     C_R   0.183763 0.117902 0.501213 0.047940
C3    C     C_3   0.835626 0.289126 0.405770 -0.902849
C4    C     C_3   0.872426 0.621016 0.810136 -0.363562
C5    C     C_3   0.902534 0.554518 0.786010 -0.252001
C6    C     C_3   0.944574 0.498743 0.883254 -0.948713
C7    C     C_3   0.120874 0.575820 0.229419 -0.433200
C8    C     C_3   0.110963 0.518232 0.294574 -0.207072
C9    C     C_3   0.077828 0.443023 0.230847 -0.936027
C10   C     C_3   0.374586 0.113328 0.806430 -0.358857
C11   C     C_3   0.401649 0.047007 0.776574 -0.247484
C12   C     C_3   0.432116 0.981903 0.861385 -0.954634
C13   C     C_R   0.317847 0.619155 0.501026 0.063028
C14   C     C_3   0.683538 0.221169 0.202224 -0.389298
C15   C     C_3   0.631564 0.152596 0.160101 -0.252275
C16   C     C_3   0.627336 0.104821 0.073922 -0.962632
C17   C     C_3   0.986497 0.777146 0.899445 -0.988876
C18   C     C_3   0.978001 0.692792 0.120042 -0.977864
C19   C     C_3   0.492584 0.266938 0.898477 -0.953469
C20   C     C_3   0.559273 0.369275 0.139804 -0.987018
C21   C     C_R   0.684119 0.617173 0.501653 0.044701
C22   C     C_R   0.857297 0.135372 0.144727 0.155966
C23   C     C_R   0.143086 0.135388 0.854748 0.146438
C24   C     C_R   0.356919 0.635506 0.144941 0.146621
C25   C     C_R   0.643077 0.635602 0.854699 0.145204
C26   C     C_R   0.852108 0.709711 0.606736 -0.032228
C27   C     C_R   0.148985 0.703000 0.406645 -0.030953
C28   C     C_R   0.352654 0.207356 0.604543 -0.026228
C29   C     C_R   0.160008 0.874630 0.784335 -0.135765
C30   C     C_R   0.662239 0.241666 0.389525 -0.048380
C31   C     C_R   0.831178 0.741973 0.507365 0.067524
C32   C     C_R   0.171538 0.742036 0.502192 0.059241
C33   C     C_R   0.331109 0.241312 0.505722 0.065324
C34   C     C_R   0.668753 0.249585 0.485224 0.073545
C35   C     C_R   0.777679 0.704150 0.409003 -0.177481
C36   C     C_R   0.231932 0.713173 0.602569 -0.177463
C37   C     C_R   0.276292 0.205112 0.406786 -0.175397
C38   C     C_R   0.715566 0.202337 0.576522 -0.181163
C39   C     C_R   0.231927 0.153977 0.406377 -0.169991
C40   C     C_R   0.339205 0.375649 0.214888 -0.132507
C41   C     C_R   0.764377 0.159415 0.579056 -0.194339
C42   C     C_R   0.733609 0.652454 0.408554 -0.173329
C43   C     C_R   0.276761 0.663778 0.602617 -0.183256
C44   C     C_R   0.242672 0.139181 0.504895 0.040735
C45   C     C_R   0.767177 0.166436 0.491967 0.055826
C46   C     C_R   0.743371 0.638835 0.506457 0.041749
C47   C     C_R   0.261588 0.642546 0.502372 0.017589
C48   C     C_R   0.308474 0.157884 0.604410 -0.032520
C49   C     C_R   0.713991 0.205698 0.396066 0.043816
C50   C     C_R   0.808243 0.659480 0.606450 -0.029173
C51   C     C_R   0.659833 0.374054 0.783217 -0.133961
C52   C     C_R   0.193805 0.657012 0.406112 0.063149
C53   C     C_3   0.833758 0.685710 0.719236 0.249889
C54   C     C_3   0.148717 0.657767 0.281980 0.219731
C55   C     C_3   0.337047 0.180934 0.719869 0.251220
C56   C     C_3   0.708435 0.259104 0.312699 0.228642
C57   C     C_R   0.090323 0.857794 0.408560 -0.138373
C58   C     C_R   0.909099 0.859610 0.593299 -0.152291
C59   C     C_R   0.585557 0.356673 0.407342 -0.146579
C60   C     C_R   0.409355 0.359082 0.593015 -0.152237
C61   C     C_3   0.880127 0.743692 0.716299 -0.097462
C62   C     C_R   0.888172 0.111639 0.591670 -0.143164
C63   C     C_3   0.098938 0.711511 0.283623 -0.089663
C64   C     C_3   0.383682 0.238387 0.716749 -0.099347
C65   C     C_3   0.651504 0.300486 0.308217 -0.114688
C66   C     C_2   0.161056 0.771289 0.898597 -0.218051
C67   C     C_2   0.837145 0.773053 0.100080 -0.216892
C68   C     C_2   0.661707 0.271025 0.898414 -0.221617
C69   C     C_2   0.337281 0.273794 0.099495 -0.224024
C70   C     C_2   0.201633 0.724279 0.892669 -0.114964
C71   C     C_2   0.798203 0.724054 0.107903 -0.111712
C72   C     C_2   0.701953 0.223835 0.891896 -0.111233
C73   C     C_R   0.115090 0.104001 0.408808 -0.122420
C74   C     C_2   0.297232 0.225809 0.106144 -0.110329
C75   C     C_2   0.812247 0.167294 0.033808 -0.217842
C76   C     C_2   0.188008 0.167217 0.965377 -0.215744
C77   C     C_2   0.311650 0.667236 0.033982 -0.216492
C78   C     C_2   0.688144 0.667230 0.965561 -0.215245
C79   C     C_2   0.743091 0.166517 0.976514 -0.119696
C80   C     C_2   0.257069 0.167959 0.022302 -0.113508
C81   C     C_2   0.242552 0.666966 0.977343 -0.113542
C82   C     C_2   0.757254 0.667072 0.022872 -0.116401
C83   C     C_R   0.166016 0.860008 0.591588 -0.122268
C84   C     C_R   0.386177 0.604040 0.592368 -0.126648
C85   C     C_R   0.833651 0.859528 0.410247 -0.120983
C86   C     C_R   0.664794 0.358440 0.589692 -0.128986
C87   C     C_R   0.333778 0.359470 0.409958 -0.122059
C88   C     C_R   0.069703 0.874784 0.785914 -0.164962
C89   C     C_R   0.930107 0.875232 0.213952 -0.151470
C90   C     C_R   0.569896 0.374582 0.785969 -0.167384
C91   C     C_R   0.428680 0.377213 0.211195 -0.172606
C92   C     C_R   0.866971 0.840162 0.170794 0.157462
C93   C     C_R   0.132448 0.839546 0.829188 0.160184
C94   C     C_R   0.365760 0.342045 0.168170 0.163376
C95   C     C_R   0.615401 0.603606 0.409047 -0.124484
C96   C     C_R   0.632545 0.339050 0.828529 0.159126
C97   C     C_R   0.142475 0.815922 0.500226 0.065517
C98   C     C_R   0.856920 0.817066 0.503546 0.058829
C99   C     C_R   0.638576 0.315819 0.495892 0.061373
C100  C     C_R   0.357161 0.316590 0.502955 0.061374
C101  C     C_R   0.813980 0.106952 0.407866 -0.147424
C102  C     C_R   0.188278 0.099588 0.591147 -0.116283
C103  C     C_R   0.312204 0.601988 0.409399 -0.105381
C104  C     C_R   0.688438 0.598855 0.591291 -0.112594
C105  C     C_R   0.926161 0.112731 0.203071 -0.145760
C106  C     C_R   0.822043 0.131667 0.498385 0.071559
C107  C     C_R   0.074186 0.112444 0.796921 -0.147570
C108  C     C_R   0.425770 0.612609 0.202758 -0.145469
C109  C     C_R   0.574169 0.612566 0.796869 -0.146880
C110  C     C_R   0.164289 0.113866 0.794256 -0.114495
C111  C     C_R   0.835987 0.113343 0.205083 -0.141065
C112  C     C_R   0.664265 0.613987 0.794196 -0.112680
C113  C     C_R   0.335844 0.613888 0.205801 -0.115854
C114  C     C_3   0.801033 0.762034 0.815432 -0.984471
C115  C     C_3   0.219205 0.768395 0.286827 -0.945195
C116  C     C_3   0.310668 0.255996 0.825266 -0.990361
H1    H     H_    0.787311 0.868388 0.188674 0.088600
H2    H     H_    0.095758 0.770947 0.254011 0.134331
H3    H     H_    0.583922 0.062557 0.036483 0.262933
H4    H     H_    0.646645 0.113234 0.228208 0.190597
H5    H     H_    0.578283 0.173843 0.121381 0.214897
H6    H     H_    0.659572 0.266424 0.137380 0.183477
H7    H     H_    0.729793 0.201755 0.211747 0.181456
H8    H     H_    0.983379 0.730309 0.773459 0.183851
H9    H     H_    0.041936 0.760060 0.962510 0.250145
H10   H     H_    0.958833 0.768955 0.933917 0.269697
H11   H     H_    0.983755 0.839483 0.880302 0.241425
H12   H     H_    0.013633 0.690599 0.280442 0.191690
H13   H     H_    0.369445 0.299984 0.713439 0.126845
H14   H     H_    0.931181 0.656880 0.087913 0.255405
H15   H     H_    0.997412 0.678119 0.074454 0.256871
H16   H     H_    0.963352 0.754725 0.105481 0.241457
H17   H     H_    0.484804 0.225129 0.766366 0.183478
H18   H     H_    0.549501 0.256266 0.952582 0.258790
H19   H     H_    0.472802 0.249710 0.943101 0.265813
H20   H     H_    0.483494 0.329825 0.880804 0.235926
H21   H     H_    0.544347 0.267875 0.197293 0.168933
H22   H     H_    0.557925 0.415949 0.187215 0.245337
H23   H     H_    0.505789 0.362058 0.060868 0.256653
H24   H     H_    0.666391 0.359712 0.344613 0.142694
H25   H     H_    0.594997 0.386373 0.122013 0.263809
H26   H     H_    0.718466 0.135340 0.004614 0.139175
H27   H     H_    0.281954 0.138307 0.993887 0.126970
H28   H     H_    0.217983 0.636482 0.006146 0.127497
H29   H     H_    0.781942 0.637241 0.994241 0.126542
H30   H     H_    0.212942 0.735429 0.836463 0.128812
H31   H     H_    0.788490 0.733033 0.166341 0.127305
H32   H     H_    0.712622 0.234597 0.834838 0.126863
H33   H     H_    0.212710 0.869120 0.812732 0.084904
H34   H     H_    0.285660 0.236458 0.161986 0.127267
H35   H     H_    0.835998 0.199339 0.004493 0.131162
H36   H     H_    0.164065 0.198020 0.994836 0.129675
H37   H     H_    0.335271 0.698671 0.003997 0.130278
H38   H     H_    0.664402 0.698238 0.995199 0.130890
H39   H     H_    0.149879 0.759867 0.954926 0.135477
H40   H     H_    0.845742 0.764435 0.040595 0.145964
H41   H     H_    0.651604 0.260210 0.956084 0.130225
H42   H     H_    0.349001 0.262693 0.044121 0.140673
H43   H     H_    0.062716 0.842754 0.324514 0.096328
H44   H     H_    0.286782 0.369708 0.187776 0.083851
H45   H     H_    0.936858 0.846561 0.677828 0.109777
H46   H     H_    0.555022 0.339877 0.323910 0.122252
H47   H     H_    0.437414 0.345473 0.677513 0.108156
H48   H     H_    0.209789 0.848242 0.675693 0.082963
H49   H     H_    0.790211 0.845697 0.326537 0.083765
H50   H     H_    0.710287 0.345185 0.672447 0.089279
H51   H     H_    0.290405 0.345876 0.326133 0.082586
H52   H     H_    0.041001 0.868723 0.816290 0.105997
H53   H     H_    0.959331 0.869137 0.184081 0.089877
H54   H     H_    0.541353 0.368536 0.816773 0.106419
H55   H     H_    0.712082 0.367847 0.809855 0.085950
H56   H     H_    0.456786 0.372134 0.179247 0.108224
H57   H     H_    0.766294 0.099957 0.325411 0.117538
H58   H     H_    0.234415 0.087731 0.672653 0.109341
H59   H     H_    0.265647 0.594868 0.326352 0.111390
H60   H     H_    0.734596 0.586463 0.672662 0.106982
H61   H     H_    0.956221 0.113033 0.173901 0.093234
H62   H     H_    0.044337 0.112435 0.826454 0.093639
H63   H     H_    0.455526 0.612754 0.173052 0.094746
H64   H     H_    0.544312 0.612569 0.826392 0.093972
H65   H     H_    0.216064 0.116015 0.817801 0.098135
H66   H     H_    0.185115 0.134869 0.327655 0.115369
H67   H     H_    0.784260 0.114194 0.180527 0.088575
H68   H     H_    0.716045 0.616151 0.817756 0.097010
H69   H     H_    0.284169 0.615990 0.182574 0.088451
H70   H     H_    0.908753 0.114326 0.676561 0.091720
H71   H     H_    0.094754 0.101798 0.324074 0.086412
H72   H     H_    0.407252 0.600963 0.677418 0.086313
H73   H     H_    0.595214 0.601535 0.324370 0.086962
H74   H     H_    0.764083 0.721012 0.330761 0.111873
H75   H     H_    0.249199 0.734337 0.681215 0.112294
H76   H     H_    0.261963 0.222885 0.328376 0.111564
H77   H     H_    0.802664 0.125826 0.651852 0.122637
H78   H     H_    0.718754 0.204230 0.649083 0.119404
H79   H     H_    0.747169 0.760222 0.646644 0.175063
H80   H     H_    0.837253 0.810902 0.838030 0.257854
H81   H     H_    0.826382 0.719563 0.883695 0.249689
H82   H     H_    0.754238 0.784670 0.802801 0.264915
H83   H     H_    0.146568 0.698746 0.152577 0.160838
H84   H     H_    0.184062 0.818363 0.262406 0.242622
H85   H     H_    0.249370 0.779358 0.256832 0.256290
H86   H     H_    0.257069 0.764242 0.377793 0.268066
H87   H     H_    0.253180 0.258244 0.655488 0.174563
H88   H     H_    0.687565 0.631922 0.329974 0.115707
H89   H     H_    0.349014 0.302721 0.849324 0.258910
H90   H     H_    0.334929 0.211553 0.891021 0.244505
H91   H     H_    0.265887 0.281050 0.816587 0.264830
H92   H     H_    0.750739 0.361498 0.304921 0.166551
H93   H     H_    0.867242 0.339363 0.414816 0.241871
H94   H     H_    0.835890 0.245840 0.353885 0.252327
H95   H     H_    0.861461 0.267195 0.489944 0.265184
H96   H     H_    0.989878 0.529098 0.957036 0.262493
H97   H     H_    0.911242 0.474153 0.902187 0.260490
H98   H     H_    0.964384 0.450658 0.862698 0.256102
H99   H     H_    0.326125 0.650022 0.681216 0.119221
H100  H     H_    0.859141 0.521838 0.712618 0.196750
H101  H     H_    0.937140 0.577734 0.768858 0.212283
H102  H     H_    0.915151 0.647253 0.889868 0.215034
H103  H     H_    0.837287 0.595639 0.824687 0.160787
H104  H     H_    0.025237 0.454345 0.151532 0.268541
H105  H     H_    0.111256 0.415742 0.214210 0.258513
H106  H     H_    0.072193 0.402234 0.280157 0.252416
H107  H     H_    0.162542 0.504447 0.374437 0.188928
H108  H     H_    0.077199 0.543104 0.311903 0.212202
H109  H     H_    0.071259 0.581662 0.144738 0.201977
H110  H     H_    0.864244 0.805106 0.709047 0.130639
H111  H     H_    0.157638 0.549100 0.219543 0.163152
H112  H     H_    0.473541 0.004345 0.945342 0.262583
H113  H     H_    0.390420 0.954701 0.859900 0.258105
H114  H     H_    0.454987 0.937122 0.841645 0.257513
H115  H     H_    0.358220 0.022234 0.695208 0.199323
H116  H     H_    0.442561 0.068985 0.772443 0.214314
H117  H     H_    0.418807 0.136351 0.887984 0.203309
H118  H     H_    0.339052 0.088165 0.820269 0.163714
H119  H     H_    0.617655 0.142270 0.007652 0.267888
H120  H     H_    0.676259 0.071899 0.112779 0.249176
N1    N     N_R   0.888400 0.921830 0.294620 -0.041474
N2    N     N_R   0.874350 0.922400 0.443380 -0.038322
N3    N     N_R   0.625650 0.422400 0.556620 -0.039740
N4    N     N_R   0.374350 0.422400 0.443380 -0.040270
N5    N     N_R   0.054230 0.922730 0.705400 -0.038580
N6    N     N_R   0.945770 0.922730 0.294600 -0.039546
N7    N     N_R   0.554230 0.422730 0.705400 -0.037892
N8    N     N_R   0.445770 0.422730 0.294600 -0.037315
N9    N     N_R   0.873790 0.077030 0.443380 -0.039835
N10   N     N_R   0.126210 0.077030 0.556620 -0.043365
N11   N     N_R   0.373790 0.577030 0.443380 -0.045823
N12   N     N_R   0.111600 0.921830 0.705380 -0.041658
N13   N     N_R   0.626210 0.577030 0.556620 -0.043005
N14   N     N_R   0.945200 0.076700 0.294600 -0.040827
N15   N     N_R   0.054800 0.076700 0.705400 -0.041117
N16   N     N_R   0.445200 0.576700 0.294600 -0.041274
N17   N     N_R   0.554800 0.576700 0.705400 -0.041396
N18   N     N_R   0.111030 0.077600 0.705380 -0.045808
N19   N     N_R   0.888970 0.077600 0.294620 -0.043286
N20   N     N_R   0.611030 0.577600 0.705380 -0.045774
N21   N     N_R   0.388970 0.577600 0.294620 -0.045467
N22   N     N_R   0.919490 0.077280 0.556590 -0.036221
N23   N     N_R   0.388400 0.421830 0.294620 -0.040956
N24   N     N_R   0.080510 0.077280 0.443410 -0.040760
N25   N     N_R   0.419490 0.577280 0.556590 -0.040739
N26   N     N_R   0.580510 0.577280 0.443410 -0.040222
N27   N     N_2   0.779814 0.725638 0.715118 -0.112878
N28   N     N_2   0.179197 0.697447 0.237480 -0.127208
N29   N     N_2   0.285807 0.221824 0.721681 -0.113728
N30   N     N_2   0.765551 0.314540 0.356365 -0.118402
N31   N     N_2   0.954659 0.730965 0.801164 -0.092416
N32   N     N_2   0.031019 0.678392 0.236427 -0.089984
N33   N     N_2   0.458103 0.223292 0.797556 -0.093309
N34   N     N_R   0.611600 0.421830 0.705380 -0.041117
N35   N     N_2   0.582424 0.297519 0.201173 -0.096354
N36   N     N_R   0.079940 0.922160 0.443410 -0.039468
N37   N     N_R   0.920060 0.922160 0.556590 -0.037706
N38   N     N_R   0.579940 0.422160 0.443410 -0.040502
N39   N     N_R   0.420060 0.422160 0.556590 -0.037977
N40   N     N_R   0.125650 0.922400 0.556620 -0.040851
Ni1   Ni    Ni4+2 0.882160 0.999430 0.370180 0.207713
Ni2   Ni    Ni4+2 0.117840 0.999430 0.629820 0.207014
Ni3   Ni    Ni4+2 0.382160 0.499430 0.370180 0.206229
Ni4   Ni    Ni4+2 0.617840 0.499430 0.629820 0.207756
Ni5   Ni    Ni4+2 0.012460 0.999430 0.370180 0.210005
Ni6   Ni    Ni4+2 0.987540 0.999430 0.629820 0.210046
Ni7   Ni    Ni4+2 0.512460 0.499430 0.370180 0.208271
Ni8   Ni    Ni4+2 0.487540 0.499430 0.629820 0.209165

loop_
_geom_bond_atom_site_label_1
_geom_bond_atom_site_label_2
_ccdc_geom_bond_type
C3    H93   S    
C48   C55   S    
C14   C56   S    
C83   H48   S    
C115  H86   S    
C11   H116  S    
C14   H6    S    
C60   N39   A    
C51   N34   A    
C4    C53   S    
C36   H75   S    
C59   C99   A    
C18   H16   S    
C58   C98   A    
N5    Ni6   S    
N2    Ni1   S    
C43   H99   S    
N24   Ni5   S    
H21   N35   S    
C73   N24   A    
C7    C8    S    
C19   N33   S    
C66   C70   D    
C15   H4    S    
C19   H18   S    
C13   C84   A    
C68   C96   S    
C114  H80   S    
N1    N6    A    
C108  N16   A    
N37   Ni6   S    
C32   C36   A    
C20   H23   S    
C57   N36   A    
C26   C61   S    
C105  N14   A    
C87   C100  A    
C72   C79   S    
C26   C50   A    
C5    C6    S    
C17   H10   S    
C112  N20   A    
C79   H26   S    
C6    H96   S    
C54   C63   S    
C76   H36   S    
C19   H19   S    
C15   C16   S    
N5    N12   A    
C59   N38   A    
C101  C106  A    
C60   H47   S    
C42   H88   S    
C32   C97   S    
C85   N2    A    
C42   C46   A    
C31   C98   S    
C20   H22   S    
N10   Ni2   S    
C35   C42   A    
C61   N31   S    
C41   H77   S    
C85   C98   A    
C25   C112  A    
C77   H37   S    
C21   C104  A    
C53   C61   S    
C9    H106  S    
C81   H28   S    
C5    H101  S    
C110  H65   S    
C75   H35   S    
C8    C9    S    
C88   H52   S    
C114  H81   S    
C102  N10   A    
C27   C52   A    
C14   H7    S    
C45   C49   A    
N13   N26   A    
C13   C103  A    
N2    N37   A    
C56   N30   S    
C63   N32   S    
C62   N22   A    
N6    Ni5   S    
N12   Ni2   S    
C116  H89   S    
C8    H108  S    
N17   Ni8   S    
C25   C109  A    
C51   C96   A    
C62   H70   S    
C71   C82   S    
C80   H27   S    
C3    H94   S    
C57   H43   S    
C58   N37   A    
C101  N9    A    
C26   C31   A    
C3    N30   S    
C74   C80   S    
C90   N7    A    
N19   Ni1   S    
C111  N19   A    
C65   H24   S    
C18   H15   S    
N8    N23   A    
C113  N21   A    
C22   C75   S    
C84   H72   S    
C2    C102  A    
C23   C107  A    
C111  H67   S    
C55   N29   S    
C73   H71   S    
C40   N23   A    
C52   C54   S    
N16   N21   A    
C86   N3    A    
C95   N26   A    
C55   C64   S    
C3    H95   S    
C37   C39   A    
C87   H51   S    
C35   H74   S    
C10   H118  S    
C50   C53   S    
N21   Ni3   S    
C101  H57   S    
C30   C34   A    
C74   H34   S    
C25   C78   S    
C116  H91   S    
C12   H113  S    
N10   N24   A    
C38   C41   A    
C112  H68   S    
C116  N29   S    
H87   N29   S    
C16   H3    S    
C2    C44   S    
H83   N28   S    
C13   C47   S    
C63   H2    S    
C17   H11   S    
N15   N18   A    
C21   C95   A    
C16   H119  S    
C1    N1    A    
C19   H20   S    
C72   H32   S    
C5    H100  S    
C103  N11   A    
C38   H78   S    
C108  H63   S    
C113  H69   S    
C67   H40   S    
C10   H117  S    
N15   Ni6   S    
N1    Ni1   S    
C114  N27   S    
C89   N6    A    
N39   Ni8   S    
N7    Ni8   S    
N25   Ni8   S    
C78   C82   D    
H17   N33   S    
N26   Ni7   S    
C6    H98   S    
C77   C81   D    
C68   C72   D    
C4    H103  S    
C57   C97   A    
N3    Ni4   S    
C90   H54   S    
C103  H59   S    
C34   C99   S    
H12   N32   S    
N4    Ni3   S    
C69   C74   D    
N22   Ni6   S    
C1    H1    S    
C91   N8    A    
C89   C92   A    
C90   C96   A    
C86   C99   A    
C104  H60   S    
C20   N35   S    
C71   H31   S    
N11   N25   A    
C2    C73   A    
C27   C63   S    
C66   C93   S    
C70   H30   S    
C28   C64   S    
C9    H104  S    
C30   C49   A    
N40   Ni2   S    
C28   C33   A    
C69   C94   S    
C1    C92   A    
C4    H102  S    
C10   C11   S    
C107  H62   S    
C83   C97   A    
C30   C65   S    
C29   N12   A    
C31   C35   A    
C84   N25   A    
C18   H14   S    
C75   C79   D    
C39   C44   A    
C83   N40   A    
C49   C56   S    
C116  H90   S    
C44   C48   A    
C40   C94   A    
C88   N5    A    
C82   H29   S    
C67   C92   S    
C45   C106  S    
C21   C46   S    
C70   C81   S    
N14   N19   A    
C68   H41   S    
C23   C110  A    
C88   C93   A    
C28   C48   A    
N8    Ni7   S    
C11   H115  S    
C87   N4    A    
C15   H5    S    
C27   C32   A    
C34   C38   A    
N23   Ni3   S    
C20   H25   S    
C40   H44   S    
C78   H38   S    
N38   Ni7   S    
C76   C80   D    
C105  H61   S    
C4    C5    S    
C60   C100  A    
N17   N20   A    
N16   Ni7   S    
N4    N39   A    
C12   H114  S    
C47   C52   A    
C62   C106  A    
C64   H13   S    
C102  H58   S    
C22   C105  A    
C7    H109  S    
C115  H84   S    
C46   C50   A    
H8    N31   S    
C61   H110  S    
C53   N27   S    
N13   Ni4   S    
C107  N15   A    
C86   H50   S    
C91   H56   S    
C33   C100  S    
C85   H49   S    
C51   H55   S    
N7    N34   A    
C89   H53   S    
C17   N31   S    
C59   H46   S    
C41   C45   A    
N36   Ni5   S    
C91   C94   A    
C29   C93   A    
N18   Ni2   S    
C109  H64   S    
C17   H9    S    
C66   H39   S    
C6    H97   S    
C7    H111  S    
C110  N18   A    
N11   Ni3   S    
H92   N30   S    
C115  H85   S    
C109  N17   A    
C8    H107  S    
N14   Ni5   S    
C69   H42   S    
C67   C71   D    
N20   Ni4   S    
C10   C55   S    
C65   N35   S    
C33   C37   A    
C18   N32   S    
C39   H66   S    
C12   H112  S    
C64   N33   S    
C95   H73   S    
N34   Ni4   S    
C29   H33   S    
C9    H105  S    
H79   N27   S    
C24   C113  A    
C37   H76   S    
N36   N40   A    
C104  N13   A    
C22   C111  A    
C114  H82   S    
N3    N38   A    
C24   C77   S    
C23   C76   S    
C16   H120  S    
C14   C15   S    
C115  N28   S    
C36   C43   A    
N9    Ni1   S    
C54   N28   S    
C7    C54   S    
C58   H45   S    
C43   C47   A    
N9    N22   A    
C24   C108  A    
C56   C65   S    
C11   C12   S    
