data_mof_unit_56769.cif
_audit_creation_date              2012-12-10T17:26:16-0500
_audit_creation_method            fapswitch 2.2
_symmetry_space_group_name_H-M    P1
_symmetry_Int_Tables_number       1
_space_group_crystal_system       triclinic
_cell_length_a                    10.177818
_cell_length_b                    10.410153
_cell_length_c                    27.761768
_cell_angle_alpha                 89.404508
_cell_angle_beta                  80.466743
_cell_angle_gamma                 94.605526
_cell_volume                      2890.60421447

loop_
_atom_site_label
_atom_site_type_symbol
_atom_type_description
_atom_site_fract_x
_atom_site_fract_y
_atom_site_fract_z
_atom_type_partial_charge
C1    C     C_R   0.555407 0.735396 0.496953 0.901501
C2    C     C_R   0.520150 0.617681 0.126168 -0.087575
C3    C     C_R   0.500096 0.502428 0.646583 -0.075593
C4    C     C_R   0.499289 0.497056 0.353452 -0.079391
C5    C     C_R   0.524136 0.616381 0.023507 0.011750
C6    C     C_R   0.459482 0.382518 0.977432 0.010563
C7    C     C_R   0.464700 0.381969 0.028214 0.069462
C8    C     C_R   0.532435 0.614396 0.972009 0.070209
C9    C     C_R   0.494198 0.499775 0.051206 0.079899
C10   C     C_R   0.496513 0.497887 0.949354 0.080077
C11   C     C_R   0.543557 0.732111 0.048321 -0.243850
C12   C     C_R   0.444485 0.264112 0.504502 0.901840
C13   C     C_R   0.417371 0.271018 0.953811 -0.246120
C14   C     C_R   0.543308 0.734224 0.098347 0.234286
C15   C     C_R   0.417625 0.269134 0.903781 0.234243
C16   C     C_R   0.499940 0.500628 0.593962 0.882808
C17   C     C_R   0.499996 0.499306 0.406041 0.873937
C18   C     C_R   0.577460 0.725186 0.942113 -0.197971
C19   C     C_R   0.442405 0.266907 0.056943 -0.197098
C20   C     C_2   0.584907 0.874043 0.499623 -0.055986
C21   C     C_2   0.415952 0.125284 0.514619 -0.074574
C22   C     C_2   0.512957 0.930768 0.537425 -0.215460
C23   C     C_R   0.497846 0.497032 0.898128 -0.081501
C24   C     C_2   0.504310 0.069333 0.537640 -0.197023
C25   C     C_2   0.926883 0.510596 0.503324 -0.086006
C26   C     C_2   0.074010 0.492960 0.495391 -0.090922
C27   C     C_R   0.539134 0.610803 0.819750 0.545554
C28   C     C_R   0.469010 0.384364 0.179888 0.546892
C29   C     C_R   0.461624 0.387789 0.824039 0.563011
C30   C     C_R   0.521022 0.612233 0.176904 0.562249
C31   C     C_R   0.616047 0.479591 0.715103 -0.130754
C32   C     C_R   0.380659 0.514285 0.285359 -0.132660
C33   C     C_R   0.616519 0.479159 0.665071 -0.209999
C34   C     C_R   0.494038 0.500676 0.102366 -0.081607
C35   C     C_R   0.381149 0.515444 0.335314 -0.209651
C36   C     C_R   0.383920 0.527630 0.678758 -0.249060
C37   C     C_R   0.616307 0.476116 0.320970 -0.253414
C38   C     C_R   0.383216 0.528042 0.728870 0.221389
C39   C     C_R   0.616125 0.475216 0.270908 0.221803
C40   C     C_R   0.499640 0.503312 0.746972 0.270857
C41   C     C_R   0.497846 0.494823 0.253184 0.271348
C42   C     C_3   0.302066 0.044569 0.496945 -0.406541
C43   C     C_3   0.208869 0.120672 0.471523 -0.347974
C44   C     C_3   0.105611 0.030001 0.452026 -0.900514
C45   C     C_R   0.538814 0.611279 0.869972 -0.011666
C46   C     C_3   0.676717 0.952238 0.458725 -0.434928
C47   C     C_3   0.737054 0.872052 0.415598 -0.350779
C48   C     C_3   0.805899 0.958444 0.372480 -0.834490
C49   C     C_3   0.113739 0.631785 0.561097 -0.200572
C50   C     C_3   0.050106 0.549342 0.606480 -0.395509
C51   C     C_3   0.008347 0.633372 0.650154 -0.853629
C52   C     C_3   0.884867 0.361184 0.441092 -0.209771
C53   C     C_3   0.946412 0.435523 0.393564 -0.390083
C54   C     C_3   0.981945 0.343661 0.351828 -0.868813
C55   C     C_R   0.467891 0.383805 0.129752 -0.014235
C56   C     C_R   0.579561 0.723603 0.892215 -0.101017
C57   C     C_R   0.442692 0.268369 0.106699 -0.098708
C58   C     C_R   0.458767 0.382596 0.874995 -0.089900
H1    H     H_    0.293706 0.547059 0.665172 0.176221
H2    H     H_    0.705799 0.460811 0.729256 0.151550
H3    H     H_    0.556478 0.824760 0.029883 0.159774
H4    H     H_    0.380183 0.182538 0.973493 0.162555
H5    H     H_    0.615151 0.814737 0.955793 0.153288
H6    H     H_    0.427117 0.172745 0.042188 0.152961
H7    H     H_    0.584635 0.126371 0.550899 0.175432
H8    H     H_    0.445694 0.873667 0.565670 0.161443
H9    H     H_    0.155733 0.964617 0.424789 0.275462
H10   H     H_    0.042956 0.971653 0.482371 0.261407
H11   H     H_    0.039918 0.087607 0.433987 0.243168
H12   H     H_    0.707893 0.460574 0.334245 0.176394
H13   H     H_    0.154588 0.185486 0.497953 0.238932
H14   H     H_    0.267897 0.179297 0.440436 0.225423
H15   H     H_    0.346248 0.972950 0.470937 0.225966
H16   H     H_    0.241156 0.990639 0.528883 0.214288
H17   H     H_    0.731900 0.014941 0.358245 0.269619
H18   H     H_    0.884684 0.025945 0.383613 0.254426
H19   H     H_    0.852705 0.898046 0.342731 0.268326
H20   H     H_    0.811565 0.811256 0.427301 0.239319
H21   H     H_    0.657124 0.808416 0.402953 0.223803
H22   H     H_    0.618186 0.025115 0.444295 0.225336
H23   H     H_    0.116224 0.429463 0.467451 0.148860
H24   H     H_    0.759132 0.004558 0.474223 0.210468
H25   H     H_    0.096364 0.692847 0.659041 0.271324
H26   H     H_    0.932312 0.697605 0.642059 0.266968
H27   H     H_    0.964229 0.571122 0.682450 0.270158
H28   H     H_    0.960677 0.489367 0.599230 0.214177
H29   H     H_    0.122812 0.483014 0.615805 0.245350
H30   H     H_    0.203265 0.689067 0.569798 0.202081
H31   H     H_    0.046596 0.703464 0.551426 0.139922
H32   H     H_    0.056105 0.278442 0.360835 0.264598
H33   H     H_    0.890975 0.285147 0.344988 0.270612
H34   H     H_    0.885467 0.577110 0.530251 0.154183
H35   H     H_    0.026104 0.399946 0.318010 0.273715
H36   H     H_    0.874463 0.501627 0.383553 0.241656
H37   H     H_    0.038197 0.495470 0.398398 0.211237
H38   H     H_    0.953174 0.292975 0.452337 0.139920
H39   H     H_    0.795038 0.300878 0.434322 0.208836
H40   H     H_    0.613988 0.811495 0.871041 0.203721
H41   H     H_    0.423568 0.177690 0.127094 0.211322
H42   H     H_    0.289351 0.531171 0.359600 0.164616
H43   H     H_    0.707585 0.459976 0.641003 0.166254
H44   H     H_    0.289495 0.529187 0.271500 0.151265
I1    I     I_    0.204975 0.566043 0.775812 -0.295177
I2    I     I_    0.796073 0.445198 0.223477 -0.303416
I3    I     I_    0.579365 0.923157 0.125334 -0.238469
I4    I     I_    0.352417 0.085277 0.878414 -0.214840
N1    N     N_R   0.500105 0.500629 0.798235 -0.356995
N2    N     N_R   0.496181 0.497090 0.201999 -0.357174
N3    N     N_2   0.842700 0.448890 0.480020 -0.093165
N4    N     N_2   0.157300 0.551110 0.519980 -0.091274
O1    O     O_R   0.431060 0.692470 0.504020 -0.620226
O2    O     O_2   0.443834 0.273194 0.206535 -0.526293
O3    O     O_2   0.546967 0.719545 0.201486 -0.497269
O4    O     O_2   0.426417 0.282450 0.799904 -0.496544
O5    O     O_R   0.568940 0.307530 0.495980 -0.625176
O6    O     O_R   0.651120 0.659650 0.491200 -0.611028
O7    O     O_R   0.348880 0.340350 0.508800 -0.609589
O8    O     O_R   0.389980 0.516390 0.577660 -0.623531
O9    O     O_R   0.610020 0.483610 0.422340 -0.622248
O10   O     O_R   0.610040 0.483570 0.564830 -0.621032
O11   O     O_R   0.389960 0.516430 0.435170 -0.620460
O12   O     O_2   0.577533 0.719598 0.792420 -0.530318
Zn1   Zn    Zn3+2 0.353060 0.521910 0.508560 0.921307
Zn2   Zn    Zn3+2 0.646940 0.478090 0.491440 0.918251

loop_
_geom_bond_atom_site_label_1
_geom_bond_atom_site_label_2
_ccdc_geom_bond_type
C31   H2    S    
C23   C58   A    
C38   C40   A    
C29   O4    S    
C43   H14   S    
C23   C45   A    
C41   N2    S    
C53   H37   S    
C48   H18   S    
C48   H17   S    
C47   H21   S    
C36   H1    S    
C51   H27   S    
C39   I2    S    
C39   C41   A    
C53   C54   S    
C28   O2    S    
C33   H43   S    
C3    C36   A    
C15   I4    S    
C54   H32   S    
C16   O10   A    
C11   C14   A    
C18   H5    S    
C3    C33   A    
C57   H41   S    
C52   H39   S    
C31   C40   A    
C22   H8    S    
C54   H35   S    
C46   H24   S    
C28   C55   A    
C14   I3    S    
C13   H4    S    
C45   C56   A    
C42   H15   S    
C32   C41   A    
C31   C33   A    
C1    O6    A    
C56   H40   S    
C26   N4    D    
C25   N3    D    
C12   O5    A    
C2    C34   A    
C4    C35   A    
C34   C55   A    
C37   H12   S    
C49   H30   S    
C19   C57   A    
C27   O12   S    
C42   H16   S    
O1    Zn1   S    
C32   C35   A    
C17   O9    A    
C11   H3    S    
C25   C26   S    
O9    Zn2   S    
C12   C21   S    
C8    C18   A    
C21   C42   S    
C48   H19   S    
C43   C44   S    
C5    C9    A    
C38   I1    S    
C16   O8    A    
N4    Zn1   S    
C47   C48   S    
C27   N1    A    
C19   H6    S    
C50   C51   S    
C44   H11   S    
C4    C37   A    
C50   H29   S    
C40   N1    S    
C4    C17   S    
C24   H7    S    
C17   O11   A    
C20   C22   D    
C26   H23   S    
C7    C19   A    
C55   C57   A    
C9    C34   A    
C15   C58   A    
C32   H44   S    
C44   H10   S    
C42   C43   S    
C35   H42   S    
C51   H25   S    
C52   C53   S    
C7    C9    A    
C46   C47   S    
C25   H34   S    
C43   H13   S    
O5    Zn2   S    
O6    Zn2   S    
C30   N2    A    
C53   H36   S    
C49   H31   S    
C1    C20   S    
C6    C10   A    
C5    C8    A    
N3    Zn2   S    
C5    C11   A    
C6    C7    A    
C18   C56   A    
C10   C23   A    
C2    C30   A    
C13   C15   A    
O7    Zn1   S    
C54   H33   S    
C37   C39   A    
C1    O1    A    
C6    C13   A    
C46   H22   S    
C27   C45   A    
C52   N3    S    
C28   N2    A    
C36   C38   A    
C52   H38   S    
C22   C24   S    
O8    Zn1   S    
C2    C14   A    
O11   Zn1   S    
C50   H28   S    
C12   O7    A    
C29   C58   A    
C8    C10   A    
C49   C50   S    
C21   C24   D    
C29   N1    A    
C44   H9    S    
C47   H20   S    
C51   H26   S    
C20   C46   S    
C3    C16   S    
O10   Zn2   S    
C49   N4    S    
C30   O3    S    
