data_mof_unit_17223.cif
_audit_creation_date              2013-03-05T16:45:08-0500
_audit_creation_method            fapswitch 2.2
_symmetry_space_group_name_H-M    P1
_symmetry_Int_Tables_number       1
_space_group_crystal_system       triclinic
_cell_length_a                    14.878995
_cell_length_b                    15.429892
_cell_length_c                    9.895411
_cell_angle_alpha                 90.491753
_cell_angle_beta                  86.859871
_cell_angle_gamma                 90.390459
_cell_volume                      2268.2608421

loop_
_atom_site_label
_atom_site_type_symbol
_atom_site_description
_atom_site_fract_x
_atom_site_fract_y
_atom_site_fract_z
_atom_type_partial_charge
O1    O     O_R   0.408400 0.908380 0.614690 -0.568601
O2    O     O_R   0.408400 0.091620 0.614690 -0.571534
O3    O     O_R   0.908400 0.408380 0.614690 -0.564871
O4    O     O_R   0.908400 0.591620 0.614690 -0.581239
O5    O     O_R   0.408370 0.908370 0.385350 -0.605000
O6    O     O_R   0.408370 0.091630 0.385350 -0.603013
O7    O     O_R   0.908370 0.408370 0.385350 -0.601571
O8    O     O_R   0.908370 0.591630 0.385350 -0.610938
C1    C     C_R   0.385699 0.874379 0.500429 0.882930
C2    C     C_R   0.382457 0.122419 0.502892 0.907107
C3    C     C_R   0.885080 0.374619 0.500430 0.882081
C4    C     C_R   0.881336 0.621366 0.502449 0.904440
Zn1   Zn    Zn3+2 0.500010 0.000000 0.653130 1.013531
Zn2   Zn    Zn3+2 0.000010 0.500000 0.653130 1.006890
Zn3   Zn    Zn3+2 0.499980 0.000000 0.346870 0.955522
Zn4   Zn    Zn3+2 0.999980 0.500000 0.346870 0.952366
O9    O     O_R   0.591610 0.091610 0.614650 -0.618800
O10   O     O_R   0.591610 0.908390 0.614650 -0.616409
O11   O     O_R   0.091610 0.591610 0.614650 -0.622373
O12   O     O_R   0.091610 0.408390 0.614650 -0.615412
O13   O     O_R   0.591590 0.091600 0.385310 -0.623620
O14   O     O_R   0.591590 0.908400 0.385310 -0.635974
O15   O     O_R   0.091590 0.591600 0.385310 -0.622104
O16   O     O_R   0.091590 0.408400 0.385310 -0.642437
C5    C     C_R   0.625818 0.113877 0.497609 0.891421
C6    C     C_R   0.620895 0.881486 0.496919 0.869332
C7    C     C_R   0.124693 0.615050 0.497583 0.902379
C8    C     C_R   0.119973 0.380416 0.497081 0.878441
C9    C     C_R   0.245721 0.190192 0.600761 -0.101741
C10   C     C_R   0.310103 0.747446 0.613469 0.063046
C11   C     C_R   0.736499 0.682171 0.580498 -0.102381
C12   C     C_R   0.813847 0.244749 0.612486 0.063665
C13   C     C_R   0.320461 0.193103 0.508111 -0.104972
C14   C     C_R   0.337291 0.792436 0.496258 -0.176958
C15   C     C_R   0.818065 0.690725 0.504831 -0.062095
C16   C     C_R   0.837203 0.292119 0.495703 -0.175295
C17   C     C_R   0.324132 0.253881 0.401475 0.190176
C18   C     C_R   0.316275 0.753356 0.370338 0.182407
C19   C     C_R   0.829076 0.758218 0.408998 0.194495
C20   C     C_R   0.814998 0.254245 0.369491 0.183270
C21   C     C_R   0.761605 0.820370 0.402312 -0.250013
C22   C     C_R   0.747160 0.191265 0.369054 -0.277803
C23   C     C_R   0.254425 0.313065 0.393066 -0.268194
C24   C     C_R   0.246722 0.692010 0.369379 -0.276952
H1    H     H_    0.771529 0.875587 0.336026 0.151570
H2    H     H_    0.721210 0.170449 0.273749 0.179906
H3    H     H_    0.259063 0.363298 0.317050 0.160624
H4    H     H_    0.222309 0.669822 0.273770 0.180676
C25   C     C_R   0.684742 0.814208 0.489221 -0.063845
C26   C     C_R   0.709480 0.160505 0.492044 -0.120038
C27   C     C_R   0.183248 0.312201 0.490553 -0.071948
C28   C     C_R   0.206703 0.663448 0.492264 -0.115152
C29   C     C_R   0.670910 0.742797 0.570580 -0.032523
C30   C     C_R   0.755405 0.175739 0.608632 0.015383
C31   C     C_R   0.177955 0.249455 0.589628 -0.007280
C32   C     C_R   0.250393 0.680292 0.609588 0.018397
C33   C     C_3   0.634662 0.735816 0.712485 -0.416812
C34   C     C_3   0.724419 0.182796 0.754168 -0.528196
C35   C     C_3   0.158655 0.261919 0.736696 -0.475248
C36   C     C_3   0.219788 0.686565 0.754925 -0.525997
C37   C     C_3   0.235795 0.200197 0.754428 0.502684
C38   C     C_3   0.284246 0.763999 0.760528 0.472426
C39   C     C_3   0.708394 0.669602 0.729110 0.463560
C40   C     C_3   0.784207 0.263657 0.757667 0.470993
H5    H     H_    0.643012 0.795961 0.773281 0.231965
H6    H     H_    0.747451 0.125931 0.810641 0.225487
H7    H     H_    0.170695 0.328493 0.773368 0.237818
H8    H     H_    0.239454 0.627805 0.809933 0.229714
H9    H     H_    0.565557 0.708475 0.715121 0.231254
H10   H     H_    0.651527 0.196021 0.773041 0.220943
H11   H     H_    0.090642 0.235989 0.765993 0.228740
H12   H     H_    0.147600 0.703452 0.772355 0.211036
C41   C     C_R   0.426283 0.027317 0.078716 0.226233
C42   C     C_R   0.928833 0.532529 0.078226 0.225978
N1    N     N_R   0.499140 0.000000 0.142800 -0.109175
N2    N     N_R   0.999140 0.500000 0.142800 -0.108897
C43   C     C_R   0.575942 0.982000 0.065304 -0.126225
C44   C     C_R   0.074706 0.477722 0.065442 -0.131889
H13   H     H_    0.636841 0.965769 0.114108 0.154763
H14   H     H_    0.134541 0.458192 0.114264 0.155279
C45   C     C_R   0.576126 0.982692 0.921512 -0.105281
C46   C     C_R   0.074988 0.478687 0.921653 -0.090367
H15   H     H_    0.637386 0.967589 0.862378 0.154224
H16   H     H_    0.135639 0.461748 0.862842 0.154748
N3    N     N_R   0.499160 0.000000 0.857150 -0.102984
N4    N     N_R   0.999160 0.500000 0.857150 -0.099284
C47   C     C_R   0.425155 0.023282 0.936209 0.346487
C48   C     C_R   0.928445 0.531622 0.935909 0.279793
C49   C     C_3   0.339663 0.973065 0.949371 -0.514808
C50   C     C_3   0.835514 0.495878 0.943490 -0.485283
C51   C     C_3   0.335777 0.988356 0.099786 -0.551194
C52   C     C_3   0.834777 0.501068 0.095849 -0.521263
H17   H     H_    0.284367 0.000633 0.895901 0.256855
H18   H     H_    0.352828 0.904624 0.926941 0.261933
H19   H     H_    0.787827 0.540130 0.901095 0.267463
H20   H     H_    0.834395 0.428955 0.905463 0.255519
H21   H     H_    0.285164 0.036853 0.136140 0.205121
H22   H     H_    0.334755 0.928045 0.158876 0.250246
H23   H     H_    0.788818 0.551559 0.140174 0.221527
H24   H     H_    0.828771 0.436997 0.145250 0.236420
N5    N     N_2   0.402331 0.261342 0.312661 -0.312715
H25   H     H_    0.438422 0.317391 0.329077 0.219340
C53   C     C_3   0.387587 0.247175 0.170953 -0.637387
H26   H     H_    0.348916 0.301536 0.130447 0.248841
H27   H     H_    0.350351 0.185615 0.157024 0.237694
H28   H     H_    0.453470 0.242857 0.113034 0.246171
N6    N     N_2   0.360261 0.777820 0.245154 -0.299460
H29   H     H_    0.321087 0.770976 0.162989 0.254567
C54   C     C_3   0.449349 0.741926 0.221093 -0.589888
H30   H     H_    0.444962 0.670416 0.208347 0.229601
H31   H     H_    0.492312 0.757529 0.306495 0.221758
H32   H     H_    0.481534 0.770199 0.127462 0.262877
N7    N     N_2   0.911187 0.768211 0.329817 -0.319715
H33   H     H_    0.945337 0.824298 0.353119 0.216763
C55   C     C_3   0.903213 0.757599 0.185603 -0.632561
H34   H     H_    0.866149 0.812876 0.144420 0.240974
H35   H     H_    0.867258 0.696313 0.163686 0.268447
H36   H     H_    0.971410 0.755007 0.134312 0.223402
N8    N     N_2   0.855373 0.282177 0.243545 -0.291554
H37   H     H_    0.814318 0.276450 0.163330 0.252652
C56   C     C_3   0.944783 0.248364 0.213031 -0.596146
H38   H     H_    0.941455 0.177220 0.195351 0.231142
H39   H     H_    0.989263 0.261995 0.297367 0.220103
H40   H     H_    0.974746 0.279904 0.120543 0.260895
N9    N     N_R   0.315233 0.239703 0.814064 0.219881
O17   O     O_R   0.386269 0.193411 0.830610 -0.413447
O18   O     O_R   0.314457 0.319393 0.858349 -0.450560
N10   N     N_R   0.359900 0.749484 0.846658 0.174424
O19   O     O_R   0.436382 0.788727 0.820494 -0.441211
O20   O     O_R   0.354161 0.692626 0.943118 -0.466543
N11   N     N_R   0.774752 0.699170 0.825206 0.211195
O21   O     O_R   0.750285 0.709499 0.952584 -0.457495
O22   O     O_R   0.853869 0.727561 0.782880 -0.412051
N12   N     N_R   0.858301 0.256535 0.849070 0.179584
O23   O     O_R   0.930384 0.303866 0.829773 -0.430228
O24   O     O_R   0.856434 0.198143 0.943244 -0.470420
N13   N     N_2   0.204615 0.122099 0.823571 -0.323134
H41   H     H_    0.162594 0.083812 0.768462 0.212720
C57   C     C_3   0.171187 0.133370 0.963236 -0.797469
H42   H     H_    0.154901 0.069129 0.008166 0.235192
H43   H     H_    0.108588 0.172206 0.969848 0.255070
H44   H     H_    0.222567 0.165776 0.023404 0.263610
N14   N     N_2   0.236494 0.844599 0.792647 -0.325730
H45   H     H_    0.207917 0.844757 0.890084 0.223891
C58   C     C_3   0.176783 0.880588 0.696464 -0.814590
H46   H     H_    0.135599 0.932581 0.746473 0.240040
H47   H     H_    0.130134 0.830702 0.658680 0.247609
H48   H     H_    0.216149 0.910024 0.610264 0.240378
N15   N     N_2   0.673233 0.582718 0.756529 -0.343855
H49   H     H_    0.655871 0.548827 0.671539 0.214949
C59   C     C_3   0.607866 0.571572 0.869845 -0.754250
H50   H     H_    0.614662 0.505860 0.912513 0.240102
H51   H     H_    0.538471 0.578345 0.835362 0.258045
H52   H     H_    0.617656 0.619155 0.952191 0.290585
N16   N     N_2   0.731233 0.342336 0.780802 -0.319490
H53   H     H_    0.703529 0.346292 0.878569 0.221152
C60   C     C_3   0.668370 0.367712 0.680800 -0.801541
H54   H     H_    0.614471 0.408426 0.728989 0.253257
H55   H     H_    0.634216 0.311308 0.635718 0.244895
H56   H     H_    0.704178 0.405232 0.599175 0.234355

loop_
_geom_bond_atom_site_label_1
_geom_bond_atom_site_label_2
_geom_bond_distance
_ccdc_geom_bond_type
Zn2   N4    2.018209 S    
Zn3   N1    2.020081 S    
C60   H54   1.106794 S    
C31   C35   1.479027 S    
N16   C60   1.456176 S    
N6    C54   1.446937 S    
O10   C6    1.287614 A    
C38   N14   1.460490 S    
C37   N13   1.451634 S    
N10   O19   1.299876 A    
C58   H46   1.109343 S    
C50   H19   1.090770 S    
C19   C21   1.397626 A    
O7    C3    1.285515 A    
N13   C57   1.452379 S    
C40   N16   1.461500 S    
C26   C30   1.390199 A    
C42   N2    1.356630 A    
Zn1   O10   1.990169 S    
C12   C16   1.399102 A    
C3    C16   1.456152 S    
N2    C44   1.369214 A    
C54   H31   1.111025 S    
C57   H44   1.108372 S    
N4    C48   1.364976 A    
C36   H12   1.110876 S    
N14   H45   1.032221 S    
C9    C13   1.402697 A    
C49   H18   1.094010 S    
C36   C38   1.529543 S    
C22   H2    1.083817 S    
C59   H52   1.107042 S    
C42   C52   1.479869 S    
C18   N6    1.421674 S    
O2    Zn1   2.023225 S    
C5    C26   1.432192 S    
C41   C47   1.412021 A    
C56   H40   1.110481 S    
C58   H47   1.109179 S    
O6    Zn3   1.990489 S    
C34   H6    1.110448 S    
Zn3   O14   2.023008 S    
C39   N15   1.457972 S    
C19   N7    1.422997 S    
N6    H29   1.030323 S    
O15   C7    1.287803 A    
O4    C4    1.290995 A    
O11   C7    1.287379 A    
C27   C31   1.382565 A    
O8    C4    1.287366 A    
C35   H7    1.103263 S    
C24   C28   1.397751 A    
O8    Zn4   1.990489 S    
N3    C47   1.363724 A    
N5    C53   1.445695 S    
C14   C18   1.428706 A    
C49   H17   1.092764 S    
C41   N1    1.356853 A    
C21   C25   1.395974 A    
C45   H15   1.081490 S    
C18   C24   1.398073 A    
C33   C39   1.520635 S    
C40   N12   1.469059 S    
N8    C56   1.447727 S    
C34   C40   1.528644 S    
C9    C37   1.526283 S    
C35   C37   1.514913 S    
O5    Zn3   1.981918 S    
C10   C14   1.396211 A    
N5    H25   1.031275 S    
Zn2   O12   1.990169 S    
C16   C20   1.428467 A    
O1    C1    1.302673 A    
C41   C51   1.476026 S    
C6    C25   1.410688 S    
C29   C33   1.480924 S    
C34   H10   1.110379 S    
N12   O24   1.300842 A    
C9    C31   1.375281 A    
C55   H35   1.108934 S    
C46   N4    1.369695 A    
C10   C32   1.361972 A    
C13   C17   1.416294 A    
C32   C36   1.487121 S    
C53   H28   1.110196 S    
C17   C23   1.392926 A    
C15   C19   1.417131 A    
O5    C1    1.285064 A    
C11   C39   1.520365 S    
C44   C46   1.422831 A    
C50   C52   1.508536 S    
C43   C45   1.422866 A    
C59   H50   1.109030 S    
C55   H36   1.110222 S    
C43   H13   1.081720 S    
C53   H27   1.107766 S    
C11   C29   1.364400 A    
C4    C15   1.429338 S    
N1    C43   1.369568 A    
C12   C40   1.506206 S    
C56   H38   1.111317 S    
O3    Zn2   2.005606 S    
C22   C26   1.397248 A    
O7    Zn4   1.981918 S    
C48   C50   1.483453 S    
Zn4   O15   2.005390 S    
C39   N11   1.475300 S    
C10   C38   1.504827 S    
C33   H9    1.107794 S    
C1    C14   1.452259 S    
C11   C15   1.396749 A    
C54   H32   1.110656 S    
C49   C51   1.503049 S    
N11   O21   1.301437 A    
O2    C2    1.287246 A    
C53   H26   1.110366 S    
C58   H48   1.106904 S    
C7    C28   1.425006 S    
C52   H24   1.107521 S    
N7    H33   1.031361 S    
C30   C34   1.491196 S    
N14   C58   1.453265 S    
O13   C5    1.290525 A    
Zn4   N2    2.020081 S    
Zn2   O11   1.981598 S    
O16   C8    1.284489 A    
C33   H5    1.111594 S    
N11   O22   1.301989 A    
N10   O20   1.300953 A    
O6    C2    1.292708 A    
C60   H55   1.107625 S    
C57   H42   1.109692 S    
C50   H20   1.096349 S    
N12   O23   1.299770 A    
C38   N10   1.468155 S    
C60   H56   1.108188 S    
O12   C8    1.287616 A    
N13   H41   1.031547 S    
C46   H16   1.079084 S    
C12   C30   1.371771 A    
Zn1   O9    1.981598 S    
O9    C5    1.287760 A    
N15   C59   1.454095 S    
C51   H21   1.108991 S    
C54   H30   1.111378 S    
C17   N5    1.423834 S    
C57   H43   1.109583 S    
C23   C27   1.393005 A    
C55   H34   1.111159 S    
N9    O17   1.298213 A    
C25   C29   1.377898 A    
C20   C22   1.396503 A    
C8    C27   1.415668 S    
C2    C13   1.431999 S    
C44   H14   1.081705 S    
C59   H51   1.110918 S    
C51   H22   1.102866 S    
O4    Zn2   2.023225 S    
C56   H39   1.110980 S    
O3    C3    1.304043 A    
C28   C32   1.383175 A    
Zn3   O13   2.005390 S    
C20   N8    1.422512 S    
O1    Zn1   2.005607 S    
C36   H8    1.110619 S    
Zn4   O16   2.023008 S    
N8    H37   1.030629 S    
O14   C6    1.282739 A    
Zn1   N3    2.018209 S    
N16   H53   1.032100 S    
N9    O18   1.301733 A    
C47   C49   1.485117 S    
C21   H1    1.084072 S    
C37   N9    1.475556 S    
C42   C48   1.408557 A    
N15   H49   1.030493 S    
C23   H3    1.083937 S    
C45   N3    1.369442 A    
C24   H4    1.083806 S    
C52   H23   1.111513 S    
C35   H11   1.110202 S    
N7    C55   1.446261 S    
