data_mof_unit_6901.cif
_audit_creation_date              2012-12-11T16:51:21-0500
_audit_creation_method            fapswitch 2.2
_symmetry_space_group_name_H-M    P1
_symmetry_Int_Tables_number       1
_space_group_crystal_system       triclinic
_cell_length_a                    24.521272
_cell_length_b                    17.16377
_cell_length_c                    15.558161
_cell_angle_alpha                 90.003302
_cell_angle_beta                  129.273352
_cell_angle_gamma                 89.996965
_cell_volume                      5069.09559137

loop_
_atom_site_label
_atom_site_type_symbol
_atom_type_description
_atom_site_fract_x
_atom_site_fract_y
_atom_site_fract_z
_atom_type_partial_charge
C1    C     C_R   0.847021 0.861747 0.232598 0.578115
C2    C     C_R   0.140468 0.187516 0.503568 -0.110500
C3    C     C_R   0.359534 0.687523 0.496441 -0.110562
C4    C     C_R   0.640466 0.687517 0.503569 -0.110558
C5    C     C_R   0.851842 0.127115 0.134513 -0.244997
C6    C     C_R   0.148159 0.127119 0.865489 -0.245005
C7    C     C_R   0.351841 0.627111 0.134510 -0.244981
C8    C     C_R   0.648160 0.627114 0.865492 -0.244998
C9    C     C_R   0.789937 0.819422 0.612632 -0.022580
C10   C     C_R   0.210121 0.819560 0.387335 -0.022843
C11   C     C_R   0.289931 0.319437 0.612635 -0.022600
C12   C     C_R   0.152981 0.861748 0.767401 0.578093
C13   C     C_R   0.710236 0.319847 0.387264 -0.023379
C14   C     C_R   0.767010 0.857665 0.515720 0.048350
C15   C     C_R   0.233017 0.857733 0.484281 0.048446
C16   C     C_R   0.267008 0.357672 0.515719 0.048357
C17   C     C_R   0.733067 0.357850 0.484292 0.048622
C18   C     C_R   0.694522 0.860350 0.425426 -0.338025
C19   C     C_R   0.305498 0.860368 0.574622 -0.337722
C20   C     C_R   0.194520 0.360350 0.425420 -0.337827
C21   C     C_R   0.805533 0.360356 0.574746 -0.337624
C22   C     C_R   0.147896 0.311119 0.424286 0.604696
C23   C     C_R   0.347022 0.361747 0.232598 0.578113
C24   C     C_R   0.852157 0.311097 0.575902 0.604579
C25   C     C_R   0.647897 0.811121 0.424293 0.604782
C26   C     C_R   0.352125 0.811128 0.575765 0.604647
C27   C     C_R   0.176366 0.258286 0.513030 -0.005963
C28   C     C_R   0.823700 0.258380 0.487028 -0.005652
C29   C     C_R   0.676368 0.758284 0.513033 -0.005949
C30   C     C_R   0.323660 0.758323 0.486986 -0.005868
C31   C     C_R   0.245518 0.269471 0.610558 -0.271424
C32   C     C_R   0.754640 0.269825 0.389372 -0.271335
C33   C     C_R   0.745524 0.769458 0.610556 -0.271466
C34   C     C_R   0.652978 0.361744 0.767392 0.578098
C35   C     C_R   0.254534 0.769578 0.389422 -0.271451
C36   C     C_3   0.804470 0.712311 0.685881 0.996622
C37   C     C_3   0.195556 0.712509 0.313917 0.996432
C38   C     C_3   0.304470 0.212332 0.685902 0.996538
C39   C     C_3   0.695580 0.212945 0.313443 0.995914
C40   C     C_R   0.113009 0.901152 0.405312 0.459475
C41   C     C_R   0.886996 0.901131 0.594686 0.459689
C42   C     C_R   0.613017 0.401192 0.405307 0.458909
C43   C     C_R   0.386995 0.401134 0.594685 0.459657
C44   C     C_3   0.853269 0.768222 0.689170 0.589931
C45   C     C_R   0.909033 0.143592 0.590075 0.812190
C46   C     C_3   0.146760 0.768440 0.310614 0.590488
C47   C     C_3   0.353268 0.268247 0.689195 0.589988
C48   C     C_3   0.646795 0.268918 0.310106 0.591635
C49   C     C_2   0.148540 0.749103 0.868389 -0.247052
C50   C     C_2   0.851467 0.749094 0.131614 -0.247223
C51   C     C_2   0.648537 0.249097 0.868378 -0.246958
C52   C     C_2   0.351469 0.249095 0.131613 -0.247408
C53   C     C_2   0.185352 0.696230 0.860041 0.682709
C54   C     C_2   0.814655 0.696227 0.139962 0.682763
C55   C     C_2   0.685353 0.196227 0.860036 0.682584
C56   C     C_R   0.090944 0.143610 0.409937 0.812209
C57   C     C_2   0.314655 0.196229 0.139960 0.682812
C58   C     C_2   0.804200 0.159168 0.020537 0.536288
C59   C     C_2   0.195805 0.159171 0.979468 0.536274
C60   C     C_2   0.304198 0.659161 0.020532 0.536249
C61   C     C_2   0.695805 0.659163 0.979473 0.536274
C62   C     C_2   0.734476 0.146117 0.956639 -0.409578
C63   C     C_2   0.265529 0.146118 0.043358 -0.409721
C64   C     C_2   0.234473 0.646117 0.956640 -0.409689
C65   C     C_2   0.765530 0.646115 0.043361 -0.409653
C66   C     C_R   0.187971 0.896870 0.588171 -0.132772
C67   C     C_R   0.409054 0.643611 0.590068 0.812151
C68   C     C_R   0.812032 0.896859 0.411823 -0.132981
C69   C     C_R   0.687974 0.396888 0.588162 -0.132547
C70   C     C_R   0.312032 0.396859 0.411823 -0.132862
C71   C     C_R   0.059640 0.859698 0.762078 -0.252207
C72   C     C_R   0.940363 0.859695 0.237922 -0.252315
C73   C     C_R   0.559639 0.359696 0.762074 -0.252111
C74   C     C_R   0.440364 0.359697 0.237921 -0.252373
C75   C     C_R   0.879931 0.819043 0.201224 0.094642
C76   C     C_R   0.120074 0.819047 0.798775 0.094578
C77   C     C_R   0.379933 0.319044 0.201223 0.094716
C78   C     C_R   0.590943 0.643612 0.409938 0.812289
C79   C     C_R   0.620071 0.319042 0.798767 0.094550
C80   C     C_R   0.180528 0.882229 0.493749 -0.007821
C81   C     C_R   0.819481 0.882203 0.506244 -0.007928
C82   C     C_R   0.680542 0.382272 0.493737 -0.007738
C83   C     C_R   0.319480 0.382205 0.506244 -0.007866
C84   C     C_R   0.839334 0.144101 0.406283 -0.153922
C85   C     C_R   0.160659 0.144100 0.593734 -0.153823
C86   C     C_R   0.339345 0.644104 0.406273 -0.153834
C87   C     C_R   0.660659 0.644099 0.593735 -0.153814
C88   C     C_R   0.921727 0.103895 0.195209 0.615436
C89   C     C_R   0.859510 0.187513 0.496455 -0.110722
C90   C     C_R   0.078275 0.103897 0.804795 0.615485
C91   C     C_R   0.421727 0.603892 0.195207 0.615441
C92   C     C_R   0.578274 0.603895 0.804796 0.615523
C93   C     C_R   0.167045 0.107949 0.801357 -0.198638
C94   C     C_R   0.832955 0.107947 0.198641 -0.198406
C95   C     C_R   0.667045 0.607947 0.801359 -0.198650
C96   C     C_R   0.332954 0.607944 0.198639 -0.198580
F1    F     F_    0.819990 0.703777 0.787866 -0.634677
F2    F     F_    0.065076 0.158922 0.305028 -0.628637
F3    F     F_    0.434922 0.658921 0.694978 -0.628628
F4    F     F_    0.565074 0.658926 0.305029 -0.628607
F5    F     F_    0.180117 0.704060 0.211979 -0.634713
F6    F     F_    0.319983 0.203805 0.787885 -0.634735
F7    F     F_    0.680329 0.204708 0.211616 -0.634839
F8    F     F_    0.901483 0.801434 0.793150 -0.566175
F9    F     F_    0.098636 0.801746 0.206678 -0.566068
F10   F     F_    0.401470 0.301470 0.793171 -0.566157
F11   F     F_    0.598889 0.302460 0.206275 -0.565805
F12   F     F_    0.934899 0.158874 0.694990 -0.628549
H1    H     H_    0.877110 0.745651 0.652573 -0.069519
H2    H     H_    0.854155 0.745405 0.064601 0.155721
H3    H     H_    0.645846 0.245413 0.935389 0.156071
H4    H     H_    0.354158 0.245406 0.064600 0.155686
H5    H     H_    0.237602 0.900733 0.670892 0.157650
H6    H     H_    0.762400 0.900713 0.329102 0.157693
H7    H     H_    0.737601 0.400762 0.670885 0.157571
H8    H     H_    0.262401 0.400713 0.329101 0.157709
H9    H     H_    0.023072 0.843577 0.775695 0.201022
H10   H     H_    0.976934 0.843573 0.224307 0.200866
H11   H     H_    0.523070 0.343575 0.775690 0.201015
H12   H     H_    0.122834 0.745847 0.347062 -0.069717
H13   H     H_    0.476938 0.343580 0.224309 0.200531
H14   H     H_    0.802292 0.160709 0.320599 0.205239
H15   H     H_    0.197746 0.160690 0.679428 0.204990
H16   H     H_    0.302274 0.660700 0.320583 0.205063
H17   H     H_    0.697748 0.660688 0.679430 0.204985
H18   H     H_    0.219978 0.106398 0.828736 0.164071
H19   H     H_    0.780021 0.106397 0.171260 0.164161
H20   H     H_    0.719978 0.606395 0.828738 0.164076
H21   H     H_    0.280020 0.606392 0.171257 0.164117
H22   H     H_    0.675248 0.894891 0.352932 0.161623
H23   H     H_    0.377119 0.245675 0.652615 -0.069580
H24   H     H_    0.324761 0.894872 0.647143 0.161702
H25   H     H_    0.175247 0.394887 0.352924 0.161701
H26   H     H_    0.824779 0.394763 0.647337 0.161651
H27   H     H_    0.761889 0.907030 0.188923 0.296486
H28   H     H_    0.238108 0.907026 0.811060 0.296499
H29   H     H_    0.261888 0.407030 0.188913 0.296508
H30   H     H_    0.738111 0.407017 0.811071 0.296510
H31   H     H_    0.066262 0.350343 0.281190 0.332094
H32   H     H_    0.933753 0.350123 0.719193 0.332131
H33   H     H_    0.566260 0.850350 0.281196 0.332060
H34   H     H_    0.622661 0.246265 0.346199 -0.070041
H35   H     H_    0.433746 0.850301 0.718913 0.332098
H36   H     H_    0.783314 0.649991 0.562053 0.273906
H37   H     H_    0.216537 0.650088 0.437544 0.273842
H38   H     H_    0.283335 0.150003 0.562093 0.273880
H39   H     H_    0.716135 0.150269 0.436584 0.273790
H40   H     H_    0.215031 0.653915 0.780219 0.347872
H41   H     H_    0.784976 0.653927 0.219784 0.347906
H42   H     H_    0.715046 0.153923 0.780229 0.347872
H43   H     H_    0.284971 0.153934 0.219777 0.347871
H44   H     H_    0.878948 0.222853 0.046860 0.341505
H45   H     H_    0.712761 0.108760 0.984611 0.126788
H46   H     H_    0.121056 0.222852 0.953165 0.341486
H47   H     H_    0.378948 0.722837 0.046843 0.341497
H48   H     H_    0.621058 0.722846 0.953171 0.341486
H49   H     H_    0.047291 0.953161 0.265047 0.353711
H50   H     H_    0.952697 0.953139 0.734958 0.353693
H51   H     H_    0.547281 0.453225 0.265067 0.353803
H52   H     H_    0.452700 0.453139 0.734960 0.353704
H53   H     H_    0.921325 0.096207 0.070675 0.339781
H54   H     H_    0.078683 0.096213 0.929336 0.339783
H55   H     H_    0.421326 0.596200 0.070674 0.339800
H56   H     H_    0.287241 0.108756 0.015380 0.126768
H57   H     H_    0.578679 0.596209 0.929331 0.339831
H58   H     H_    0.212758 0.608766 0.984617 0.126811
H59   H     H_    0.787242 0.608760 0.015378 0.126795
H60   H     H_    0.145852 0.745421 0.935402 0.155841
N1    N     N_R   0.888400 0.921830 0.294620 -0.127178
N2    N     N_R   0.874350 0.922400 0.443380 -0.076646
N3    N     N_R   0.625650 0.422400 0.556620 -0.076651
N4    N     N_R   0.374350 0.422400 0.443380 -0.076664
N5    N     N_R   0.054230 0.922730 0.705400 -0.084967
N6    N     N_R   0.945770 0.922730 0.294600 -0.084959
N7    N     N_R   0.554230 0.422730 0.705400 -0.084984
N8    N     N_R   0.445770 0.422730 0.294600 -0.084939
N9    N     N_R   0.873790 0.077030 0.443380 -0.087887
N10   N     N_R   0.126210 0.077030 0.556620 -0.087797
N11   N     N_R   0.373790 0.577030 0.443380 -0.087818
N12   N     N_R   0.111600 0.921830 0.705380 -0.127182
N13   N     N_R   0.626210 0.577030 0.556620 -0.087796
N14   N     N_R   0.945200 0.076700 0.294600 -0.090244
N15   N     N_R   0.054800 0.076700 0.705400 -0.090228
N16   N     N_R   0.445200 0.576700 0.294600 -0.090262
N17   N     N_R   0.554800 0.576700 0.705400 -0.090250
N18   N     N_R   0.111030 0.077600 0.705380 -0.075022
N19   N     N_R   0.888970 0.077600 0.294620 -0.075060
N20   N     N_R   0.611030 0.577600 0.705380 -0.075031
N21   N     N_R   0.388970 0.577600 0.294620 -0.075041
N22   N     N_R   0.919490 0.077280 0.556590 -0.132706
N23   N     N_R   0.388400 0.421830 0.294620 -0.127183
N24   N     N_R   0.080510 0.077280 0.443410 -0.132656
N25   N     N_R   0.419490 0.577280 0.556590 -0.132678
N26   N     N_R   0.580510 0.577280 0.443410 -0.132633
N27   N     N_R   0.611600 0.421830 0.705380 -0.127196
N28   N     N_R   0.079940 0.922160 0.443410 -0.111493
N29   N     N_R   0.920060 0.922160 0.556590 -0.111512
N30   N     N_R   0.579940 0.422160 0.443410 -0.111424
N31   N     N_R   0.420060 0.422160 0.556590 -0.111534
N32   N     N_R   0.125650 0.922400 0.556620 -0.076661
Ni1   Ni    Ni4+2 0.882160 0.999430 0.370180 0.202928
Ni2   Ni    Ni4+2 0.117840 0.999430 0.629820 0.203040
Ni3   Ni    Ni4+2 0.382160 0.499430 0.370180 0.202999
Ni4   Ni    Ni4+2 0.617840 0.499430 0.629820 0.203046
Ni5   Ni    Ni4+2 0.012460 0.999430 0.370180 0.274747
Ni6   Ni    Ni4+2 0.987540 0.999430 0.629820 0.274720
Ni7   Ni    Ni4+2 0.512460 0.499430 0.370180 0.274772
Ni8   Ni    Ni4+2 0.487540 0.499430 0.629820 0.274743
O1    O     O_3   0.777499 0.854558 0.186086 -0.688145
O2    O     O_3   0.202476 0.640246 0.362968 -0.767617
O3    O     O_3   0.297455 0.140104 0.636695 -0.767603
O4    O     O_3   0.702240 0.140581 0.362091 -0.767684
O5    O     O_3   0.184756 0.697177 0.770555 -0.691265
O6    O     O_3   0.815250 0.697184 0.229448 -0.691248
O7    O     O_3   0.684762 0.197177 0.770555 -0.691262
O8    O     O_3   0.315251 0.197186 0.229446 -0.691285
O9    O     O_3   0.829212 0.210252 0.983749 -0.685508
O10   O     O_3   0.170797 0.210259 0.016265 -0.685510
O11   O     O_3   0.329211 0.710235 0.983735 -0.685512
O12   O     O_3   0.222503 0.854556 0.813909 -0.688129
O13   O     O_3   0.670796 0.710244 0.016276 -0.685505
O14   O     O_3   0.092758 0.925340 0.304457 -0.663213
O15   O     O_3   0.907247 0.925286 0.695557 -0.663230
O16   O     O_3   0.592774 0.425459 0.304487 -0.663201
O17   O     O_3   0.407246 0.425292 0.695554 -0.663177
O18   O     O_3   0.954349 0.085355 0.151369 -0.682477
O19   O     O_3   0.045659 0.085355 0.848641 -0.682457
O20   O     O_3   0.454349 0.585350 0.151369 -0.682440
O21   O     O_3   0.545655 0.585355 0.848636 -0.682431
O22   O     O_3   0.277500 0.354556 0.186087 -0.688134
O23   O     O_3   0.722497 0.354544 0.813884 -0.688097
O24   O     O_3   0.076666 0.310135 0.335547 -0.694962
O25   O     O_3   0.923359 0.309982 0.664764 -0.694830
O26   O     O_3   0.576666 0.810142 0.335557 -0.694998
O27   O     O_3   0.423346 0.810108 0.664538 -0.694941
O28   O     O_3   0.797442 0.640087 0.636658 -0.767566

loop_
_geom_bond_atom_site_label_1
_geom_bond_atom_site_label_2
_ccdc_geom_bond_type
C34   N27   A    
C58   C62   D    
C9    C33   A    
C56   N24   A    
H50   O15   S    
C73   H11   S    
C66   H5    S    
C91   O20   S    
C3    C30   S    
C43   C83   A    
N24   Ni5   S    
C21   H26   S    
C13   C32   A    
C11   C47   S    
C34   O23   S    
C42   C82   A    
C56   F2    S    
N28   N32   A    
H40   O5    S    
C23   N23   A    
C5    C94   A    
C44   F8    S    
C54   C65   S    
C94   H19   S    
N21   Ni3   S    
C15   C19   A    
N26   Ni7   S    
C18   C25   A    
C50   C54   D    
N16   Ni7   S    
C43   O17   S    
C30   C35   A    
N4    N31   A    
C68   C81   A    
N8    Ni7   S    
H30   O23   S    
C35   C37   S    
C78   F4    S    
H53   O18   S    
N3    N30   A    
N12   Ni2   S    
C10   C15   A    
C55   O7    S    
C71   C76   A    
C58   O9    S    
C48   F11   S    
C52   H4    S    
C84   H14   S    
H51   O16   S    
C55   C62   S    
C29   C33   A    
C50   H2    S    
C33   C36   S    
C46   F9    S    
N18   Ni2   S    
C2    C85   A    
C17   C82   S    
C78   N26   A    
C32   C39   S    
H35   O27   S    
N28   Ni5   S    
C22   C27   A    
C19   C26   A    
C70   N4    A    
H41   O6    S    
C86   N11   A    
N2    Ni1   S    
C64   H58   S    
C24   O25   S    
C93   H18   S    
C5    C88   A    
C68   N2    A    
C95   H20   S    
N22   Ni6   S    
C88   O18   S    
C85   N10   A    
C74   C77   A    
C10   C46   S    
N6    Ni5   S    
C51   H3    S    
N1    N6    A    
C40   C80   A    
H47   O11   S    
C36   F1    S    
C69   C82   A    
C72   N6    A    
C20   H25   S    
H46   O10   S    
C45   C89   A    
C4    C29   S    
C47   H23   S    
C45   F12   S    
C67   F3    S    
C8    C61   S    
C44   H1    S    
C6    C93   A    
C11   C31   A    
C28   C89   S    
N25   Ni8   S    
C91   N16   A    
C3    C86   A    
H57   O21   S    
N17   Ni8   S    
N11   N25   A    
N29   Ni6   S    
C8    C95   A    
N23   Ni3   S    
N7    Ni8   S    
C72   C75   A    
C42   O16   S    
N7    N27   A    
C95   N20   A    
H38   O3    S    
C51   C79   S    
C25   C29   A    
C63   H56   S    
C71   H9    S    
C27   C31   A    
C1    C75   A    
C70   C83   A    
C90   O19   S    
C28   C32   A    
C94   N19   A    
C49   H60   S    
C41   N29   A    
C60   O11   S    
C39   O4    S    
C4    C87   A    
H36   O28   S    
C92   N17   A    
H33   O26   S    
H31   O24   S    
N27   Ni4   S    
N5    N12   A    
C70   H8    S    
C6    C90   A    
C1    O1    S    
N20   Ni4   S    
C16   C83   S    
C17   C21   A    
C71   N5    A    
C40   O14   S    
H48   O13   S    
C96   N21   A    
C73   N7    A    
N4    Ni3   S    
C9    C14   A    
C74   N8    A    
C7    C96   A    
C34   C79   A    
N10   N24   A    
H52   O17   S    
C88   N14   A    
C15   C80   S    
C57   O8    S    
C42   N30   A    
C16   C20   A    
C47   F10   S    
C41   C81   A    
H44   O9    S    
C73   C79   A    
C49   C76   S    
C46   H12   S    
C41   O15   S    
H42   O7    S    
C23   C77   A    
N13   N26   A    
C38   C47   S    
C2    C27   S    
C8    C92   A    
C5    C58   S    
C12   N12   A    
N11   Ni3   S    
C25   O26   S    
C26   C30   A    
H43   O8    S    
N10   Ni2   S    
C86   H16   S    
H49   O14   S    
C38   O3    S    
N5    Ni6   S    
N9    Ni1   S    
C36   C44   S    
N13   Ni4   S    
C36   O28   S    
C84   C89   A    
H39   O4    S    
C7    C60   S    
C87   H17   S    
H37   O2    S    
C40   N28   A    
C19   H24   S    
C54   O6    S    
C65   H59   S    
C23   O22   S    
C69   H7    S    
C9    C44   S    
C53   O5    S    
N9    N22   A    
H27   O1    S    
N30   Ni7   S    
C6    C59   S    
C3    C67   A    
C24   C28   A    
C57   C63   S    
C20   C22   A    
H29   O22   S    
N17   N20   A    
C59   O10   S    
C87   N13   A    
C13   C48   S    
C62   H45   S    
C39   F7    S    
H28   O12   S    
C26   O27   S    
C4    C78   A    
C66   C80   A    
N19   Ni1   S    
C59   C63   D    
C31   C38   S    
C13   C17   A    
C60   C64   D    
N14   Ni5   S    
C12   C76   A    
H54   O19   S    
C38   F6    S    
C2    C56   A    
C50   C75   S    
C93   N18   A    
C7    C91   A    
C37   F5    S    
H32   O25   S    
C92   O21   S    
C49   C53   D    
C1    N1    A    
N31   Ni8   S    
C53   C64   S    
C14   C18   A    
C85   H15   S    
C51   C55   D    
N14   N19   A    
C69   N3    A    
C84   N9    A    
N8    N23   A    
N15   N18   A    
C61   O13   S    
C37   O2    S    
C11   C16   A    
C18   H22   S    
C52   C57   D    
N3    Ni4   S    
N1    Ni1   S    
C10   C35   A    
C61   C65   D    
C45   N22   A    
C48   H34   S    
C74   H13   S    
C22   O24   S    
C90   N15   A    
N32   Ni2   S    
C21   C24   A    
C72   H10   S    
H55   O20   S    
N15   Ni6   S    
N16   N21   A    
C96   H21   S    
C43   N31   A    
C14   C81   S    
C37   C46   S    
C67   N25   A    
C12   O12   S    
N2    N29   A    
C66   N32   A    
C52   C77   S    
C68   H6    S    
C39   C48   S    
