data_mof_unit_44534.cif
_audit_creation_date              2012-12-10T17:40:29-0500
_audit_creation_method            fapswitch 2.2
_symmetry_space_group_name_H-M    P1
_symmetry_Int_Tables_number       1
_space_group_crystal_system       triclinic
_cell_length_a                    13.789683
_cell_length_b                    15.068124
_cell_length_c                    15.804207
_cell_angle_alpha                 88.090774
_cell_angle_beta                  70.669232
_cell_angle_gamma                 88.789371
_cell_volume                      3096.84010902

loop_
_atom_site_label
_atom_site_type_symbol
_atom_type_description
_atom_site_fract_x
_atom_site_fract_y
_atom_site_fract_z
_atom_type_partial_charge
C1    C     C_R   0.499273 0.671386 0.500092 0.813054
C2    C     C_R   0.500401 0.328640 0.500964 0.804053
C3    C     C_R   0.410975 0.400755 0.081370 -0.253935
C4    C     C_R   0.630485 0.490535 0.899548 -0.195924
C5    C     C_R   0.343673 0.379779 0.035733 0.160544
C6    C     C_R   0.703308 0.496327 0.943334 0.143823
C7    C     C_R   0.593446 0.184167 0.484100 -0.250246
C8    C     C_R   0.405608 0.815887 0.522125 -0.249229
C9    C     C_R   0.500628 0.231769 0.502928 -0.073576
C10   C     C_R   0.498621 0.768292 0.500641 -0.072783
C11   C     C_R   0.407305 0.186687 0.523107 -0.242551
C12   C     C_R   0.591911 0.813415 0.480851 -0.239815
C13   C     C_R   0.406165 0.094312 0.523726 0.108782
C14   C     C_R   0.592901 0.905737 0.481992 0.107006
C15   C     C_R   0.499716 0.046516 0.503544 0.062823
C16   C     C_R   0.499307 0.953518 0.502825 0.062123
C17   C     C_R   0.593688 0.091633 0.483822 0.110696
C18   C     C_R   0.405314 0.908391 0.522913 0.112135
C19   C     C_R   0.313136 0.049015 0.543807 -0.209999
C20   C     C_R   0.685871 0.951004 0.462575 -0.210239
C21   C     C_R   0.312698 0.956504 0.543571 -0.208466
C22   C     C_R   0.686246 0.043487 0.463616 -0.208292
C23   C     C_R   0.437761 0.496762 0.672237 0.799507
C24   C     C_R   0.562469 0.500919 0.327172 0.837317
C25   C     C_R   0.223117 0.561313 0.447275 0.295204
C26   C     C_R   0.775219 0.442848 0.557373 0.286632
C27   C     C_R   0.188959 0.438170 0.550763 -0.041941
C28   C     C_R   0.813999 0.555123 0.441719 -0.018761
C29   C     C_R   0.086185 0.436345 0.551435 0.004100
C30   C     C_R   0.917470 0.555689 0.439583 -0.004408
C31   C     C_R   0.053504 0.496024 0.495436 0.049213
C32   C     C_R   0.950167 0.496123 0.495679 0.050374
C33   C     C_R   0.123087 0.557592 0.441305 0.012169
C34   C     C_R   0.879048 0.438276 0.553930 0.013031
C35   C     C_R   0.015124 0.376886 0.607581 -0.219679
C36   C     C_R   0.988706 0.615062 0.383347 -0.220090
C37   C     C_R   0.912769 0.378305 0.609531 -0.186780
C38   C     C_R   0.089829 0.616675 0.384737 -0.175989
C39   C     C_R   0.402637 0.477551 0.769775 -0.144119
C40   C     C_R   0.600205 0.498775 0.227303 -0.062534
C41   C     C_R   0.296849 0.392764 0.899923 -0.156360
C42   C     C_R   0.739740 0.503715 0.084120 -0.234156
C43   C     C_R   0.318056 0.421035 0.811024 0.110880
C44   C     C_R   0.706476 0.503959 0.177785 0.098410
C45   C     C_R   0.463235 0.505375 0.820403 0.059354
C46   C     C_R   0.529267 0.490729 0.180547 0.061495
C47   C     C_R   0.452171 0.463634 0.904376 0.059394
C48   C     C_R   0.565579 0.476273 0.086972 0.016190
C49   C     C_R   0.363226 0.412430 0.947209 0.038416
C50   C     C_R   0.670340 0.491790 0.037854 0.089654
C51   C     C_R   0.526632 0.472105 0.947584 0.066264
C52   C     C_R   0.499142 0.451904 0.040062 0.015832
Cu1   Cu    Cu3+1 0.402580 0.500010 0.499990 0.927485
Cu2   Cu    Cu3+1 0.597420 0.499990 0.500010 0.938867
H1    H     H_    0.860310 0.331996 0.655096 0.171502
H2    H     H_    0.141728 0.664664 0.341148 0.172337
H3    H     H_    0.335332 0.223422 0.538573 0.149346
H4    H     H_    0.664021 0.776764 0.464211 0.151678
H5    H     H_    0.240820 0.085140 0.559548 0.143710
H6    H     H_    0.758207 0.914882 0.446572 0.143413
N1    N     N_R   0.256170 0.500070 0.500040 -0.194649
N2    N     N_R   0.743830 0.499930 0.499960 -0.192237
O1    O     O_R   0.417730 0.629750 0.499970 -0.598809
O2    O     O_R   0.582270 0.370250 0.500030 -0.595789
O3    O     O_R   0.582270 0.629730 0.499980 -0.586861
O4    O     O_R   0.417730 0.370270 0.500020 -0.590936
O5    O     O_R   0.371590 0.500020 0.629830 -0.583403
O6    O     O_R   0.628410 0.499980 0.370170 -0.546466
O7    O     O_R   0.536130 0.499990 0.629840 -0.593786
O8    O     O_R   0.463870 0.500010 0.370160 -0.577524
N3    N     N_3   0.255078 0.326039 0.079410 -0.598869
H7    H     H_    0.257454 0.300281 0.140963 0.219383
H8    H     H_    0.190434 0.367772 0.093917 0.210278
N4    N     N_3   0.809938 0.509648 0.892160 -0.595622
H9    H     H_    0.819735 0.519998 0.824078 0.223547
H10   H     H_    0.849330 0.450734 0.897214 0.211947
N5    N     N_3   0.284001 0.636009 0.403779 -0.614317
H11   H     H_    0.358470 0.618183 0.366432 0.284660
H12   H     H_    0.282023 0.682488 0.451677 0.226333
N6    N     N_3   0.704191 0.389436 0.625965 -0.627523
H13   H     H_    0.663906 0.345720 0.601137 0.257227
H14   H     H_    0.658247 0.428212 0.677597 0.234339
H15   H     H_    0.214830 0.390911 0.591909 0.130562
H16   H     H_    0.789086 0.599771 0.397684 0.142985
H17   H     H_    0.038168 0.330246 0.651230 0.142204
H18   H     H_    0.965845 0.661395 0.339342 0.137362
N7    N     N_3   0.423078 0.514309 0.224942 -0.589916
H19   H     H_    0.390719 0.546593 0.180944 0.234994
H20   H     H_    0.380937 0.458278 0.255256 0.231091
N8    N     N_3   0.524146 0.584388 0.793923 -0.591307
H21   H     H_    0.478588 0.635476 0.780156 0.223779
H22   H     H_    0.587095 0.573914 0.736380 0.234689
N9    N     N_3   0.781339 0.513809 0.221634 -0.570615
H23   H     H_    0.834483 0.461488 0.203055 0.219685
H24   H     H_    0.820451 0.573174 0.198349 0.210672
N10   N     N_3   0.253164 0.389144 0.764412 -0.601304
H25   H     H_    0.216094 0.443201 0.744764 0.240653
H26   H     H_    0.298246 0.354973 0.708164 0.223149
H27   H     H_    0.230246 0.351447 0.930226 0.183602
H28   H     H_    0.820811 0.512904 0.048028 0.170806
H29   H     H_    0.397677 0.371372 0.147328 0.147443
H30   H     H_    0.657731 0.493019 0.827158 0.150455
H31   H     H_    0.665531 0.219043 0.468440 0.155456
H32   H     H_    0.333410 0.781141 0.539419 0.145241
H33   H     H_    0.240067 0.922613 0.559184 0.145101
H34   H     H_    0.758846 0.077355 0.448346 0.145347

loop_
_geom_bond_atom_site_label_1
_geom_bond_atom_site_label_2
_ccdc_geom_bond_type
N7    H19   S    
N9    H23   S    
C5    N3    S    
C28   H16   S    
C34   C37   A    
Cu1   O1    S    
C23   O7    A    
C24   O8    A    
C47   C49   A    
Cu2   O3    S    
N5    H11   S    
C40   C46   A    
N4    H10   S    
C25   N5    S    
C35   C37   A    
Cu2   O6    S    
C15   C16   A    
C18   C21   A    
C27   C29   A    
C7    C9    A    
C23   O5    A    
C44   N9    S    
C27   N1    A    
Cu1   N1    S    
C26   C34   A    
C7    C17   A    
N10   H26   S    
C1    O3    A    
C41   H27   S    
C20   H6    S    
C39   C45   A    
C12   H4    S    
C3    H29   S    
C48   C50   A    
N9    H24   S    
C7    H31   S    
C41   C43   A    
C5    C49   A    
C42   C44   A    
Cu1   O8    S    
C1    O1    A    
C41   C49   A    
C2    O2    A    
C6    N4    S    
C45   C47   A    
C46   C48   A    
N4    H9    S    
C13   C19   A    
C4    C51   A    
C51   C52   A    
C14   C20   A    
N6    H14   S    
N3    H8    S    
C39   C43   A    
Cu2   N2    S    
C19   H5    S    
Cu1   Cu2   S    
C8    C18   A    
C4    H30   S    
C32   C34   A    
Cu1   O4    S    
C42   H28   S    
C8    H32   S    
N8    H22   S    
C31   C32   A    
C40   C44   A    
N10   H25   S    
C31   C33   A    
C43   N10   S    
N5    H12   S    
C16   C18   A    
C25   N1    A    
C6    C50   A    
C45   N8    S    
C9    C11   A    
C10   C12   A    
C42   C50   A    
C4    C6    A    
C20   C22   A    
C13   C15   A    
C14   C16   A    
C46   N7    S    
C15   C17   A    
C35   H17   S    
C19   C21   A    
C1    C10   S    
C33   C38   A    
C12   C14   A    
N6    H13   S    
C3    C5    A    
C47   C51   A    
C3    C52   A    
C2    O4    A    
C29   C35   A    
C17   C22   A    
C30   C36   A    
C36   H18   S    
C28   C30   A    
C26   N2    A    
N3    H7    S    
C29   C31   A    
C22   H34   S    
C30   C32   A    
C11   C13   A    
N8    H21   S    
Cu2   O7    S    
Cu2   O2    S    
C23   C39   S    
C36   C38   A    
C24   C40   S    
Cu1   O5    S    
C26   N6    S    
C24   O6    A    
C27   H15   S    
C37   H1    S    
C48   C52   A    
C38   H2    S    
C8    C10   A    
N7    H20   S    
C11   H3    S    
C2    C9    S    
C21   H33   S    
C25   C33   A    
C28   N2    A    
