data_mof_unit_26118.cif
_audit_creation_date              2012-12-10T17:14:43-0500
_audit_creation_method            fapswitch 2.2
_symmetry_space_group_name_H-M    P1
_symmetry_Int_Tables_number       1
_space_group_crystal_system       triclinic
_cell_length_a                    10.633638
_cell_length_b                    12.920679
_cell_length_c                    11.845328
_cell_angle_alpha                 99.185479
_cell_angle_beta                  90.969673
_cell_angle_gamma                 94.755462
_cell_volume                      1600.32238337

loop_
_atom_site_label
_atom_site_type_symbol
_atom_type_description
_atom_site_fract_x
_atom_site_fract_y
_atom_site_fract_z
_atom_type_partial_charge
C1    C     C_R   0.492740 0.299353 0.478694 0.786783
C2    C     C_R   0.507259 0.700647 0.521306 0.786783
C3    C     C_R   0.558988 0.139369 0.535928 -0.281005
C4    C     C_R   0.441008 0.860631 0.464075 -0.281005
C5    C     C_R   0.545790 0.031786 0.536213 0.134359
C6    C     C_R   0.454205 0.968215 0.463789 0.134361
C7    C     C_R   0.372350 0.403181 0.033121 -0.359507
C8    C     C_R   0.627650 0.596819 0.966879 -0.359507
C9    C     C_R   0.386316 0.412019 0.151429 0.039427
C10   C     C_R   0.613684 0.587980 0.848571 0.039430
C11   C     C_R   0.552795 0.547298 0.152311 0.250494
C12   C     C_R   0.447205 0.452702 0.847689 0.250493
C13   C     C_R   0.545753 0.536586 0.030228 0.046155
C14   C     C_R   0.454247 0.463414 0.969772 0.046155
C15   C     C_R   0.259604 0.497106 0.502119 0.771467
C16   C     C_R   0.740395 0.502892 0.497881 0.771469
C17   C     C_3   0.032038 0.470682 0.598395 0.163052
C18   C     C_3   0.967961 0.529314 0.401605 0.163052
C19   C     C_3   0.943502 0.403828 0.505406 -0.206295
C20   C     C_3   0.056498 0.596168 0.494593 -0.206295
C21   C     C_3   0.877348 0.503153 0.494154 -0.037056
C22   C     C_3   0.122651 0.496843 0.505846 -0.037056
C23   C     C_3   0.964563 0.569772 0.588169 -0.193178
C24   C     C_3   0.035437 0.430224 0.411830 -0.193174
C25   C     C_R   0.519397 0.815153 0.534229 -0.080921
C26   C     C_R   0.480602 0.184847 0.465770 -0.080921
C27   C     C_R   0.377844 0.012380 0.390583 -0.208639
C28   C     C_R   0.622153 0.987620 0.609417 -0.208638
C29   C     C_R   0.389814 0.121283 0.389256 0.070753
C30   C     C_R   0.610188 0.878717 0.610739 0.070756
Cu1   Cu    Cu3+1 0.509400 0.507730 0.615930 0.907645
Cu2   Cu    Cu3+1 0.490600 0.492270 0.384070 0.907643
H1    H     H_    0.895024 0.325130 0.509804 0.127307
H2    H     H_    0.104975 0.674867 0.490196 0.127307
H3    H     H_    0.933082 0.626571 0.660131 0.125170
H4    H     H_    0.066915 0.373422 0.339870 0.125164
H5    H     H_    0.369933 0.811433 0.408516 0.136137
H6    H     H_    0.630063 0.188568 0.591488 0.136137
H7    H     H_    0.309560 0.960549 0.335277 0.126774
H8    H     H_    0.690436 0.039453 0.664723 0.126773
H9    H     H_    0.677267 0.634753 0.802736 0.131326
H10   H     H_    0.322734 0.365245 0.197264 0.131335
H11   H     H_    0.296621 0.347766 0.994011 0.153398
H12   H     H_    0.703379 0.652234 0.005989 0.153396
N1    N     N_R   0.523540 0.519360 0.790140 -0.188127
N2    N     N_R   0.476460 0.480640 0.209860 -0.188127
O1    O     O_R   0.506670 0.354460 0.582000 -0.588605
O2    O     O_R   0.493330 0.645540 0.418000 -0.588604
O3    O     O_R   0.490800 0.341410 0.386200 -0.586715
O4    O     O_R   0.509200 0.658590 0.613800 -0.586712
O5    O     O_R   0.324790 0.506500 0.597880 -0.604340
O6    O     O_R   0.675210 0.493500 0.402120 -0.604342
O7    O     O_R   0.308910 0.493440 0.402080 -0.586249
O8    O     O_R   0.691090 0.506560 0.597920 -0.586248
C31   C     C_3   0.066548 0.434262 0.709904 -0.436726
C32   C     C_3   0.951828 0.424080 0.785256 -0.316547
C33   C     C_3   0.985876 0.377870 0.891452 -0.885361
H13   H     H_    0.015163 0.297014 0.866479 0.251079
H14   H     H_    0.064266 0.427676 0.941551 0.261323
H15   H     H_    0.902483 0.374130 0.946296 0.249322
H16   H     H_    0.917250 0.502849 0.812471 0.220419
H17   H     H_    0.874310 0.371966 0.736303 0.224414
H18   H     H_    0.104322 0.356278 0.687534 0.190590
H19   H     H_    0.140057 0.492073 0.756820 0.208254
C34   C     C_3   0.933451 0.565734 0.290096 -0.436725
C35   C     C_3   0.048172 0.575918 0.214745 -0.316547
C36   C     C_3   0.014122 0.622124 0.108546 -0.885363
H20   H     H_    0.935738 0.572312 0.058445 0.261323
H21   H     H_    0.984827 0.702977 0.133516 0.251078
H22   H     H_    0.097518 0.625869 0.053705 0.249324
H23   H     H_    0.125687 0.628037 0.263698 0.224413
H24   H     H_    0.082756 0.497151 0.187534 0.220419
H25   H     H_    0.859944 0.507923 0.243179 0.208255
H26   H     H_    0.895676 0.643718 0.312466 0.190588
C37   C     C_3   0.691893 0.829622 0.691608 -0.383959
C38   C     C_3   0.794191 0.904393 0.763212 -0.374075
C39   C     C_3   0.869057 0.846492 0.840787 -0.866598
H27   H     H_    0.805306 0.810620 0.899994 0.247152
H28   H     H_    0.918805 0.784134 0.788996 0.247114
H29   H     H_    0.940499 0.902918 0.892453 0.246020
H30   H     H_    0.860638 0.939799 0.705622 0.220818
H31   H     H_    0.749437 0.967973 0.818665 0.220767
H32   H     H_    0.628173 0.796328 0.752489 0.216113
H33   H     H_    0.738970 0.764732 0.640515 0.184460
C40   C     C_3   0.308123 0.170375 0.308372 -0.383956
C41   C     C_3   0.205826 0.095607 0.236765 -0.374081
C42   C     C_3   0.130996 0.153505 0.159161 -0.866598
H34   H     H_    0.081271 0.215896 0.210926 0.247106
H35   H     H_    0.194768 0.189339 0.099940 0.247153
H36   H     H_    0.059538 0.097084 0.107510 0.246023
H37   H     H_    0.250577 0.032013 0.181333 0.220768
H38   H     H_    0.139360 0.060221 0.294353 0.220817
H39   H     H_    0.261045 0.235271 0.359455 0.184461
H40   H     H_    0.371854 0.203662 0.247494 0.216121
C43   C     C_3   0.357591 0.364002 0.784096 -0.397363
C44   C     C_3   0.405516 0.255200 0.787016 -0.353257
C45   C     C_3   0.311392 0.167342 0.726503 -0.844536
H41   H     H_    0.221115 0.166881 0.772344 0.243432
H42   H     H_    0.292415 0.178371 0.636942 0.255187
H43   H     H_    0.350441 0.090120 0.725478 0.253849
H44   H     H_    0.497944 0.250614 0.745752 0.239705
H45   H     H_    0.420964 0.241399 0.875993 0.214437
H46   H     H_    0.263656 0.367198 0.822135 0.165524
H47   H     H_    0.338347 0.371986 0.695708 0.248822
C46   C     C_3   0.642409 0.635998 0.215904 -0.397363
C47   C     C_3   0.594484 0.744800 0.212984 -0.353254
C48   C     C_3   0.688608 0.832658 0.273499 -0.844543
H48   H     H_    0.707579 0.821630 0.363061 0.255189
H49   H     H_    0.778886 0.833116 0.227662 0.243433
H50   H     H_    0.649562 0.909879 0.274521 0.253849
H51   H     H_    0.579037 0.758601 0.124008 0.214439
H52   H     H_    0.502055 0.749385 0.254248 0.239705
H53   H     H_    0.661652 0.628014 0.304292 0.248824
H54   H     H_    0.736344 0.632802 0.177865 0.165523

loop_
_geom_bond_atom_site_label_1
_geom_bond_atom_site_label_2
_ccdc_geom_bond_type
C42   H34   S    
C16   C21   S    
C44   H45   S    
C27   C29   A    
C18   C21   S    
C48   H49   S    
C43   C44   S    
C31   C32   S    
C45   H41   S    
C15   C22   S    
C47   H52   S    
C39   H27   S    
C18   C34   S    
C9    H10   S    
C17   C23   S    
C18   C24   S    
C15   O7    A    
C46   H53   S    
C19   C21   S    
C41   H37   S    
C5    C6    A    
C37   H33   S    
C33   H14   S    
C47   C48   S    
C28   H8    S    
C34   H25   S    
C32   C33   S    
C3    C26   A    
Cu2   O6    S    
C2    O4    A    
C40   H39   S    
C7    C14   A    
C35   H24   S    
C35   H23   S    
C3    H6    S    
C27   H7    S    
C31   H18   S    
C11   C46   S    
C48   H48   S    
C12   C43   S    
C7    H11   S    
C17   C31   S    
C29   C40   S    
C32   H17   S    
C20   H2    S    
C35   C36   S    
C9    N2    A    
Cu1   O1    S    
C44   H44   S    
C44   C45   S    
C10   H9    S    
Cu2   O2    S    
C45   H42   S    
C43   H46   S    
C4    C25   A    
C47   H51   S    
C39   H28   S    
C36   H20   S    
C8    H12   S    
C46   H54   S    
C38   C39   S    
C4    C6    A    
C19   H1    S    
C38   H31   S    
C41   C42   S    
C1    O1    A    
C33   H15   S    
C2    O2    A    
C40   C41   S    
C34   H26   S    
C36   H21   S    
C37   C38   S    
C5    C28   A    
C40   H40   S    
C6    C27   A    
C20   C23   S    
C15   O5    A    
C31   H19   S    
C10   N1    A    
C24   H4    S    
C12   C14   A    
C23   H3    S    
C21   C23   S    
C1    C26   S    
C48   H50   S    
C22   C24   S    
C20   C22   S    
Cu1   O4    S    
Cu2   O7    S    
C45   H43   S    
C43   H47   S    
C39   H29   S    
C25   C30   A    
C7    C9    A    
Cu2   N2    S    
Cu1   Cu2   S    
C16   O6    A    
Cu1   O5    S    
C12   N1    A    
C3    C5    A    
C38   H30   S    
C46   C47   S    
C17   C22   S    
C36   H22   S    
C42   H35   S    
C19   C24   S    
C41   H38   S    
C30   C37   S    
C11   C13   A    
C37   H32   S    
C33   H13   S    
C28   C30   A    
C17   C19   S    
C2    C25   S    
C18   C20   S    
Cu1   O8    S    
C16   O8    A    
Cu2   O3    S    
C8    C13   A    
C4    H5    S    
C26   C29   A    
C8    C10   A    
C34   C35   S    
Cu1   N1    S    
C42   H36   S    
C32   H16   S    
C11   N2    A    
C13   C14   A    
C1    O3    A    
