data_mof_unit_39870.cif
_audit_creation_date              2012-12-10T17:27:55-0500
_audit_creation_method            fapswitch 2.2
_symmetry_space_group_name_H-M    P1
_symmetry_Int_Tables_number       1
_space_group_crystal_system       triclinic
_cell_length_a                    10.695476
_cell_length_b                    12.044621
_cell_length_c                    12.887833
_cell_angle_alpha                 91.664635
_cell_angle_beta                  89.452185
_cell_angle_gamma                 90.340898
_cell_volume                      1659.44549821

loop_
_atom_site_label
_atom_site_type_symbol
_atom_type_description
_atom_site_fract_x
_atom_site_fract_y
_atom_site_fract_z
_atom_type_partial_charge
Br1   Br    Br    0.447593 0.299872 0.838210 -0.224060
Br2   Br    Br    0.271483 0.001044 0.296519 -0.380558
Br3   Br    Br    0.874109 0.075282 0.352691 -0.275406
Br4   Br    Br    0.625582 0.240293 0.214914 -0.327218
Br5   Br    Br    0.479010 0.801788 0.024610 -0.288121
C1    C     C_R   0.495821 0.520604 0.700782 0.969175
C2    C     C_R   0.494415 0.640470 0.859177 -0.195301
C3    C     C_R   0.521769 0.441798 0.874085 0.297195
C4    C     C_R   0.740262 0.501676 0.490697 0.887037
C5    C     C_R   0.558192 0.458826 0.976252 -0.126799
C6    C     C_R   0.531329 0.562120 0.025438 -0.009634
C7    C     C_R   0.522295 0.567029 0.132383 -0.199382
C8    C     C_R   0.586779 0.373246 0.140776 0.192636
C9    C     C_R   0.606971 0.371733 0.033554 0.422722
C10   C     C_R   0.383101 0.949774 0.400200 0.224695
C11   C     C_R   0.391284 0.834286 0.414710 -0.094171
C12   C     C_R   0.940595 0.400910 0.465715 -0.005923
C13   C     C_R   0.553345 0.864520 0.535949 0.568282
C14   C     C_R   0.525619 0.979047 0.542981 -0.191273
C15   C     C_R   0.453626 0.023734 0.464029 -0.104674
C16   C     C_R   0.510079 0.479671 0.299810 0.917064
C17   C     C_R   0.456209 0.140414 0.452530 0.106652
C18   C     C_R   0.578409 0.165816 0.603968 0.021124
C19   C     C_R   0.575613 0.051452 0.620889 0.319992
C20   C     C_R   0.260369 0.497158 0.510196 0.896927
C21   C     C_R   0.889624 0.306862 0.413171 -0.187791
C22   C     C_R   0.946591 0.203297 0.419835 0.332157
C23   C     C_R   0.875311 0.502308 0.482344 -0.073183
C24   C     C_R   0.048566 0.191637 0.485137 -0.258400
C25   C     C_R   0.101739 0.285286 0.534747 0.351520
C26   C     C_R   0.059263 0.392118 0.508908 -0.020731
C27   C     C_R   0.939400 0.596943 0.516700 -0.121196
C28   C     C_R   0.064753 0.592931 0.534512 -0.186581
C29   C     C_R   0.126867 0.491659 0.525822 -0.050146
C30   C     C_R   0.537288 0.470789 0.189367 -0.209811
C31   C     C_R   0.501415 0.533903 0.812884 -0.204311
C32   C     C_R   0.503756 0.654777 0.965941 0.318818
H1    H     H_    0.894910 0.674392 0.531213 0.248672
H2    H     H_    0.901675 0.222670 0.012441 0.416717
H3    H     H_    0.776277 0.110173 0.751068 0.371389
H4    H     H_    0.796472 0.766536 0.686356 0.395573
H5    H     H_    0.256642 0.102028 0.634696 0.355829
H6    H     H_    0.475015 0.711849 0.813232 0.239529
H7    H     H_    0.404055 0.178422 0.391681 0.177236
H8    H     H_    0.618613 0.222338 0.661326 0.172551
H9    H     H_    0.333644 0.777740 0.368959 0.192431
H10   H     H_    0.805685 0.313393 0.367974 0.208633
H11   H     H_    0.080798 0.109238 0.502546 0.196558
H12   H     H_    0.113327 0.669936 0.553883 0.186769
H13   H     H_    0.493682 0.643830 0.170885 0.223345
N1    N     N_R   0.523130 0.207800 0.519340 -0.119797
N2    N     N_R   0.476870 0.792180 0.480660 -0.175376
O1    O     O_R   0.506170 0.421690 0.658830 -0.568686
O2    O     O_2   0.743700 0.302795 0.865015 -0.306402
O3    O     O_3   0.848380 0.281944 0.043767 -0.494975
O4    O     O_2   0.526183 0.063955 0.824284 -0.157552
O5    O     O_2   0.588057 0.883529 0.756659 -0.264331
O6    O     O_3   0.760273 0.034854 0.777082 -0.421831
O7    O     O_2   0.754824 0.785617 0.443244 -0.278991
O8    O     O_2   0.792361 0.931108 0.572723 -0.289765
O9    O     O_3   0.728306 0.737632 0.641429 -0.544271
O10   O     O_2   0.216003 0.371896 0.705503 -0.254350
O11   O     O_2   0.077939 0.212484 0.726703 -0.234493
O12   O     O_R   0.491330 0.609320 0.646410 -0.599844
O13   O     O_3   0.294178 0.177230 0.641417 -0.522387
O14   O     O_R   0.690660 0.406170 0.506210 -0.638953
O15   O     O_R   0.675810 0.593790 0.493790 -0.522906
O16   O     O_R   0.508670 0.390680 0.353590 -0.604799
O17   O     O_R   0.493830 0.578310 0.341170 -0.622621
O18   O     O_R   0.324190 0.406210 0.506210 -0.589978
O19   O     O_R   0.309340 0.593830 0.493790 -0.645231
O20   O     O_2   0.662220 0.160094 0.980777 -0.138394
S1    S     S_3+6 0.714884 0.275675 0.975876 0.119545
S2    S     S_3+6 0.610588 0.005730 0.747277 0.133669
S3    S     S_3+6 0.712433 0.830940 0.547534 0.075431
S4    S     S_3+6 0.172919 0.264154 0.655855 0.091694
Zn1   Zn    Zn3+2 0.509910 0.374720 0.508290 1.047469
Zn2   Zn    Zn3+2 0.490090 0.625280 0.491710 1.051563

loop_
_geom_bond_atom_site_label_1
_geom_bond_atom_site_label_2
_ccdc_geom_bond_type
C13   S3    S    
C18   H8    S    
Br5   C32   S    
C22   C24   A    
Br1   C3    S    
C2    C31   A    
C14   C15   A    
H4    O9    S    
N1    Zn1   S    
C13   N2    A    
O9    S3    S    
C21   C22   A    
O13   S4    S    
C12   C21   A    
C8    C30   A    
C25   C26   A    
O11   S4    D    
C28   H12   S    
C10   C11   A    
C13   C14   A    
C3    C31   A    
C1    O12   A    
Br4   C8    S    
C6    C32   A    
C4    O14   A    
C17   H7    S    
H5    O13   S    
C18   C19   A    
C20   O19   A    
C2    H6    S    
C20   C29   S    
C8    C9    A    
O18   Zn1   S    
O10   S4    D    
O17   Zn2   S    
O15   Zn2   S    
N2    Zn2   S    
C10   C15   A    
H2    O3    S    
O4    S2    D    
C24   H11   S    
C9    S1    S    
C23   C27   A    
H3    O6    S    
C5    C9    A    
C11   H9    S    
C16   O17   A    
O5    S2    D    
O1    Zn1   S    
C4    O15   A    
C24   C25   A    
O2    S1    D    
C25   S4    S    
C18   N1    A    
C28   C29   A    
C2    C32   A    
C26   C29   A    
C7    C30   A    
Br2   C10   S    
C21   H10   S    
C15   C17   A    
C27   H1    S    
C16   O16   A    
C12   C26   A    
C1    O1    A    
O7    S3    D    
O6    S2    S    
O16   Zn1   S    
O14   Zn1   S    
C12   C23   A    
O12   Zn2   S    
C11   N2    A    
O20   S1    D    
C7    H13   S    
C6    C7    A    
C16   C30   S    
O8    S3    D    
C27   C28   A    
Br3   C22   S    
C14   C19   A    
C19   S2    S    
C1    C31   S    
C5    C6    A    
O3    S1    S    
C3    C5    A    
C20   O18   A    
O19   Zn2   S    
C4    C23   S    
C17   N1    A    
