data_mof_unit_29820.cif
_audit_creation_date              2012-12-10T16:48:46-0500
_audit_creation_method            fapswitch 2.2
_symmetry_space_group_name_H-M    P1
_symmetry_Int_Tables_number       1
_space_group_crystal_system       triclinic
_cell_length_a                    7.753685
_cell_length_b                    8.669555
_cell_length_c                    10.544739
_cell_angle_alpha                 88.827931
_cell_angle_beta                  97.58208
_cell_angle_gamma                 93.377562
_cell_volume                      701.352414972

loop_
_atom_site_label
_atom_site_type_symbol
_atom_type_description
_atom_site_fract_x
_atom_site_fract_y
_atom_site_fract_z
_atom_type_partial_charge
C1    C     C_R   0.542149 0.794900 0.492211 0.893944
C2    C     C_2   0.429887 0.044215 0.506826 -0.028889
C3    C     C_3   0.851758 0.669691 0.129027 -0.759380
C4    C     C_3   0.366117 0.866630 0.913689 -0.804724
C5    C     C_3   0.602365 0.079580 0.258786 -0.785172
C6    C     C_3   0.124489 0.965225 0.502728 -0.718955
C7    C     C_R   0.454097 0.206123 0.499532 0.917768
C8    C     C_R   0.571383 0.502336 0.737140 0.952167
C9    C     C_R   0.431773 0.514636 0.262922 0.921065
C10   C     C_2   0.610440 0.529057 0.873543 -0.459317
C11   C     C_2   0.406191 0.549189 0.126969 -0.473264
C12   C     C_2   0.517729 0.626696 0.932209 0.238805
C13   C     C_2   0.536030 0.622668 0.071078 0.233212
C14   C     C_2   0.549768 0.956210 0.463977 -0.030544
H1    H     H_    0.288311 0.502422 0.070004 0.133436
H2    H     H_    0.261615 0.924910 0.852295 0.230972
H3    H     H_    0.490139 0.938067 0.915363 0.250260
H4    H     H_    0.327934 0.857254 0.011609 0.236617
H5    H     H_    0.779709 0.951864 0.378282 0.230213
H6    H     H_    0.657475 0.199537 0.248998 0.265254
H7    H     H_    0.457786 0.080626 0.247088 0.224009
H8    H     H_    0.639920 0.011441 0.179965 0.232535
H9    H     H_    0.289645 0.044058 0.660223 0.220369
H10   H     H_    0.031812 0.906150 0.562055 0.223594
H11   H     H_    0.129679 0.894105 0.416980 0.243715
H12   H     H_    0.712052 0.464544 0.927789 0.136632
H13   H     H_    0.074902 0.079371 0.471559 0.232231
H14   H     H_    0.986092 0.384211 0.406260 0.188206
H15   H     H_    0.013864 0.615331 0.594045 0.191544
H16   H     H_    0.660061 0.744664 0.231870 0.248034
H17   H     H_    0.947580 0.743459 0.192087 0.227255
H18   H     H_    0.879724 0.688918 0.029213 0.238239
H19   H     H_    0.868114 0.546893 0.157924 0.242047
H20   H     H_    0.266915 0.652870 0.845266 0.233606
N1    N     N_2   0.940600 0.458860 0.467170 -0.171630
N2    N     N_2   0.059400 0.541140 0.532830 -0.172666
N3    N     N_2   0.677083 0.711859 0.141390 -0.298594
N4    N     N_2   0.384852 0.715153 0.863386 -0.268821
N5    N     N_2   0.672845 0.015939 0.382151 -0.303335
N6    N     N_2   0.294812 0.984025 0.577558 -0.278351
O1    O     O_R   0.391630 0.738350 0.508060 -0.573696
O2    O     O_R   0.608370 0.261650 0.491940 -0.584870
O3    O     O_R   0.674540 0.711990 0.487010 -0.654186
O4    O     O_R   0.325460 0.288010 0.512990 -0.634621
O5    O     O_R   0.411370 0.508250 0.688780 -0.600888
O6    O     O_R   0.588630 0.491750 0.311220 -0.606504
O7    O     O_R   0.694270 0.481880 0.667740 -0.617153
O8    O     O_R   0.305730 0.518120 0.332260 -0.620521
Zn1   Zn    Zn3+2 0.311100 0.517600 0.514050 0.934638
Zn2   Zn    Zn3+2 0.688900 0.482400 0.485950 0.925718

loop_
_geom_bond_atom_site_label_1
_geom_bond_atom_site_label_2
_ccdc_geom_bond_type
O4    Zn1   S    
C4    H2    S    
N2    Zn1   S    
O3    Zn2   S    
C9    C11   S    
O6    Zn2   S    
C13   N3    S    
N1    N2    D    
O5    Zn1   S    
C6    H10   S    
C10   H12   S    
N1    Zn2   S    
C8    O7    A    
C4    H4    S    
C9    O6    A    
C5    H6    S    
H16   N3    S    
C7    O4    A    
C3    H17   S    
C11   C13   D    
H15   N2    S    
C10   C12   D    
O2    Zn2   S    
C4    H3    S    
H5    N5    S    
O1    Zn1   S    
O8    Zn1   S    
C4    N4    S    
O7    Zn2   S    
C5    N5    S    
C12   N4    S    
C3    H18   S    
C2    C14   D    
C6    N6    S    
C6    H11   S    
C3    H19   S    
H9    N6    S    
C2    N6    S    
C5    H7    S    
C12   C13   S    
C3    N3    S    
C9    O8    A    
C8    C10   S    
C7    O2    A    
C1    O1    A    
C8    O5    A    
C1    C14   S    
C2    C7    S    
C14   N5    S    
H20   N4    S    
C11   H1    S    
C1    O3    A    
C5    H8    S    
C6    H13   S    
H14   N1    S    
