data_mof_unit_7405.cif
_audit_creation_date              2012-12-11T16:08:53-0500
_audit_creation_method            fapswitch 2.2
_symmetry_space_group_name_H-M    P1
_symmetry_Int_Tables_number       1
_space_group_crystal_system       triclinic
_cell_length_a                    12.986541
_cell_length_b                    13.336758
_cell_length_c                    27.716718
_cell_angle_alpha                 94.59024
_cell_angle_beta                  90.278132
_cell_angle_gamma                 119.202593
_cell_volume                      4171.58736652

loop_
_atom_site_label
_atom_site_type_symbol
_atom_type_description
_atom_site_fract_x
_atom_site_fract_y
_atom_site_fract_z
_atom_type_partial_charge
C1    C     C_R   0.627890 0.897041 0.426664 0.592690
C2    C     C_R   0.103045 0.730801 0.307427 0.041485
C3    C     C_R   0.069107 0.707073 0.206438 0.022105
C4    C     C_R   0.601497 0.223114 0.440976 0.538325
C5    C     C_R   0.007946 0.611848 0.232555 -0.051974
C6    C     C_R   0.023549 0.621476 0.283010 0.323416
C7    C     C_R   0.049156 0.694686 0.156910 -0.043984
C8    C     C_R   0.100946 0.790471 0.130043 0.012406
C9    C     C_R   0.235052 0.954851 0.355041 0.224743
C10   C     C_R   0.230555 0.940882 0.304123 -0.009068
C11   C     C_R   0.160892 0.829028 0.280475 -0.065168
C12   C     C_R   0.686196 0.432397 0.238266 0.217583
C13   C     C_R   0.297175 0.033682 0.276270 -0.049387
C14   C     C_R   0.281897 0.021568 0.225810 0.312053
C15   C     C_R   0.202849 0.913176 0.202512 0.065824
C16   C     C_R   0.266595 0.875805 0.426588 0.564694
C17   C     C_R   0.145182 0.816360 0.229853 0.021676
C18   C     C_R   0.178466 0.899510 0.152358 -0.086489
C19   C     C_R   0.203841 0.857184 0.379989 0.043729
C20   C     C_R   0.749193 0.950130 0.353715 0.251684
C21   C     C_R   0.761580 0.930220 0.304376 0.010262
C22   C     C_R   0.760339 0.919287 0.203834 0.038434
C23   C     C_R   0.677577 0.415763 0.287638 -0.024696
C24   C     C_R   0.860722 0.001553 0.231131 -0.096922
C25   C     C_R   0.865224 0.003549 0.281107 0.240451
C26   C     C_R   0.764068 0.911379 0.154222 -0.025316
C27   C     C_R   0.680420 0.812087 0.126405 0.006444
C28   C     C_R   0.627031 0.899075 0.565086 0.557226
C29   C     C_R   0.572277 0.760703 0.350716 0.209864
C30   C     C_R   0.566173 0.757615 0.299749 -0.034302
C31   C     C_R   0.662277 0.842236 0.276742 -0.045096
C32   C     C_R   0.465626 0.675017 0.271404 -0.027932
C33   C     C_R   0.461750 0.672432 0.220660 0.300980
C34   C     C_R   0.657931 0.311451 0.303184 -0.067878
C35   C     C_R   0.563739 0.748686 0.197430 0.084019
C36   C     C_R   0.661482 0.836903 0.226044 0.069909
C37   C     C_R   0.576079 0.734658 0.147089 -0.044767
C38   C     C_R   0.653671 0.864903 0.377580 0.002416
C39   C     C_R   0.738774 0.289367 0.655009 0.266038
C40   C     C_R   0.602405 0.224975 0.579378 0.565926
C41   C     C_R   0.746288 0.300692 0.706508 -0.020075
C42   C     C_R   0.757045 0.319850 0.808930 -0.001306
C43   C     C_R   0.843094 0.305165 0.783312 0.257731
C44   C     C_R   0.840468 0.302898 0.732759 -0.120625
C45   C     C_R   0.674773 0.342768 0.203870 -0.021141
C46   C     C_R   0.770541 0.350004 0.859043 -0.119763
C47   C     C_R   0.681406 0.359393 0.883606 -0.044254
C48   C     C_R   0.550018 0.287008 0.656928 -0.166978
C49   C     C_R   0.558049 0.300437 0.707203 -0.045215
C50   C     C_R   0.654206 0.304163 0.732326 0.000573
C51   C     C_R   0.470166 0.310298 0.732393 -0.102807
C52   C     C_R   0.272304 0.879760 0.563428 0.557820
C53   C     C_R   0.475247 0.323642 0.782881 0.261584
C54   C     C_R   0.565796 0.316891 0.808960 -0.005615
C55   C     C_R   0.659060 0.313710 0.783353 -0.057900
C56   C     C_1   0.688019 0.362965 0.153143 0.025797
C57   C     C_R   0.570923 0.318871 0.859785 0.234936
C58   C     C_R   0.635763 0.275328 0.630396 0.024438
C59   C     C_1   0.228616 0.866202 0.611097 0.057192
C60   C     C_R   0.216760 0.771613 0.727801 0.250955
C61   C     C_R   0.186963 0.753916 0.776811 0.212252
C62   C     C_R   0.149196 0.916481 0.781351 -0.120706
C63   C     C_R   0.161831 0.922730 0.731640 -0.161939
C64   C     C_1   0.632376 0.270057 0.395164 -0.025225
C65   C     C_R   0.194147 0.850227 0.704668 -0.018869
C66   C     C_R   0.160609 0.832307 0.804118 -0.013471
C67   C     C_1   0.647648 0.294278 0.353881 -0.054455
C68   C     C_1   0.135678 0.821447 0.854748 0.060363
C69   C     C_1   0.207474 0.859227 0.653335 0.027963
C70   C     C_1   0.106422 0.802118 0.895700 0.081892
C71   C     C_1   0.641510 0.867410 0.611829 0.016045
C72   C     C_R   0.647780 0.917229 0.738169 -0.048138
C73   C     C_R   0.647912 0.903988 0.787699 -0.041057
C74   C     C_R   0.649922 0.724028 0.769441 -0.070200
C75   C     C_R   0.649854 0.737299 0.719866 -0.103024
C76   C     C_R   0.642571 0.221078 0.269242 -0.135340
C77   C     C_R   0.649741 0.834450 0.704162 0.054577
C78   C     C_1   0.700681 0.390971 0.112320 0.037529
C79   C     C_R   0.649701 0.807702 0.803477 0.062807
C80   C     C_1   0.662727 0.799354 0.854371 0.005369
C81   C     C_1   0.647602 0.848978 0.653330 -0.016782
C82   C     C_1   0.681829 0.790717 0.896015 0.043776
C83   C     C_R   0.062322 0.770247 0.079534 0.554052
C84   C     C_R   0.716441 0.440250 0.066943 0.563181
C85   C     C_R   0.719138 0.783745 0.080215 0.550656
C86   C     C_R   0.057078 0.766817 0.941531 0.558607
C87   C     C_R   0.708671 0.430401 0.930179 0.571512
C88   C     C_R   0.650228 0.235508 0.219538 0.231993
C89   C     C_R   0.131217 0.745194 0.357734 0.250158
C90   C     C_R   0.716166 0.776276 0.943083 0.550584
C91   C     C_3   0.331207 0.204301 0.208266 -0.055706
C92   C     C_3   0.317648 0.153729 0.376319 -0.004628
C93   C     C_3   0.784733 0.135209 0.363847 -0.034807
C94   C     C_3   0.849026 0.206760 0.624982 -0.060633
C95   C     C_3   0.126332 0.583172 0.384567 -0.000727
C96   C     C_3   0.953644 0.427856 0.291431 -0.140384
Cr1   Cr    Cr6+3 0.416430 0.829200 0.492370 1.115213
Cr2   Cr    Cr6+3 0.674630 0.087020 0.504170 1.058552
Cr3   Cr    Cr6+3 0.408920 0.083740 0.503490 1.054455
Cr4   Cr    Cr6+3 0.914010 0.832750 0.013970 1.080396
Cr5   Cr    Cr6+3 0.922310 0.578600 0.003000 1.093740
Cr6   Cr    Cr6+3 0.656280 0.574630 0.003870 1.136661
H1    H     H_    0.624142 0.139191 0.281609 0.137909
H2    H     H_    0.472485 0.279693 0.638468 0.150456
H3    H     H_    0.125881 0.974638 0.801789 0.193820
H4    H     H_    0.148047 0.985511 0.714282 0.151369
H5    H     H_    0.646822 0.992357 0.726386 0.117770
H6    H     H_    0.648560 0.969567 0.813626 0.151070
H7    H     H_    0.652106 0.649539 0.781277 0.140520
H8    H     H_    0.650189 0.672250 0.693922 0.122999
H9    H     H_    0.684918 0.483553 0.314100 0.215028
H10   H     H_    0.987202 0.610035 0.139400 0.147400
H11   H     H_    0.944418 0.530478 0.213393 0.106913
H12   H     H_    0.367096 0.114684 0.292324 0.091602
H13   H     H_    0.217599 0.972499 0.130834 0.172343
H14   H     H_    0.235746 0.176350 0.202459 0.157437
H15   H     H_    0.380024 0.269343 0.182512 0.193720
H16   H     H_    0.364175 0.247684 0.245372 0.146149
H17   H     H_    0.402085 0.153653 0.371062 0.084170
H18   H     H_    0.328036 0.207852 0.410458 0.178719
H19   H     H_    0.297027 0.194482 0.347136 0.178503
H20   H     H_    0.688505 0.100184 0.368515 0.078982
H21   H     H_    0.804223 0.155253 0.325752 0.103003
H22   H     H_    0.833208 0.217294 0.387392 0.172379
H23   H     H_    0.842126 0.975840 0.138266 0.158350
H24   H     H_    0.041470 0.255259 0.295767 0.325750
H25   H     H_    0.143543 0.476930 0.204117 0.357894
H26   H     H_    0.789689 0.210318 0.140444 0.338187
H27   H     H_    0.517004 0.570076 0.446561 0.365909
H28   H     H_    0.773542 0.128578 0.638028 0.103912
H29   H     H_    0.931780 0.225113 0.644637 0.135120
H30   H     H_    0.861441 0.187892 0.586500 0.189308
H31   H     H_    0.095317 0.353372 0.861538 0.403728
H32   H     H_    0.511715 0.118839 0.914735 0.340520
H33   H     H_    0.294691 0.463980 0.786109 0.440041
H34   H     H_    0.938872 0.059740 0.213216 0.140811
H35   H     H_    0.389520 0.620510 0.713317 0.381953
H36   H     H_    0.573431 0.505017 0.158140 0.357633
H37   H     H_    0.061680 0.508377 0.742234 0.345744
H38   H     H_    0.180611 0.591506 0.352513 0.140752
H39   H     H_    0.055061 0.492285 0.383584 0.157227
H40   H     H_    0.179160 0.598271 0.418474 0.190389
H41   H     H_    0.045023 0.444085 0.285930 0.142359
H42   H     H_    0.897188 0.386511 0.257795 0.111314
H43   H     H_    0.916199 0.364877 0.318840 0.144251
H44   H     H_    0.510519 0.659897 0.124783 0.189399
H45   H     H_    0.388025 0.614938 0.288828 0.207428
H46   H     H_    0.852606 0.373503 0.878547 0.225287
H47   H     H_    0.911202 0.299075 0.714328 0.180740
H48   H     H_    0.399468 0.312534 0.712399 0.170006
O1    O     O_R   0.296680 0.802170 0.437540 -0.511602
O2    O     O_R   0.637200 0.461990 0.052510 -0.485178
O3    O     O_R   0.664790 0.681920 0.057970 -0.496060
O4    O     O_R   0.525380 0.838530 0.443500 -0.449351
O5    O     O_R   0.815840 0.852920 0.961840 -0.495752
O6    O     O_R   0.012100 0.822630 0.963670 -0.496618
O7    O     O_R   0.037010 0.668460 0.953040 -0.463829
O8    O     O_R   0.813390 0.478970 0.949660 -0.507095
O9    O     O_R   0.632250 0.456930 0.945520 -0.434795
O10   O     O_R   0.660200 0.677230 0.958780 -0.476468
O11   O     O_3   0.830870 0.661990 0.006950 -0.284733
O12   O     O_R   0.662610 0.183990 0.557860 -0.474424
O13   O     O_R   0.702130 0.995190 0.446810 -0.463541
O14   O     O_R   0.661770 0.181390 0.458760 -0.502987
O15   O     O_R   0.499820 0.198480 0.455280 -0.520070
O16   O     O_R   0.311660 0.976250 0.449080 -0.470756
O17   O     O_R   0.297580 0.804960 0.544440 -0.467714
O18   O     O_R   0.526220 0.841130 0.542590 -0.462207
O19   O     O_R   0.703030 0.997990 0.553710 -0.546774
O20   O     O_3   0.353333 0.111245 0.198655 -0.553695
O21   O     O_3   0.222582 0.042732 0.380280 -0.487090
O22   O     O_3   0.823016 0.058253 0.377279 -0.460643
O23   O     O_R   0.500730 0.201280 0.562180 -0.522124
O24   O     O_2   0.011581 0.031918 0.356309 -0.136695
O25   O     O_2   0.099500 0.089853 0.278685 -0.346792
O26   O     O_3   0.034515 0.221732 0.326996 -0.504724
O27   O     O_2   0.302018 0.639972 0.151063 -0.279183
O28   O     O_2   0.335922 0.477711 0.162185 -0.268871
O29   O     O_3   0.215349 0.524537 0.225527 -0.575005
O30   O     O_2   0.570983 0.007876 0.201864 -0.274093
O31   O     O_2   0.551464 0.107396 0.135038 -0.221873
O32   O     O_3   0.760695 0.141873 0.158976 -0.546548
O33   O     O_2   0.373685 0.614341 0.390957 -0.334148
O34   O     O_R   0.312500 0.978850 0.548170 -0.506267
O35   O     O_2   0.481766 0.530669 0.347527 -0.275013
O36   O     O_3   0.567534 0.642775 0.431879 -0.501571
O37   O     O_3   0.835874 0.306242 0.628742 -0.550503
O38   O     O_2   0.870268 0.167717 0.840925 -0.303107
O39   O     O_2   0.006276 0.235493 0.775195 -0.254740
O40   O     O_3   0.040007 0.378861 0.850322 -0.430685
O41   O     O_2   0.352581 0.133138 0.856609 -0.278424
O42   O     O_2   0.392593 0.295173 0.916459 -0.139698
O43   O     O_3   0.484544 0.167430 0.933329 -0.498213
O44   O     O_2   0.272006 0.276202 0.824845 -0.187757
O45   O     O_3   0.499990 0.999990 0.500010 -0.286477
O46   O     O_2   0.448425 0.460101 0.852968 -0.246370
O47   O     O_3   0.348946 0.442214 0.769289 -0.522139
O48   O     O_2   0.198789 0.598676 0.665337 -0.255281
O49   O     O_2   0.377554 0.785412 0.663430 -0.310629
O50   O     O_3   0.362362 0.665992 0.734155 -0.440667
O51   O     O_2   0.721512 0.646432 0.263236 -0.245550
O52   O     O_2   0.792790 0.614744 0.185132 -0.346339
O53   O     O_3   0.566582 0.525019 0.192710 -0.511926
O54   O     O_2   0.279439 0.655370 0.830183 -0.195226
O55   O     O_2   0.068684 0.588853 0.836747 -0.276503
O56   O     O_R   0.820790 0.857990 0.068830 -0.515815
O57   O     O_3   0.133294 0.518529 0.759699 -0.418690
O58   O     O_3   0.074743 0.655373 0.386928 -0.516153
O59   O     O_3   0.951583 0.529346 0.309044 -0.527424
O60   O     O_R   0.016700 0.827330 0.062850 -0.495707
O61   O     O_R   0.041970 0.673520 0.060040 -0.499324
O62   O     O_R   0.817980 0.483660 0.048840 -0.505440
S1    S     S_3+6 0.006324 0.085976 0.311523 0.049138
S2    S     S_3+6 0.167558 0.627950 0.802540 0.079312
S3    S     S_3+6 0.326962 0.576568 0.187832 0.000540
S4    S     S_3+6 0.628707 0.118432 0.177966 0.020343
S5    S     S_3+6 0.494028 0.632304 0.379910 0.016907
S6    S     S_3+6 0.941262 0.268559 0.812256 0.033468
S7    S     S_3+6 0.444577 0.227606 0.891171 0.089810
S8    S     S_3+6 0.384205 0.375248 0.809813 0.063978
S9    S     S_3+6 0.289273 0.703879 0.695923 0.042450
S10   S     S_3+6 0.696979 0.560889 0.220115 -0.012141

loop_
_geom_bond_atom_site_label_1
_geom_bond_atom_site_label_2
_ccdc_geom_bond_type
C15   C18   A    
C66   C68   S    
C63   C65   A    
C93   O22   S    
O54   S2    D    
C8    C83   S    
Cr6   O2    S    
O52   S10   D    
C35   C36   A    
C93   H22   S    
C14   O20   S    
C60   S9    S    
C74   H7    S    
Cr2   O13   S    
C33   S3    S    
C7    C8    A    
C39   C41   A    
C32   H45   S    
C53   C54   A    
C4    O15   A    
C96   H43   S    
C21   C31   A    
C12   C23   A    
C95   H38   S    
C72   C77   A    
C34   C67   S    
O35   S5    D    
O28   S3    D    
C5    C6    A    
O50   S9    S    
O25   S1    D    
C35   C37   A    
C92   H17   S    
C27   C37   A    
C3    C7    A    
C16   C19   S    
C52   O17   A    
C40   O23   A    
C89   O58   S    
C47   C57   A    
C92   O21   S    
C48   H2    S    
Cr3   O45   S    
C56   C78   T    
C7    H10   S    
O43   S7    S    
C42   C46   A    
Cr4   O60   S    
C27   C85   S    
O27   S3    D    
C22   C26   A    
Cr2   O12   S    
C46   C47   A    
Cr2   O19   S    
C61   C66   A    
C9    C19   A    
H32   O43   S    
C46   H46   S    
C51   H48   S    
C16   O16   A    
C49   C51   A    
C29   C38   A    
C85   O56   A    
C4    O14   A    
Cr4   O11   S    
O49   S9    D    
C37   H44   S    
C16   O1    A    
O47   S8    S    
C9    C10   A    
C76   C88   A    
C31   C36   A    
C13   H12   S    
Cr3   O16   S    
C39   O37   S    
Cr4   O6    S    
C76   H1    S    
C29   S5    S    
Cr5   O7    S    
O33   S5    D    
C13   C14   A    
O32   S4    S    
H27   O36   S    
C2    C6    A    
O51   S10   D    
C2    C11   A    
O40   S6    S    
O46   S8    D    
H31   O40   S    
Cr5   O62   S    
C73   C79   A    
O36   S5    S    
C40   C58   S    
C74   C75   A    
C62   C66   A    
C64   C67   T    
C52   O34   A    
O30   S4    D    
O48   S9    D    
H26   O32   S    
C93   H20   S    
C45   C56   S    
C80   C82   T    
C91   H14   S    
Cr6   O10   S    
C23   H9    S    
C62   H3    S    
Cr4   O56   S    
C12   C45   A    
C73   H6    S    
O44   S8    D    
C57   S7    S    
Cr1   O17   S    
C39   C58   A    
O57   S2    S    
Cr5   O61   S    
O53   S10   S    
C60   C61   A    
C51   C53   A    
C26   H23   S    
C47   C87   S    
C18   H13   S    
C2    C89   A    
C43   C44   A    
C40   O12   A    
C62   C63   A    
C19   C89   A    
C52   C59   S    
C42   C55   A    
C96   H42   S    
C20   C38   A    
H36   O53   S    
Cr3   O23   S    
H35   O50   S    
C77   C81   S    
C23   C34   A    
C45   C88   A    
C91   H15   S    
Cr1   O1    S    
C91   H16   S    
C94   H28   S    
Cr1   O4    S    
C24   C25   A    
C63   H4    S    
C75   C77   A    
Cr6   O3    S    
C12   S10   S    
Cr3   O34   S    
H37   O57   S    
C1    C38   S    
C59   C69   T    
C84   O2    A    
Cr4   O5    S    
C48   C49   A    
C20   O22   S    
C60   C65   A    
C95   H39   S    
C74   C79   A    
C94   H30   S    
C26   C27   A    
C41   C44   A    
C22   C24   A    
C9    O21   S    
C43   S6    S    
Cr5   O8    S    
O41   S7    D    
C70   C86   S    
C41   C50   A    
H24   O26   S    
O39   S6    D    
C61   S2    S    
C95   O58   S    
C15   C17   A    
C21   C25   A    
C54   C55   A    
C11   C17   A    
C75   H8    S    
C96   O59   S    
C88   S4    S    
C91   O20   S    
C5    H11   S    
C14   C15   A    
C94   H29   S    
C93   H21   S    
C72   C73   A    
C3    C5    A    
C10   C13   A    
Cr6   O9    S    
H33   O47   S    
Cr2   O14   S    
C84   O62   A    
C48   C58   A    
O38   S6    D    
Cr1   O18   S    
C22   C36   A    
C4    C64   S    
C44   H47   S    
C82   C90   S    
C87   O8    A    
C72   H5    S    
O24   S1    D    
H25   O29   S    
C32   C33   A    
Cr1   O45   S    
C25   S1    S    
C92   H18   S    
C85   O3    A    
C96   H41   S    
C30   C32   A    
C24   H34   S    
C30   C31   A    
C53   S8    S    
Cr6   O11   S    
C65   C69   S    
C50   C55   A    
C6    O59   S    
Cr5   O11   S    
C33   C35   A    
C87   O9    A    
Cr2   O45   S    
C3    C17   A    
O31   S4    D    
C94   O37   S    
C90   O10   A    
C1    O4    A    
C86   O7    A    
C8    C18   A    
O55   S2    D    
C83   O60   A    
C10   C11   A    
C28   O18   A    
C29   C30   A    
C79   C80   S    
C28   C71   S    
C78   C84   S    
C28   O19   A    
C20   C21   A    
C1    O13   A    
C95   H40   S    
C68   C70   T    
C49   C50   A    
C42   C43   A    
O29   S3    S    
O26   S1    S    
O42   S7    D    
Cr3   O15   S    
C90   O5    A    
C92   H19   S    
C83   O61   A    
C86   O6    A    
C34   C76   A    
C71   C81   T    
C54   C57   A    
