data_mof_unit_14666.cif
_audit_creation_date              2012-12-10T20:30:14-0500
_audit_creation_method            fapswitch 2.2
_symmetry_space_group_name_H-M    P1
_symmetry_Int_Tables_number       1
_space_group_crystal_system       triclinic
_cell_length_a                    9.893039
_cell_length_b                    10.642487
_cell_length_c                    13.12811
_cell_angle_alpha                 89.653742
_cell_angle_beta                  69.946301
_cell_angle_gamma                 88.226722
_cell_volume                      1297.7748024

loop_
_atom_site_label
_atom_site_type_symbol
_atom_type_description
_atom_site_fract_x
_atom_site_fract_y
_atom_site_fract_z
_atom_type_partial_charge
C1    C     C_R   0.498676 0.739763 0.499397 0.903129
C2    C     C_R   0.367075 0.506857 0.822425 -0.118542
C3    C     C_R   0.405625 0.939178 0.585384 0.106152
C4    C     C_R   0.419673 0.504498 0.704204 0.851402
C5    C     C_R   0.498944 0.871938 0.497790 -0.161794
C6    C     C_R   0.613112 0.931239 0.420111 -0.308773
C7    C     C_R   0.616532 0.061465 0.419162 0.479782
C8    C     C_R   0.508621 0.128845 0.500981 -0.214011
C9    C     C_R   0.411360 0.067219 0.587341 0.068134
C10   C     C_3   0.252178 0.085378 0.636866 -0.453600
C11   C     C_3   0.245031 0.943822 0.631499 -0.491156
C12   C     C_R   0.431946 0.511359 0.984516 0.086944
C13   C     C_R   0.894964 0.577557 0.568337 0.243281
C14   C     C_R   0.958713 0.416245 0.438988 -0.133296
C15   C     C_R   0.102579 0.416362 0.438839 -0.128866
C16   C     C_R   0.502191 0.260621 0.500082 0.908337
C17   C     C_R   0.037099 0.576654 0.569074 0.213282
C18   C     C_3   0.037307 0.716152 0.570520 -0.535785
C19   C     C_3   0.885618 0.717468 0.567934 -0.497705
C20   C     C_R   0.580007 0.500367 0.295951 0.844418
C21   C     C_R   0.759568 0.638617 0.023434 -0.203281
C22   C     C_R   0.628108 0.517176 0.179641 -0.066335
C23   C     C_R   0.454572 0.552762 0.878040 0.091185
C24   C     C_R   0.240239 0.445135 0.879156 -0.197598
C25   C     C_R   0.205930 0.420814 0.989009 -0.147489
C26   C     C_R   0.302240 0.450132 0.041035 -0.191976
C27   C     C_3   0.675584 0.167033 0.257219 0.089575
C28   C     C_3   0.707927 0.071012 0.164888 -0.370359
C29   C     C_3   0.667818 0.124596 0.070551 -0.942312
C30   C     C_R   0.539656 0.533707 0.029998 0.085921
C31   C     C_R   0.655948 0.612399 0.976102 0.177794
C32   C     C_R   0.664819 0.666549 0.877400 -0.260557
C33   C     C_R   0.565166 0.637414 0.828945 -0.204346
C34   C     C_R   0.535108 0.479652 0.127781 -0.257732
C35   C     C_R   0.744024 0.593024 0.126391 -0.208935
H1    H     H_    0.816614 0.622994 0.166654 0.156161
H2    H     H_    0.804739 0.757339 0.642692 0.194136
H3    H     H_    0.749690 0.730525 0.837254 0.142329
H4    H     H_    0.877743 0.755906 0.491133 0.225786
H5    H     H_    0.848003 0.699296 0.983308 0.137994
H6    H     H_    0.454671 0.412926 0.168896 0.138278
H7    H     H_    0.170544 0.411470 0.837755 0.156165
H8    H     H_    0.270583 0.426762 0.125885 0.130319
H9    H     H_    0.107412 0.373932 0.032944 0.145444
H10   H     H_    0.574037 0.682993 0.753171 0.159144
H11   H     H_    0.694659 0.877221 0.357724 0.163439
H12   H     H_    0.219104 0.122603 0.721097 0.198853
H13   H     H_    0.734800 0.253646 0.224468 0.164477
H14   H     H_    0.558739 0.194707 0.286728 0.102384
H15   H     H_    0.824519 0.044385 0.135614 0.231007
H16   H     H_    0.645674 0.985118 0.194910 0.218194
H17   H     H_    0.551092 0.150257 0.097724 0.263639
H18   H     H_    0.692028 0.053003 0.005029 0.266233
H19   H     H_    0.730764 0.209374 0.037517 0.267283
H20   H     H_    0.202891 0.135457 0.583034 0.219173
H21   H     H_    0.202857 0.898758 0.712447 0.196435
H22   H     H_    0.196341 0.915319 0.571274 0.214129
H23   H     H_    0.929961 0.350317 0.387966 0.166984
H24   H     H_    0.182096 0.350584 0.387575 0.144011
H25   H     H_    0.042480 0.751725 0.648413 0.197177
H26   H     H_    0.116293 0.754453 0.495402 0.222857
N1    N     N_R   0.856940 0.500860 0.500710 -0.110062
N2    N     N_R   0.142580 0.500820 0.500710 -0.103855
O1    O     O_R   0.385310 0.683210 0.499990 -0.611843
O2    O     O_R   0.614650 0.683240 0.500000 -0.627005
O3    O     O_R   0.328390 0.499940 0.653610 -0.612605
O4    O     O_R   0.557730 0.499980 0.653620 -0.606280
O5    O     O_R   0.385350 0.316760 0.500000 -0.635836
O6    O     O_R   0.614690 0.316790 0.500010 -0.582432
O7    O     O_R   0.442270 0.500020 0.346380 -0.609310
O8    O     O_R   0.671610 0.500060 0.346390 -0.618834
O9    O     O_3   0.725816 0.120985 0.339716 -0.644633
Zn1   Zn    Zn3+2 0.346870 0.499980 0.499990 0.934250
Zn2   Zn    Zn3+2 0.653130 0.500020 0.500010 0.951529

loop_
_geom_bond_atom_site_label_1
_geom_bond_atom_site_label_2
_ccdc_geom_bond_type
C27   H13   S    
C33   H10   S    
C35   H1    S    
C7    C8    A    
C22   C35   A    
C21   C31   A    
C12   C23   A    
C1    C5    S    
C28   C29   S    
C5    C6    A    
C28   H16   S    
C29   H19   S    
C14   N1    A    
C24   H7    S    
C18   C19   S    
C19   H2    S    
C28   H15   S    
C13   N1    A    
C8    C9    A    
C23   C33   A    
C1    O2    A    
O1    Zn1   S    
C20   O8    A    
C16   O5    A    
C32   H3    S    
C9    C10   S    
C8    C16   S    
C20   O7    A    
C34   H6    S    
C14   H23   S    
C25   H9    S    
C26   H8    S    
C22   C34   A    
C10   H12   S    
C30   C34   A    
C24   C25   A    
C7    O9    S    
C13   C19   S    
N2    Zn1   S    
C25   C26   A    
O3    Zn1   S    
O2    Zn2   S    
C12   C26   A    
C2    C4    S    
C3    C9    A    
C4    O4    A    
C31   C32   A    
O7    Zn1   S    
C17   C18   S    
O6    Zn2   S    
O4    Zn2   S    
C10   H20   S    
C19   H4    S    
C18   H25   S    
C20   C22   S    
C2    C24   A    
C1    O1    A    
C2    C23   A    
C6    H11   S    
C12   C30   A    
C15   H24   S    
C16   O6    A    
C3    C5    A    
O8    Zn2   S    
C18   H26   S    
C6    C7    A    
C21   C35   A    
C13   C17   A    
C32   C33   A    
O5    Zn1   S    
C17   N2    A    
C4    O3    A    
C30   C31   A    
C21   H5    S    
C29   H18   S    
C3    C11   S    
C10   C11   S    
C27   O9    S    
C27   C28   S    
C15   N2    A    
C14   C15   A    
N1    Zn2   S    
C11   H22   S    
C11   H21   S    
C27   H14   S    
C29   H17   S    
