data_mof_unit_37423.cif
_audit_creation_date              2012-12-10T17:23:42-0500
_audit_creation_method            fapswitch 2.2
_symmetry_space_group_name_H-M    P1
_symmetry_Int_Tables_number       1
_space_group_crystal_system       triclinic
_cell_length_a                    9.604408
_cell_length_b                    10.776989
_cell_length_c                    17.356812
_cell_angle_alpha                 92.681717
_cell_angle_beta                  85.295963
_cell_angle_gamma                 90.019005
_cell_volume                      1788.52119004

loop_
_atom_site_label
_atom_site_type_symbol
_atom_type_description
_atom_site_fract_x
_atom_site_fract_y
_atom_site_fract_z
_atom_type_partial_charge
C1    C     C_R   0.499599 0.737412 0.502626 0.789960
C2    C     C_R   0.343902 0.467296 0.774798 -0.207983
C3    C     C_R   0.427974 0.433256 0.146828 -0.151857
C4    C     C_R   0.421534 0.442703 0.226929 -0.255381
C5    C     C_R   0.652137 0.538966 0.221155 0.162131
C6    C     C_R   0.657271 0.527642 0.140350 -0.164153
C7    C     C_R   0.545289 0.476899 0.103264 0.144363
C8    C     C_2   0.440848 0.492966 0.979974 -0.227207
C9    C     C_2   0.553244 0.472804 0.018655 -0.221053
C10   C     C_R   0.532298 0.495166 0.265137 -0.039765
C11   C     C_R   0.335481 0.880111 0.625942 -0.187233
C12   C     C_R   0.480849 0.500955 0.649718 0.766771
C13   C     C_R   0.255878 0.949429 0.683414 -0.138622
C14   C     C_R   0.255796 0.078474 0.683316 -0.133580
C15   C     C_R   0.335239 0.139012 0.625716 -0.170035
C16   C     C_R   0.414991 0.070652 0.566010 0.100703
C17   C     C_R   0.415090 0.939394 0.566130 0.096439
C18   C     C_R   0.498969 0.871617 0.507848 -0.100214
C19   C     C_R   0.585389 0.932391 0.453186 -0.193036
C20   C     C_R   0.585323 0.060399 0.453070 -0.206001
C21   C     C_R   0.498842 0.129526 0.507617 -0.089090
C22   C     C_R   0.870798 0.334894 0.397165 -0.155074
C23   C     C_R   0.499633 0.262917 0.502278 0.769525
C24   C     C_R   0.950048 0.253346 0.347190 -0.209068
C25   C     C_R   0.093471 0.252399 0.347568 -0.212289
C26   C     C_R   0.158529 0.333214 0.397782 -0.144631
C27   C     C_R   0.082028 0.418203 0.449709 0.215828
C28   C     C_R   0.932534 0.418624 0.449552 0.207964
C29   C     C_R   0.919062 0.577537 0.548011 -0.057479
C30   C     C_R   0.066931 0.577561 0.547958 -0.062029
C31   C     C_R   0.519485 0.500483 0.350105 0.780671
C32   C     C_R   0.468796 0.502650 0.734075 -0.021940
C33   C     C_R   0.583156 0.539851 0.774526 -0.199342
C34   C     C_R   0.574076 0.539370 0.854630 -0.148126
C35   C     C_R   0.451157 0.499119 0.895435 0.191549
C36   C     C_R   0.335228 0.465752 0.855217 -0.172321
Cu1   Cu    Cu3+1 0.359340 0.500010 0.500010 0.928347
Cu2   Cu    Cu3+1 0.640660 0.499990 0.499990 0.932730
H1    H     H_    0.679417 0.570325 0.744317 0.145726
H2    H     H_    0.747518 0.561260 0.105847 0.123242
H3    H     H_    0.650903 0.880198 0.409232 0.146956
H4    H     H_    0.335892 0.780347 0.630023 0.138572
H5    H     H_    0.195495 0.902818 0.728830 0.131765
H6    H     H_    0.195389 0.132032 0.728664 0.132056
H7    H     H_    0.335300 0.239345 0.629622 0.150981
H8    H     H_    0.650791 0.105790 0.409024 0.137453
H9    H     H_    0.858147 0.641127 0.587404 0.134852
H10   H     H_    0.761794 0.328473 0.391910 0.195505
H11   H     H_    0.899495 0.190467 0.307811 0.146635
H12   H     H_    0.329747 0.407403 0.259013 0.159417
H13   H     H_    0.155188 0.188774 0.308460 0.148531
H14   H     H_    0.268958 0.325055 0.392952 0.194283
H15   H     H_    0.116315 0.641164 0.587299 0.132945
H16   H     H_    0.655823 0.459922 0.988150 0.142826
H17   H     H_    0.239037 0.436271 0.885959 0.120889
H18   H     H_    0.341768 0.390554 0.119169 0.133971
H19   H     H_    0.254105 0.438777 0.744524 0.146633
H20   H     H_    0.338359 0.505254 0.010812 0.145592
H21   H     H_    0.663046 0.571802 0.884163 0.120640
N1    N     N_R   0.852190 0.498790 0.499250 -0.199155
N2    N     N_R   0.148060 0.498710 0.499220 -0.199631
O1    O     O_R   0.381190 0.680360 0.500010 -0.575285
O2    O     O_R   0.618760 0.680340 0.500000 -0.576199
O3    O     O_R   0.367440 0.500030 0.613600 -0.598598
O4    O     O_R   0.605010 0.500010 0.613590 -0.578589
O5    O     O_R   0.381240 0.319660 0.500000 -0.602691
O6    O     O_R   0.618810 0.319640 0.499990 -0.587231
O7    O     O_R   0.394990 0.499990 0.386410 -0.595824
O8    O     O_R   0.632560 0.499970 0.386400 -0.597871
C37   C     C_3   0.772693 0.601493 0.257766 -0.836413
H22   H     H_    0.733516 0.678126 0.298862 0.232101
H23   H     H_    0.831258 0.532868 0.288311 0.252331
H24   H     H_    0.847669 0.642412 0.213898 0.214112

loop_
_geom_bond_atom_site_label_1
_geom_bond_atom_site_label_2
_ccdc_geom_bond_type
C17   C18   A    
Cu1   N2    S    
C24   C25   A    
C25   H13   S    
C16   C21   A    
C9    H16   S    
C26   H14   S    
C6    H2    S    
C12   O4    A    
C8    C35   S    
C22   H10   S    
C19   C20   A    
C29   N1    A    
C31   O8    A    
Cu1   O5    S    
C20   C21   A    
C37   H24   S    
C28   N1    A    
Cu1   O1    S    
C1    C18   S    
Cu2   O8    S    
C5    C10   A    
C36   H17   S    
C22   C28   A    
C13   C14   A    
C12   C32   S    
C11   C13   A    
C26   C27   A    
C29   C30   A    
C35   C36   A    
C29   H9    S    
Cu2   N1    S    
C5    C6    A    
C1    O2    A    
C23   O5    A    
C2    C32   A    
C24   H11   S    
Cu1   Cu2   S    
C33   C34   A    
C6    C7    A    
C3    C7    A    
C21   C23   S    
C31   O7    A    
C12   O3    A    
C30   H15   S    
C22   C24   A    
C2    H19   S    
C37   H22   S    
C16   C17   A    
C15   H7    S    
C4    C10   A    
C15   C16   A    
Cu1   O7    S    
C34   H21   S    
C13   H5    S    
Cu1   O3    S    
C2    C36   A    
Cu2   O6    S    
C1    O1    A    
C14   H6    S    
C34   C35   A    
C3    H18   S    
C30   N2    A    
C23   O6    A    
C27   C28   A    
C7    C9    S    
C14   C15   A    
C18   C19   A    
C37   H23   S    
C11   H4    S    
C27   N2    A    
C8    H20   S    
C25   C26   A    
Cu2   O2    S    
Cu2   O4    S    
C10   C31   S    
C33   H1    S    
C20   H8    S    
C3    C4    A    
C19   H3    S    
C32   C33   A    
C4    H12   S    
C8    C9    D    
C5    C37   S    
C11   C17   A    
