data_mof_unit_52920.cif
_audit_creation_date              2012-12-10T17:15:15-0500
_audit_creation_method            fapswitch 2.2
_symmetry_space_group_name_H-M    P1
_symmetry_Int_Tables_number       1
_space_group_crystal_system       triclinic
_cell_length_a                    10.160791
_cell_length_b                    10.849951
_cell_length_c                    12.937512
_cell_angle_alpha                 90.192897
_cell_angle_beta                  91.878357
_cell_angle_gamma                 93.17253
_cell_volume                      1423.31386789

loop_
_atom_site_label
_atom_site_type_symbol
_atom_type_description
_atom_site_fract_x
_atom_site_fract_y
_atom_site_fract_z
_atom_type_partial_charge
C1    C     C_R   0.448350 0.266729 0.490110 0.869045
C2    C     C_R   0.680058 0.500358 0.039078 -0.158465
C3    C     C_R   0.365053 0.595972 0.852926 0.332000
C4    C     C_R   0.671599 0.519466 0.146340 0.351543
C5    C     C_R   0.553930 0.466154 0.875148 0.380576
C6    C     C_R   0.430010 0.499609 0.123734 0.395724
C7    C     C_R   0.563228 0.503101 0.977645 -0.112236
C8    C     C_R   0.446478 0.534721 0.021891 -0.130244
C9    C     C_2   0.429720 0.131816 0.485393 -0.284371
C10   C     C_2   0.583328 0.850899 0.455513 -0.195289
C11   C     C_2   0.538068 0.068378 0.463745 -0.281148
C12   C     C_R   0.553882 0.730702 0.497852 0.918191
C13   C     C_2   0.562848 0.949871 0.514233 -0.102216
C14   C     C_2   0.239763 0.649536 0.010620 1.139207
C15   C     C_2   0.809027 0.492378 0.989605 1.156287
C16   C     C_2   0.571267 0.942426 0.629674 1.021776
C17   C     C_2   0.646377 0.121941 0.398244 1.080754
C18   C     C_2   0.582842 0.854425 0.340611 0.920500
C19   C     C_2   0.306610 0.070884 0.525109 1.056098
C20   C     C_2   0.867575 0.323368 0.557183 1.085943
C21   C     C_2   0.141595 0.659836 0.399300 1.111881
C22   C     C_2   0.074294 0.506631 0.520061 -0.007493
C23   C     C_2   0.928502 0.527125 0.509919 -0.047502
C24   C     C_R   0.475244 0.508226 0.698847 1.005149
C25   C     C_R   0.526066 0.498118 0.300889 0.984676
C26   C     C_R   0.544050 0.503167 0.189754 -0.290385
C27   C     C_R   0.461264 0.521725 0.809709 -0.280365
C28   C     C_R   0.347831 0.588233 0.960549 -0.143497
H1    H     H_    0.894702 0.611237 0.477492 0.243319
H2    H     H_    0.522360 0.195349 0.293440 0.327692
H3    H     H_    0.485932 0.810175 0.206194 0.378363
H4    H     H_    0.196656 0.913516 0.546147 0.384239
H5    H     H_    0.977130 0.180713 0.520120 0.394100
H6    H     H_    0.056630 0.823183 0.385435 0.368838
H7    H     H_    0.106695 0.442071 0.578154 0.192147
H8    H     H_    0.228428 0.260713 0.255975 0.405140
H9    H     H_    0.571673 0.227773 0.697893 0.408524
H10   H     H_    0.983693 0.697894 0.192608 0.390552
H11   H     H_    0.184323 0.875744 0.801739 0.414079
H12   H     H_    0.188322 0.768891 0.120045 0.377144
H13   H     H_    0.923238 0.544258 0.870820 0.400064
H14   H     H_    0.499514 0.990073 0.766710 0.402953
N1    N     N_2   0.162330 0.550370 0.457540 -0.174415
N2    N     N_2   0.837670 0.449630 0.542460 -0.190689
O1    O     O_R   0.567930 0.307680 0.508550 -0.633377
O2    O     O_2   0.228316 0.347332 0.052906 -0.212760
O3    O     O_3   0.315859 0.297094 0.236987 -0.578869
O4    O     O_2   0.752143 0.341598 0.801094 -0.263542
O5    O     O_2   0.625308 0.242086 0.937848 -0.208717
O6    O     O_3   0.514772 0.249069 0.755036 -0.520444
O7    O     O_2   0.782114 0.660165 0.302826 -0.333834
O8    O     O_2   0.878827 0.462551 0.268245 -0.213160
O9    O     O_3   0.926399 0.646205 0.144423 -0.494850
O10   O     O_2   0.353585 0.751458 0.689740 -0.299299
O11   O     O_2   0.149250 0.636864 0.735518 -0.281890
O12   O     O_R   0.432070 0.692320 0.491450 -0.563573
O13   O     O_3   0.234908 0.823569 0.849575 -0.509643
O14   O     O_2   0.126203 0.632556 0.977597 -0.517345
O15   O     O_R   0.268722 0.727787 0.095265 -0.756562
O16   O     O_2   0.890567 0.423674 0.024861 -0.459731
O17   O     O_R   0.835861 0.562491 0.901456 -0.736643
O18   O     O_2   0.653854 0.879932 0.671867 -0.566727
O19   O     O_R   0.484912 0.004972 0.689955 -0.744567
O20   O     O_2   0.760566 0.099715 0.419218 -0.518776
O21   O     O_R   0.619806 0.193412 0.311138 -0.711140
O22   O     O_2   0.680320 0.894742 0.296210 -0.514781
O23   O     O_R   0.351090 0.340020 0.481290 -0.571332
O24   O     O_R   0.472828 0.805959 0.283456 -0.735554
O25   O     O_2   0.229173 0.131490 0.571383 -0.580568
O26   O     O_R   0.279367 0.944280 0.510423 -0.747642
O27   O     O_2   0.800237 0.258516 0.613938 -0.565619
O28   O     O_R   0.966288 0.270336 0.501528 -0.767561
O29   O     O_2   0.207636 0.681259 0.323747 -0.531662
O30   O     O_R   0.059582 0.749797 0.433628 -0.823126
O31   O     O_R   0.648910 0.659980 0.518710 -0.600327
O32   O     O_R   0.590490 0.486480 0.665020 -0.578598
O33   O     O_R   0.409510 0.513520 0.334980 -0.548360
O34   O     O_R   0.373660 0.518820 0.637760 -0.578477
O35   O     O_R   0.626340 0.481180 0.362240 -0.565861
O36   O     O_2   0.181139 0.487244 0.193306 -0.217496
S1    S     S_3+6 0.283289 0.407960 0.150956 0.107332
S2    S     S_3+6 0.616755 0.321630 0.843203 0.093937
S3    S     S_3+6 0.816523 0.571708 0.219784 0.075117
S4    S     S_3+6 0.273939 0.702223 0.777612 0.061132
Zn1   Zn    Zn3+2 0.644780 0.478400 0.518200 1.094408
Zn2   Zn    Zn3+2 0.355220 0.521600 0.481800 1.122301

loop_
_geom_bond_atom_site_label_1
_geom_bond_atom_site_label_2
_ccdc_geom_bond_type
H9    O6    S    
C15   O16   D    
O1    Zn1   S    
C2    C7    A    
C24   C27   S    
H13   O17   S    
O10   S4    D    
C7    C8    A    
C22   H7    S    
C4    S3    S    
C25   O33   A    
C23   H1    S    
C3    C28   A    
C17   O20   D    
C18   O24   S    
H11   O13   S    
C21   O29   D    
H8    O3    S    
H5    O28   S    
C21   N1    S    
C9    C19   S    
C20   O27   D    
C16   O19   S    
O34   Zn2   S    
H12   O15   S    
C5    C27   A    
C16   O18   D    
C20   N2    S    
O31   Zn1   S    
H3    O24   S    
C14   O14   D    
C1    C9    S    
C5    C7    A    
C24   O32   A    
H4    O26   S    
C25   C26   S    
C21   O30   S    
C23   N2    D    
O5    S2    D    
O8    S3    D    
C2    C4    A    
C14   O15   S    
O2    S1    D    
O12   Zn2   S    
C22   N1    D    
C15   O17   S    
O13   S4    S    
C2    C15   S    
C9    C11   D    
C12   O12   A    
C10   C12   S    
H6    O30   S    
C6    C8    A    
C24   O34   A    
O33   Zn2   S    
C8    C28   A    
C19   O25   D    
N2    Zn1   S    
O7    S3    D    
O35   Zn1   S    
O6    S2    S    
C11   C17   S    
O23   Zn2   S    
C25   O35   A    
N1    Zn2   S    
O36   S1    D    
C10   C13   D    
C4    C26   A    
C18   O22   D    
C17   O21   S    
O9    S3    S    
C3    C27   A    
C5    S2    S    
C11   C13   S    
C1    O1    A    
C6    C26   A    
H10   O9    S    
C10   C18   S    
O32   Zn1   S    
C1    O23   A    
O4    S2    D    
O3    S1    S    
H2    O21   S    
C12   O31   A    
C13   C16   S    
C3    S4    S    
C6    S1    S    
C22   C23   S    
C20   O28   S    
C19   O26   S    
C14   C28   S    
O11   S4    D    
H14   O19   S    
