data_mof_unit_53429.cif
_audit_creation_date              2012-12-10T18:33:33-0500
_audit_creation_method            fapswitch 2.2
_symmetry_space_group_name_H-M    P1
_symmetry_Int_Tables_number       1
_space_group_crystal_system       triclinic
_cell_length_a                    8.768365
_cell_length_b                    15.115057
_cell_length_c                    13.860009
_cell_angle_alpha                 89.964893
_cell_angle_beta                  96.760178
_cell_angle_gamma                 90.538175
_cell_volume                      1824.07528457

loop_
_atom_site_label
_atom_site_type_symbol
_atom_type_description
_atom_site_fract_x
_atom_site_fract_y
_atom_site_fract_z
_atom_type_partial_charge
C1    C     C_R   0.500736 0.329931 0.500039 0.801877
C2    C     C_R   0.498625 0.670153 0.499894 0.802540
C3    C     C_R   0.574007 0.567611 0.113424 -0.275501
C4    C     C_R   0.379824 0.459926 0.883110 -0.274771
C5    C     C_R   0.573756 0.565932 0.214885 0.082683
C6    C     C_R   0.382808 0.460041 0.781833 0.080626
C7    C     C_R   0.426211 0.434102 0.203978 0.086562
C8    C     C_R   0.616649 0.540353 0.799322 0.090738
C9    C     C_R   0.425620 0.432542 0.102445 -0.272880
C10   C     C_R   0.619373 0.540526 0.900990 -0.272649
C11   C     C_R   0.499704 0.500118 0.054684 0.126245
C12   C     C_R   0.499623 0.500172 0.945294 0.132047
C13   C     C_R   0.204581 0.498230 0.476556 0.851516
C14   C     C_R   0.795401 0.501932 0.523505 0.854037
C15   C     C_2   0.043183 0.478292 0.469945 -0.098787
C16   C     C_2   0.956943 0.521547 0.530492 -0.103687
C17   C     C_R   0.436274 0.094742 0.572241 -0.155536
C18   C     C_R   0.448108 0.904963 0.415002 -0.159047
C19   C     C_R   0.437308 0.186682 0.572973 -0.199278
C20   C     C_R   0.448381 0.813016 0.414734 -0.200739
C21   C     C_R   0.500158 0.233548 0.499688 -0.114000
C22   C     C_R   0.498584 0.766709 0.500012 -0.121471
C23   C     C_R   0.562266 0.187832 0.425780 -0.279005
C24   C     C_R   0.549406 0.813238 0.585411 -0.276918
C25   C     C_R   0.564250 0.095856 0.425988 0.615064
C26   C     C_R   0.552066 0.905220 0.585373 0.613549
C27   C     C_R   0.500809 0.048718 0.499339 0.011471
C28   C     C_R   0.500767 0.951674 0.500017 0.012485
Cu1   Cu    Cu3+1 0.500000 0.499990 0.596430 0.928566
Cu2   Cu    Cu3+1 0.500000 0.500010 0.403570 0.925899
H1    H     H_    0.384273 0.059479 0.628268 0.188931
H2    H     H_    0.405726 0.939680 0.349002 0.188191
H3    H     H_    0.386969 0.221109 0.629848 0.162426
H4    H     H_    0.407429 0.778185 0.348285 0.168021
H5    H     H_    0.612026 0.223340 0.368988 0.172182
H6    H     H_    0.590035 0.778474 0.651728 0.179225
H7    H     H_    0.630586 0.622412 0.081663 0.136469
H8    H     H_    0.282708 0.429353 0.911835 0.130755
H9    H     H_    0.632386 0.617996 0.258551 0.127564
H10   H     H_    0.290307 0.428273 0.735609 0.121909
H11   H     H_    0.367664 0.381995 0.238984 0.125129
H12   H     H_    0.708932 0.572527 0.767009 0.121646
H13   H     H_    0.368915 0.377801 0.062285 0.135577
H14   H     H_    0.716303 0.571255 0.944160 0.130730
N1    N     N_R   0.500000 0.500020 0.258690 -0.175827
N2    N     N_R   0.500000 0.499980 0.741310 -0.172968
O1    O     O_R   0.500010 0.371450 0.581430 -0.574834
O2    O     O_R   0.499990 0.628550 0.418570 -0.589128
O3    O     O_R   0.500010 0.371460 0.418560 -0.606550
O4    O     O_R   0.499990 0.628540 0.581440 -0.595027
O5    O     O_R   0.274840 0.499990 0.562640 -0.607595
O6    O     O_R   0.725160 0.500010 0.437360 -0.594980
O7    O     O_R   0.274840 0.500000 0.399770 -0.582855
O8    O     O_R   0.725160 0.500000 0.600230 -0.593076
C29   C     C_3   0.987315 0.397949 0.406914 -0.412365
C30   C     C_3   0.090224 0.316770 0.429003 -0.396683
C31   C     C_3   0.019698 0.233591 0.378936 -0.779716
H15   H     H_    0.909951 0.216241 0.407262 0.263104
H16   H     H_    0.998246 0.244015 0.299168 0.255971
H17   H     H_    0.100060 0.177502 0.393582 0.250369
H18   H     H_    0.203036 0.328740 0.402557 0.232871
H19   H     H_    0.108737 0.304933 0.508711 0.220895
H20   H     H_    0.869809 0.376005 0.417637 0.225964
H21   H     H_    0.986367 0.416258 0.329167 0.211347
C32   C     C_3   0.012906 0.601060 0.594806 -0.423132
C33   C     C_3   0.914209 0.683521 0.570987 -0.385575
C34   C     C_3   0.983727 0.765105 0.624966 -0.790972
H22   H     H_    0.995084 0.753709 0.704663 0.256402
H23   H     H_    0.098543 0.780684 0.602547 0.253695
H24   H     H_    0.907857 0.822759 0.607532 0.264903
H25   H     H_    0.903142 0.696690 0.491535 0.226996
H26   H     H_    0.798191 0.672261 0.592943 0.227830
H27   H     H_    0.008922 0.582604 0.672126 0.204646
H28   H     H_    0.132031 0.621777 0.587086 0.232705
F1    F     F_    0.631453 0.053136 0.356147 -0.675020
F2    F     F_    0.608154 0.948665 0.667886 -0.671779

loop_
_geom_bond_atom_site_label_1
_geom_bond_atom_site_label_2
_ccdc_geom_bond_type
C29   C30   S    
C1    C21   S    
Cu2   N1    S    
C24   H6    S    
Cu1   O1    S    
C7    N1    A    
C22   C24   A    
Cu2   O2    S    
C19   C21   A    
C24   C26   A    
C31   H16   S    
Cu1   O8    S    
C15   C16   D    
C32   H27   S    
C30   C31   S    
C2    O4    A    
C13   O5    A    
C14   O6    A    
C29   H20   S    
C2    C22   S    
C26   F2    S    
C4    C12   A    
C18   C20   A    
C20   H4    S    
C7    H11   S    
C33   C34   S    
C13   O7    A    
Cu1   O4    S    
Cu2   O7    S    
C33   H26   S    
C9    H13   S    
C10   H14   S    
C34   H22   S    
C17   C27   A    
C6    H10   S    
C18   C28   A    
C4    C6    A    
C19   H3    S    
C1    O1    A    
C31   H17   S    
C2    O2    A    
C5    N1    A    
C32   H28   S    
C34   H23   S    
C15   C29   S    
Cu1   Cu2   S    
C33   H25   S    
C29   H21   S    
C9    C11   A    
C10   C12   A    
C14   O8    A    
Cu2   O3    S    
C20   C22   A    
C23   H5    S    
C13   C15   S    
C17   H1    S    
C14   C16   S    
C18   H2    S    
Cu1   O5    S    
C7    C9    A    
C5    H9    S    
Cu2   O6    S    
C6    N2    A    
C8    H12   S    
C3    C5    A    
C11   C12   S    
C25   C27   A    
C26   C28   A    
Cu1   N2    S    
C34   H24   S    
C21   C23   A    
C31   H15   S    
C17   C19   A    
C30   H19   S    
C23   C25   A    
C8    N2    A    
C3    C11   A    
C3    H7    S    
C8    C10   A    
C32   C33   S    
C27   C28   S    
C30   H18   S    
C16   C32   S    
C25   F1    S    
C4    H8    S    
C1    O3    A    
