data_mof_unit_9013.cif
_audit_creation_date              2012-10-26T18:50:03-0400
_audit_creation_method            fapswitch 2.2
_symmetry_space_group_name_H-M    P1
_symmetry_Int_Tables_number       1
_space_group_crystal_system       triclinic
_cell_length_a                    10.847986
_cell_length_b                    13.005811
_cell_length_c                    11.629354
_cell_angle_alpha                 99.729065
_cell_angle_beta                  95.516408
_cell_angle_gamma                 90.200418
_cell_volume                      1609.33604725

loop_
_atom_site_label
_atom_site_type_symbol
_atom_type_description
_atom_site_fract_x
_atom_site_fract_y
_atom_site_fract_z
_atom_type_partial_charge
C1    C     C_R   0.498255 0.298938 0.478670 0.550026
C2    C     C_R   0.496452 0.860837 0.433252 -0.130326
C3    C     C_R   0.503225 0.031178 0.556264 0.048641
C4    C     C_R   0.496775 0.968821 0.443736 0.048641
C5    C     C_R   0.380191 0.404466 0.018836 -0.148162
C6    C     C_R   0.619809 0.595534 0.981163 -0.148162
C7    C     C_R   0.392095 0.413211 0.141693 0.053867
C8    C     C_R   0.607905 0.586789 0.858307 0.053867
C9    C     C_R   0.552094 0.540927 0.158793 0.045123
C10   C     C_R   0.447906 0.459072 0.841207 0.045122
C11   C     C_R   0.543628 0.534588 0.035405 -0.001456
C12   C     C_R   0.501745 0.701062 0.521330 0.550025
C13   C     C_R   0.456372 0.465412 0.964594 -0.001456
C14   C     C_R   0.261996 0.510639 0.499005 0.544161
C15   C     C_R   0.738003 0.489360 0.500995 0.544161
C16   C     C_R   0.138362 0.611203 0.701076 -0.124746
C17   C     C_R   0.861638 0.388797 0.298924 -0.124746
C18   C     C_R   0.093021 0.623990 0.810405 -0.110012
C19   C     C_R   0.906979 0.376009 0.189595 -0.110011
C20   C     C_R   0.981571 0.574863 0.823406 0.249002
C21   C     C_R   0.018429 0.425136 0.176593 0.249003
C22   C     C_R   0.912388 0.520573 0.724128 -0.044649
C23   C     C_R   0.502447 0.814357 0.533714 0.000059
C24   C     C_R   0.087612 0.479427 0.275872 -0.044648
C25   C     C_R   0.951074 0.516086 0.610143 -0.035569
C26   C     C_R   0.048926 0.483913 0.389857 -0.035569
C27   C     C_R   0.072732 0.549832 0.601693 -0.001442
C28   C     C_R   0.927267 0.450167 0.398307 -0.001441
C29   C     C_R   0.873965 0.477814 0.505211 -0.031468
C30   C     C_R   0.126035 0.522186 0.494789 -0.031468
C31   C     C_R   0.497552 0.185642 0.466286 0.000059
C32   C     C_R   0.490726 0.015394 0.343457 -0.137731
C33   C     C_R   0.509274 0.984606 0.656543 -0.137731
C34   C     C_R   0.491095 0.123446 0.354664 -0.137432
C35   C     C_R   0.508905 0.876554 0.645336 -0.137432
C36   C     C_R   0.503548 0.139163 0.566747 -0.130326
Cu1   Cu    Cu3+1 0.509250 0.507730 0.615930 0.925092
Cu2   Cu    Cu3+1 0.490750 0.492270 0.384070 0.925092
H1    H     H_    0.311964 0.350481 0.966824 0.116978
H2    H     H_    0.508444 0.186783 0.653213 0.119435
H3    H     H_    0.513559 0.841815 0.723945 0.127244
H4    H     H_    0.486441 0.158185 0.276055 0.127244
H5    H     H_    0.485755 0.968406 0.256718 0.102435
H6    H     H_    0.514245 0.031594 0.743282 0.102435
H7    H     H_    0.381243 0.405877 0.785906 0.126475
H8    H     H_    0.618757 0.594123 0.214094 0.126475
H9    H     H_    0.666982 0.634078 0.817391 0.141260
H10   H     H_    0.333018 0.365922 0.182609 0.141260
H11   H     H_    0.003797 0.379427 0.007914 0.337620
H12   H     H_    0.688036 0.649519 0.033176 0.116978
H13   H     H_    0.996203 0.620573 0.992086 0.337620
H14   H     H_    0.224526 0.651093 0.694741 0.141821
H15   H     H_    0.775473 0.348906 0.305259 0.141821
H16   H     H_    0.146509 0.669742 0.885187 0.101661
H17   H     H_    0.853491 0.330258 0.114813 0.101661
H18   H     H_    0.831918 0.478027 0.739740 0.165808
H19   H     H_    0.168082 0.521972 0.260259 0.165808
H20   H     H_    0.491556 0.813217 0.346787 0.119435
N1    N     N_R   0.523180 0.519350 0.790130 -0.240825
N2    N     N_R   0.476820 0.480650 0.209870 -0.240825
O1    O     O_R   0.506570 0.354460 0.582000 -0.508804
O2    O     O_3   0.936827 0.579425 0.931208 -0.710249
O3    O     O_R   0.493430 0.645540 0.418000 -0.508803
O4    O     O_R   0.490940 0.341410 0.386200 -0.513480
O5    O     O_R   0.509060 0.658590 0.613800 -0.513480
O6    O     O_R   0.327470 0.506520 0.597900 -0.502325
O7    O     O_R   0.672530 0.493480 0.402100 -0.502325
O8    O     O_R   0.311840 0.493460 0.402100 -0.518034
O9    O     O_R   0.688160 0.506540 0.597900 -0.518034
O10   O     O_3   0.063173 0.420575 0.068791 -0.710249

loop_
_geom_bond_atom_site_label_1
_geom_bond_atom_site_label_2
_ccdc_geom_bond_type
Cu1   O1    S    
C2    H20   S    
C15   C29   S    
Cu1   Cu2   S    
Cu1   O9    S    
C25   C27   A    
C20   C22   A    
C11   C13   A    
C12   O5    A    
C5    C13   A    
C34   H4    S    
C36   H2    S    
C21   O10   S    
C9    N2    A    
C15   O7    A    
Cu1   O6    S    
C10   H7    S    
C10   N1    A    
C14   O6    A    
C8    H9    S    
C9    H8    S    
C4    C32   A    
C7    H10   S    
C27   C30   A    
C25   C29   A    
C9    C11   A    
C12   C23   S    
Cu1   N1    S    
H13   O2    S    
C3    C36   A    
C14   C30   S    
C35   H3    S    
C2    C4    A    
C6    C8    A    
C16   C27   A    
C28   C29   A    
C33   C35   A    
C32   H5    S    
Cu2   O8    S    
C26   C30   A    
C18   H16   S    
C23   C35   A    
H11   O10   S    
C5    H1    S    
C8    N1    A    
C20   O2    S    
C15   O9    A    
C33   H6    S    
Cu2   N2    S    
C31   C34   A    
C3    C33   A    
C6    C11   A    
C3    C4    A    
C1    O4    A    
C17   H15   S    
C7    N2    A    
C1    C31   S    
C24   C26   A    
Cu2   O7    S    
C18   C20   A    
C16   C18   A    
Cu2   O3    S    
C21   C24   A    
C19   H17   S    
C2    C23   A    
C5    C7    A    
Cu2   O4    S    
C14   O8    A    
C31   C36   A    
C22   H18   S    
C17   C19   A    
C12   O3    A    
C17   C28   A    
C26   C28   A    
C10   C13   A    
C6    H12   S    
C16   H14   S    
Cu1   O5    S    
C32   C34   A    
C24   H19   S    
C19   C21   A    
C22   C25   A    
C1    O1    A    
