data_mof_unit_66644.cif
_audit_creation_date              2012-12-10T19:46:26-0500
_audit_creation_method            fapswitch 2.2
_symmetry_space_group_name_H-M    P1
_symmetry_Int_Tables_number       1
_space_group_crystal_system       triclinic
_cell_length_a                    10.893455
_cell_length_b                    10.950155
_cell_length_c                    10.439602
_cell_angle_alpha                 89.165402
_cell_angle_beta                  90.672683
_cell_angle_gamma                 89.306656
_cell_volume                      1244.97642494

loop_
_atom_site_label
_atom_site_type_symbol
_atom_type_description
_atom_site_fract_x
_atom_site_fract_y
_atom_site_fract_z
_atom_type_partial_charge
C1    C     C_R   0.497367 0.261586 0.500893 0.873014
C2    C     C_R   0.502633 0.738414 0.499107 0.873015
C3    C     C_R   0.871944 0.492023 0.502781 -0.084089
C4    C     C_R   0.128056 0.507977 0.497219 -0.084088
C5    C     C_R   0.944116 0.425610 0.594027 0.058280
C6    C     C_R   0.055884 0.574389 0.405973 0.058279
C7    C     C_R   0.165781 0.211477 0.235272 -0.329758
C8    C     C_R   0.834219 0.788525 0.764729 -0.329756
C9    C     C_R   0.244661 0.164924 0.330660 -0.166524
C10   C     C_R   0.755340 0.835078 0.669341 -0.166524
C11   C     C_R   0.364800 0.129968 0.300711 0.093948
C12   C     C_R   0.635200 0.870033 0.699289 0.093948
C13   C     C_R   0.406469 0.144266 0.174772 -0.149674
C14   C     C_R   0.593530 0.855732 0.825227 -0.149674
C15   C     C_R   0.327670 0.191715 0.079211 0.403333
C16   C     C_R   0.672329 0.808283 0.920789 0.403329
C17   C     C_R   0.207056 0.225933 0.108629 0.430880
C18   C     C_R   0.792943 0.774067 0.891372 0.430884
C19   C     C_R   0.448584 0.938210 0.395587 0.392779
C20   C     C_R   0.551415 0.061790 0.604414 0.392781
C21   C     C_R   0.504825 0.872029 0.497535 -0.212721
C22   C     C_R   0.495174 0.127971 0.502465 -0.212721
C23   C     C_R   0.261642 0.508046 0.498778 0.811382
C24   C     C_R   0.738358 0.491954 0.501222 0.811381
C25   C     C_R   0.558550 0.934464 0.600969 -0.077717
C26   C     C_R   0.441449 0.065536 0.399031 -0.077717
C27   C     C_1   0.499930 0.499956 0.071979 0.291921
C28   C     C_1   0.500070 0.500044 0.928021 0.291917
C29   C     C_R   0.092662 0.871543 0.226791 -0.245845
C30   C     C_R   0.907337 0.128459 0.773214 -0.245841
C31   C     C_R   0.083187 0.788109 0.328564 0.375987
C32   C     C_R   0.916813 0.211892 0.671439 0.375987
C33   C     C_R   0.104517 0.662358 0.309552 -0.153990
C34   C     C_R   0.895483 0.337643 0.690449 -0.153991
C35   C     C_R   0.144454 0.623245 0.187310 0.321826
C36   C     C_R   0.855545 0.376758 0.812690 0.321827
C37   C     C_R   0.161295 0.709599 0.088378 0.423407
C38   C     C_R   0.838704 0.290406 0.911623 0.423405
C39   C     C_R   0.131461 0.832983 0.105893 0.341590
C40   C     C_R   0.868538 0.167021 0.894111 0.341591
C41   C     C_R   0.928731 0.564151 0.409775 -0.138563
C42   C     C_R   0.071269 0.435848 0.590225 -0.138563
Cu1   Cu    Cu3+1 0.500000 0.500000 0.625300 1.094018
Cu2   Cu    Cu3+1 0.500000 0.500000 0.374700 1.094018
H1    H     H_    0.498738 0.115478 0.150573 0.225657
H2    H     H_    0.501260 0.884519 0.849426 0.225657
H3    H     H_    0.071458 0.966893 0.242566 0.216262
H4    H     H_    0.928541 0.033109 0.757440 0.216262
H5    H     H_    0.873096 0.616368 0.341010 0.194033
H6    H     H_    0.126904 0.383632 0.658990 0.194033
H7    H     H_    0.072494 0.235976 0.259929 0.223674
H8    H     H_    0.927507 0.764028 0.740072 0.223677
H9    H     H_    0.211378 0.152700 0.427226 0.220690
H10   H     H_    0.788623 0.847304 0.572775 0.220691
N1    N     N_1   0.500010 0.499990 0.186410 -0.106512
N2    N     N_1   0.499990 0.500010 0.813590 -0.106513
O1    O     O_R   0.499990 0.319650 0.605810 -0.509668
O2    O     O_R   0.500010 0.680350 0.394190 -0.509668
O3    O     O_R   0.499990 0.319640 0.394190 -0.587980
O4    O     O_R   0.500010 0.680360 0.605810 -0.587980
O5    O     O_R   0.319640 0.500010 0.605810 -0.549134
O6    O     O_R   0.680360 0.499990 0.394190 -0.549133
O7    O     O_R   0.319650 0.500010 0.394190 -0.586374
O8    O     O_R   0.680350 0.499990 0.605810 -0.586373
O9    O     O_3   0.143037 0.913939 0.004310 -0.646794
H11   H     H_    0.116231 0.996206 0.031708 0.343237
O10   O     O_3   0.856960 0.086067 0.995694 -0.646796
H12   H     H_    0.883765 0.003798 0.968298 0.343237
Cl1   Cl    Cl    0.379250 0.204514 0.921242 -0.490780
Cl2   Cl    Cl    0.620748 0.795481 0.078757 -0.490782
Cl3   Cl    Cl    0.382026 0.863840 0.263063 -0.572986
Cl4   Cl    Cl    0.617973 0.136160 0.736937 -0.572987
Cl5   Cl    Cl    0.041208 0.843843 0.479325 -0.580034
Cl6   Cl    Cl    0.958794 0.156156 0.520680 -0.580034
O11   O     O_3   0.163624 0.502124 0.158670 -0.664966
H13   H     H_    0.143566 0.450855 0.233691 0.335706
O12   O     O_3   0.836375 0.497879 0.841328 -0.664965
H14   H     H_    0.856435 0.549147 0.766307 0.335705
Cl7   Cl    Cl    0.213510 0.661420 0.937843 -0.511017
Cl8   Cl    Cl    0.786489 0.338587 0.062157 -0.511019
O13   O     O_3   0.131739 0.272736 0.012441 -0.663704
H15   H     H_    0.053038 0.298349 0.050794 0.357205
O14   O     O_3   0.868261 0.727265 0.987559 -0.663701
H16   H     H_    0.946963 0.701654 0.949207 0.357204

loop_
_geom_bond_atom_site_label_1
_geom_bond_atom_site_label_2
_ccdc_geom_bond_type
C30   C32   A    
C5    C42   A    
C19   Cl3   S    
Cu1   Cu2   S    
O13   H15   S    
C28   N2    T    
C14   H2    S    
O12   H14   S    
C37   Cl7   S    
C35   O11   S    
C4    C42   A    
C29   H3    S    
C30   H4    S    
C38   C40   A    
C36   O12   S    
C1    O3    A    
C32   Cl6   S    
C27   N1    T    
C31   Cl5   S    
C20   C25   A    
Cu2   O3    S    
C15   C17   A    
C19   C26   A    
Cu2   O2    S    
C7    C17   A    
C40   O10   S    
C31   C33   A    
C8    H8    S    
C17   O13   S    
C23   O7    A    
C1    C22   S    
C24   O8    A    
C39   O9    S    
C3    C24   S    
C2    O4    A    
C41   H5    S    
Cu1   O8    S    
Cu2   O7    S    
C15   Cl1   S    
O10   H12   S    
C16   Cl2   S    
C4    C6    A    
C4    C23   S    
C11   C26   S    
Cu2   O6    S    
C6    C41   A    
C8    C18   A    
C32   C34   A    
O11   H13   S    
C1    O1    A    
O14   H16   S    
C29   C31   A    
C5    C34   S    
C29   C39   A    
C2    C21   S    
C18   O14   S    
C30   C40   A    
C9    C11   A    
C10   C12   A    
Cu1   O4    S    
C42   H6    S    
C8    C10   A    
C12   C14   A    
C13   C15   A    
C14   C16   A    
C9    H9    S    
Cu1   O5    S    
C35   C37   A    
C7    C9    A    
C21   C25   A    
C3    C41   A    
C24   O6    A    
C19   C21   A    
C20   C22   A    
C3    C5    A    
C2    O2    A    
C6    C33   S    
C12   C25   S    
C36   C38   A    
C7    H7    S    
C37   C39   A    
C13   H1    S    
C11   C13   A    
Cu2   N1    S    
C38   Cl8   S    
C33   C35   A    
C34   C36   A    
C10   H10   S    
Cu1   O1    S    
Cu1   N2    S    
C23   O5    A    
C16   C18   A    
O9    H11   S    
C22   C26   A    
C27   C28   S    
C20   Cl4   S    
