data_mof_unit_20541.cif
_audit_creation_date              2012-12-10T18:33:33-0500
_audit_creation_method            fapswitch 2.2
_symmetry_space_group_name_H-M    P1
_symmetry_Int_Tables_number       1
_space_group_crystal_system       triclinic
_cell_length_a                    8.731467
_cell_length_b                    15.113633
_cell_length_c                    13.929459
_cell_angle_alpha                 90.380485
_cell_angle_beta                  98.478515
_cell_angle_gamma                 91.384245
_cell_volume                      1817.47324097

loop_
_atom_site_label
_atom_site_type_symbol
_atom_type_description
_atom_site_fract_x
_atom_site_fract_y
_atom_site_fract_z
_atom_type_partial_charge
C1    C     C_R   0.494411 0.329901 0.499372 0.762905
C2    C     C_R   0.494707 0.670020 0.499552 0.766120
C3    C     C_R   0.574052 0.569415 0.115850 -0.244093
C4    C     C_R   0.377756 0.458542 0.879962 -0.224674
C5    C     C_R   0.575393 0.566480 0.217228 0.077914
C6    C     C_R   0.382853 0.457709 0.779165 0.096640
C7    C     C_R   0.422069 0.434314 0.199807 0.179623
C8    C     C_R   0.615846 0.543774 0.803540 0.187895
C9    C     C_R   0.424591 0.433841 0.098871 -0.218923
C10   C     C_R   0.616707 0.542323 0.904786 -0.224483
C11   C     C_R   0.498181 0.501983 0.054344 0.090169
C12   C     C_R   0.496640 0.501092 0.945239 0.084574
C13   C     C_R   0.203662 0.499850 0.474938 0.859602
C14   C     C_R   0.796341 0.500078 0.525072 0.891714
C15   C     C_2   0.037418 0.499852 0.461374 -0.371995
C16   C     C_2   0.962606 0.500006 0.538678 -0.351212
C17   C     C_R   0.426613 0.091935 0.568003 -0.124828
C18   C     C_R   0.432086 0.906270 0.416921 -0.124724
C19   C     C_R   0.414398 0.184083 0.566329 -0.006913
C20   C     C_R   0.419895 0.813760 0.415992 -0.016020
C21   C     C_R   0.488905 0.232938 0.498927 -0.117743
C22   C     C_R   0.489231 0.766944 0.498688 -0.114439
C23   C     C_R   0.564955 0.188252 0.431710 -0.140061
C24   C     C_R   0.560301 0.813925 0.581337 -0.170824
C25   C     C_R   0.571228 0.096536 0.432300 -0.142190
C26   C     C_R   0.566434 0.905825 0.582032 -0.143440
C27   C     C_R   0.503899 0.048455 0.501202 0.045378
C28   C     C_R   0.504099 0.951970 0.499490 0.046537
Cu1   Cu    Cu3+1 0.500000 0.499990 0.596430 0.944072
Cu2   Cu    Cu3+1 0.500000 0.500010 0.403570 0.931418
H1    H     H_    0.976414 0.499784 0.387467 0.179745
H2    H     H_    0.023596 0.500078 0.612596 0.186254
H3    H     H_    0.631002 0.625150 0.086472 0.146709
H4    H     H_    0.279519 0.426714 0.905701 0.150160
H5    H     H_    0.635707 0.618503 0.262551 0.139785
H6    H     H_    0.290940 0.423950 0.731195 0.128863
N1    N     N_R   0.500000 0.500020 0.258690 -0.220819
N2    N     N_R   0.500000 0.499980 0.741310 -0.220555
O1    O     O_R   0.500010 0.371450 0.581430 -0.583485
O2    O     O_R   0.499990 0.628550 0.418570 -0.600829
O3    O     O_R   0.500010 0.371460 0.418560 -0.597923
O4    O     O_R   0.499990 0.628540 0.581440 -0.601429
O5    O     O_R   0.274840 0.499990 0.562640 -0.583676
O6    O     O_R   0.725160 0.500010 0.437360 -0.573025
O7    O     O_R   0.274840 0.500000 0.399770 -0.619812
O8    O     O_R   0.725160 0.500000 0.600230 -0.598892
H7    H     H_    0.369843 0.053152 0.618382 0.178277
H8    H     H_    0.379156 0.943457 0.354949 0.182962
C29   C     C_2   0.314998 0.226482 0.630450 0.375940
H9    H     H_    0.268379 0.291356 0.613956 0.068509
O9    O     O_2   0.281133 0.188451 0.701815 -0.531991
C30   C     C_2   0.325786 0.768809 0.331094 0.367009
H10   H     H_    0.276866 0.702882 0.337377 0.094785
O10   O     O_2   0.298812 0.805894 0.253010 -0.528358
H11   H     H_    0.621599 0.224474 0.379390 0.168818
H12   H     H_    0.613089 0.779504 0.645270 0.148118
H13   H     H_    0.629803 0.062983 0.379696 0.152771
H14   H     H_    0.621007 0.941071 0.646564 0.154231
C31   C     C_2   0.328245 0.363554 0.238025 0.375303
H15   H     H_    0.270264 0.374647 0.299892 0.116054
O11   O     O_2   0.311420 0.290824 0.198572 -0.551689
C32   C     C_2   0.740521 0.596703 0.768037 0.369030
H16   H     H_    0.721658 0.629790 0.699311 0.111437
O12   O     O_2   0.867845 0.605805 0.817318 -0.562067
H17   H     H_    0.366867 0.380016 0.055110 0.178093
H18   H     H_    0.711548 0.574691 0.951814 0.173697

loop_
_geom_bond_atom_site_label_1
_geom_bond_atom_site_label_2
_ccdc_geom_bond_type
Cu1   N2    S    
C2    C22   S    
C11   C12   S    
C6    N2    A    
Cu2   O3    S    
C1    C21   S    
Cu1   Cu2   S    
C5    N1    A    
Cu1   O4    S    
C24   H12   S    
C4    H4    S    
C26   H14   S    
C19   C29   S    
Cu2   O7    S    
C26   C28   A    
C3    C11   A    
C13   O5    A    
Cu1   O8    S    
C3    C5    A    
Cu1   O1    S    
C6    H6    S    
C13   C15   S    
C7    C31   S    
C7    N1    A    
Cu2   O2    S    
C23   H11   S    
C20   C30   S    
Cu1   O5    S    
C13   O7    A    
C9    C11   A    
Cu2   O6    S    
C32   H16   S    
C25   H13   S    
C8    N2    A    
C2    O4    A    
C10   C12   A    
C22   C24   A    
C1    O3    A    
C19   C21   A    
C20   C22   A    
C14   O6    A    
C9    H17   S    
C10   H18   S    
C21   C23   A    
C25   C27   A    
C14   C16   S    
C31   O11   D    
C4    C6    A    
C4    C12   A    
C3    H3    S    
C15   C16   D    
C17   C27   A    
C2    O2    A    
C31   H15   S    
C23   C25   A    
C18   C28   A    
C30   H10   S    
Cu2   N1    S    
C18   C20   A    
C14   O8    A    
C29   H9    S    
C5    H5    S    
C8    C32   S    
C27   C28   S    
C7    C9    A    
C1    O1    A    
C16   H2    S    
C32   O12   D    
C17   C19   A    
C15   H1    S    
C8    C10   A    
C24   C26   A    
C17   H7    S    
C30   O10   D    
C29   O9    D    
C18   H8    S    
