data_mof_unit_49927.cif
_audit_creation_date              2012-10-26T20:07:07-0400
_audit_creation_method            fapswitch 2.2
_symmetry_space_group_name_H-M    P1
_symmetry_Int_Tables_number       1
_space_group_crystal_system       triclinic
_cell_length_a                    10.834212
_cell_length_b                    9.67846
_cell_length_c                    27.766802
_cell_angle_alpha                 90.097716
_cell_angle_beta                  90.472167
_cell_angle_gamma                 90.041683
_cell_volume                      2911.48095982

loop_
_atom_site_label
_atom_site_type_symbol
_atom_type_description
_atom_site_fract_x
_atom_site_fract_y
_atom_site_fract_z
_atom_type_partial_charge
C1    C     C_R   0.262540 0.500049 0.500250 0.591464
C2    C     C_R   0.381169 0.548210 0.872877 0.031049
C3    C     C_R   0.497997 0.496731 0.354825 0.038519
C4    C     C_R   0.499751 0.498178 0.645285 0.014639
C5    C     C_R   0.376111 0.576653 0.974647 0.033782
C6    C     C_R   0.603482 0.590920 0.025771 0.042737
C7    C     C_R   0.602141 0.607446 0.974920 0.011725
C8    C     C_R   0.375741 0.588883 0.025799 0.001598
C9    C     C_R   0.489706 0.584764 0.949643 0.019234
C10   C     C_R   0.490306 0.581000 0.050876 0.021603
C11   C     C_R   0.268201 0.545267 0.947813 -0.078717
C12   C     C_R   0.737468 0.500080 0.499745 0.586057
C13   C     C_R   0.714484 0.572217 0.051960 -0.095781
C14   C     C_R   0.269875 0.537002 0.897758 -0.080909
C15   C     C_R   0.715061 0.560131 0.101858 -0.088756
C16   C     C_R   0.500493 0.499290 0.407783 0.628957
C17   C     C_R   0.499276 0.499545 0.592257 0.620524
C18   C     C_R   0.266076 0.601800 0.053574 0.021774
C19   C     C_R   0.709469 0.638811 0.947710 0.027850
C20   C     C_R   0.063741 0.375184 0.502822 -0.146594
C21   C     C_R   0.936230 0.625355 0.496877 -0.133820
C22   C     C_R   0.936190 0.375034 0.501516 -0.145370
C23   C     C_R   0.491754 0.561083 0.101486 -0.030815
C24   C     C_R   0.063912 0.625534 0.498233 -0.131838
C25   C     C_R   0.871602 0.500177 0.499144 0.020890
C26   C     C_R   0.128430 0.500305 0.500763 0.025379
C27   C     C_R   0.436383 0.074172 0.465523 0.133049
C28   C     C_R   0.563495 0.926872 0.534413 0.119812
C29   C     C_R   0.563698 0.074454 0.534422 0.134971
C30   C     C_R   0.437131 0.926506 0.465327 0.118077
C31   C     C_R   0.384077 0.514943 0.175891 0.411091
C32   C     C_R   0.604950 0.536946 0.824915 0.411138
C33   C     C_R   0.602535 0.543037 0.177540 0.414334
C34   C     C_R   0.491399 0.567708 0.898927 -0.032445
C35   C     C_R   0.385120 0.538928 0.822365 0.417652
C36   C     C_R   0.580305 0.425513 0.277396 -0.066294
C37   C     C_R   0.417712 0.425700 0.722570 -0.077905
C38   C     C_R   0.588574 0.425218 0.327884 -0.004232
C39   C     C_R   0.411437 0.422747 0.672020 -0.017247
C40   C     C_R   0.397545 0.558374 0.330824 0.218716
C41   C     C_R   0.595809 0.566489 0.669834 0.246590
C42   C     C_R   0.403156 0.576186 0.280682 -0.067245
C43   C     C_R   0.586784 0.587799 0.719617 -0.050984
C44   C     C_R   0.492526 0.507332 0.253337 0.161046
C45   C     C_R   0.380857 0.544848 0.126470 0.003759
C46   C     C_R   0.499803 0.514755 0.746875 0.148151
C47   C     C_3   0.183751 0.564471 0.334943 -0.002926
C48   C     C_3   0.082345 0.558061 0.372387 -0.332102
C49   C     C_3   0.807967 0.551008 0.665909 -0.020962
C50   C     C_3   0.899056 0.511840 0.626768 -0.351429
C51   C     C_2   0.363887 0.146168 0.427863 0.631021
C52   C     C_2   0.636488 0.857721 0.572011 0.658611
C53   C     C_2   0.633598 0.146589 0.572837 0.629800
C54   C     C_2   0.371949 0.857423 0.425350 0.653402
C55   C     C_2   0.310562 0.342119 0.648802 0.611691
C56   C     C_R   0.603829 0.567654 0.874278 0.007930
C57   C     C_2   0.694116 0.352020 0.350855 0.601673
C58   C     C_2   0.153948 0.675424 0.036417 0.575622
C59   C     C_2   0.809112 0.730029 0.966429 0.555652
C60   C     C_R   0.268942 0.566777 0.102450 -0.101216
C61   C     C_R   0.711976 0.605573 0.898677 -0.102527
C62   C     C_R   0.604025 0.555150 0.127101 0.031934
Cu1   Cu    Cu3+1 0.500000 0.640660 0.500000 1.096041
Cu2   Cu    Cu3+1 0.500000 0.359340 0.500000 1.087705
H1    H     H_    0.335937 0.641487 0.262922 0.153868
H2    H     H_    0.802054 0.561484 0.034197 0.153462
H3    H     H_    0.111203 0.277244 0.505663 0.192088
H4    H     H_    0.888627 0.723202 0.493938 0.193749
H5    H     H_    0.888689 0.276818 0.502391 0.194477
H6    H     H_    0.111606 0.723682 0.496916 0.187900
H7    H     H_    0.188578 0.461002 0.317239 0.162541
H8    H     H_    0.157673 0.643945 0.307865 0.157529
H9    H     H_    0.073498 0.659328 0.390864 0.202406
H10   H     H_    0.992922 0.532335 0.354696 0.140813
H11   H     H_    0.104245 0.476866 0.399265 0.155710
H12   H     H_    0.651686 0.657286 0.736906 0.174891
H13   H     H_    0.790526 0.455282 0.687277 0.151594
H14   H     H_    0.851340 0.629451 0.689939 0.175596
H15   H     H_    0.927248 0.604142 0.606001 0.163798
H16   H     H_    0.982849 0.465211 0.643316 0.148604
H17   H     H_    0.856093 0.435119 0.602057 0.188587
H18   H     H_    0.200981 0.229013 0.407798 0.330760
H19   H     H_    0.805858 0.797861 0.593482 0.355656
H20   H     H_    0.640849 0.204619 0.642609 0.332859
H21   H     H_    0.357844 0.845146 0.352870 0.363153
H22   H     H_    0.185791 0.326314 0.594942 0.334899
H23   H     H_    0.184287 0.569115 0.122967 0.207308
H24   H     H_    0.820328 0.345360 0.404482 0.334172
H25   H     H_    0.974272 0.716597 0.047641 0.357448
H26   H     H_    0.854736 0.892643 0.008644 0.352172
H27   H     H_    0.796079 0.621797 0.878554 0.197968
H28   H     H_    0.354659 0.362496 0.743075 0.200305
H29   H     H_    0.646161 0.366606 0.256634 0.196510
H30   H     H_    0.184088 0.516151 0.878773 0.182737
H31   H     H_    0.802940 0.549556 0.120383 0.189922
H32   H     H_    0.181640 0.522098 0.964964 0.157114
N1    N     N_R   0.493401 0.520485 0.201294 -0.381717
N2    N     N_R   0.496424 0.529379 0.798955 -0.380492
N3    N     N_R   0.500000 0.852070 0.500000 -0.316802
N4    N     N_R   0.500000 0.147930 0.500000 -0.308211
O1    O     O_R   0.319640 0.618740 0.500000 -0.484571
O2    O     O_2   0.714190 0.512844 0.803469 -0.510291
O3    O     O_2   0.278205 0.542012 0.797143 -0.485421
O4    O     O_2   0.709370 0.556481 0.202421 -0.488666
O5    O     O_3   0.296590 0.601485 0.357623 -0.546935
O6    O     O_3   0.699681 0.607587 0.644654 -0.540071
O7    O     O_2   0.407286 0.160960 0.387673 -0.476751
O8    O     O_R   0.241992 0.184057 0.436735 -0.709736
O9    O     O_2   0.594451 0.847890 0.612573 -0.440384
O10   O     O_R   0.759407 0.824445 0.563144 -0.699672
O11   O     O_2   0.738141 0.187771 0.565325 -0.542327
O12   O     O_R   0.680360 0.381260 0.500000 -0.481666
O13   O     O_R   0.583600 0.155975 0.618990 -0.650215
O14   O     O_2   0.270845 0.805284 0.431699 -0.501172
O15   O     O_R   0.420156 0.868804 0.378962 -0.643865
O16   O     O_2   0.273191 0.236125 0.667709 -0.475531
O17   O     O_R   0.254812 0.389317 0.606413 -0.701212
O18   O     O_2   0.737012 0.248778 0.331821 -0.479268
O19   O     O_R   0.747762 0.403226 0.393163 -0.707572
O20   O     O_2   0.161673 0.764278 0.005302 -0.458671
O21   O     O_R   0.040719 0.650101 0.058502 -0.712682
O22   O     O_2   0.913818 0.720811 0.950584 -0.486693
O23   O     O_R   0.680360 0.618740 0.500000 -0.486798
O24   O     O_R   0.781308 0.831700 0.000524 -0.682429
O25   O     O_R   0.319640 0.381260 0.500000 -0.480735
O26   O     O_R   0.500020 0.618770 0.430260 -0.465298
O27   O     O_R   0.499980 0.381230 0.569740 -0.478662
O28   O     O_R   0.499980 0.618770 0.569740 -0.464578
O29   O     O_R   0.500020 0.381230 0.430260 -0.474692
O30   O     O_2   0.278360 0.479515 0.198117 -0.503943

loop_
_geom_bond_atom_site_label_1
_geom_bond_atom_site_label_2
_ccdc_geom_bond_type
C11   H32   S    
C2    C35   A    
C45   C60   A    
C34   C56   A    
H20   O13   S    
C23   C45   A    
C33   O4    S    
C20   H3    S    
Cu1   O1    S    
C50   H15   S    
C24   H6    S    
C30   C54   S    
H25   O21   S    
C28   C29   A    
C1    O25   A    
C5    C11   A    
C31   O30   S    
C35   O3    S    
C15   H31   S    
C11   C14   A    
Cu2   O12   S    
C55   O16   D    
C43   H12   S    
C49   H14   S    
Cu1   N3    S    
C36   H29   S    
C18   C58   S    
C23   C62   A    
C39   C55   S    
C3    C38   A    
C53   O13   S    
C51   O8    S    
C47   O5    S    
C22   C25   A    
C42   H1    S    
H18   O8    S    
C35   N2    A    
C22   H5    S    
Cu1   O28   S    
C29   N4    A    
C57   O19   S    
C53   O11   D    
C59   O22   D    
C40   C42   A    
C46   N2    S    
C27   C30   A    
C32   C56   A    
C41   C43   A    
C48   H11   S    
C42   C44   A    
C51   O7    D    
C60   H23   S    
C27   C51   S    
C13   H2    S    
C27   N4    A    
C41   O6    S    
C48   H10   S    
H21   O15   S    
C17   O27   A    
C19   C59   S    
C33   C62   A    
C30   N3    A    
C8    C18   A    
C29   C53   S    
C32   N2    A    
C5    C9    A    
C38   C57   S    
C44   N1    S    
C47   C48   S    
C4    C39   A    
C52   O10   S    
Cu2   O27   S    
C54   O15   S    
C58   O20   D    
H19   O10   S    
H24   O19   S    
C16   O29   A    
C47   H7    S    
C6    C7    A    
C4    C17   S    
C28   N3    A    
C18   C60   A    
C20   C22   A    
C3    C40   A    
C49   C50   S    
C7    C19   A    
C13   C15   A    
C21   H4    S    
C31   C45   A    
C9    C34   A    
C32   O2    S    
C36   C44   A    
C1    O1    A    
C12   O12   A    
C55   O17   S    
C59   O24   S    
C7    C9    A    
C21   C25   A    
C58   O21   S    
C37   H28   S    
H26   O24   S    
C48   H9    S    
C24   C26   A    
C50   H16   S    
C6    C10   A    
C5    C8    A    
Cu1   O23   S    
C17   O28   A    
C49   O6    S    
C10   C23   A    
C12   C25   S    
C36   C38   A    
C37   C39   A    
C6    C13   A    
C28   C52   S    
C2    C34   A    
C1    C26   S    
C12   O23   A    
C20   C26   A    
C52   O9    D    
C19   C61   A    
C54   O14   D    
C15   C62   A    
C49   H13   S    
H22   O17   S    
C33   N1    A    
C31   N1    A    
C2    C14   A    
C43   C46   A    
C47   H8    S    
Cu1   O26   S    
Cu1   Cu2   S    
Cu2   N4    S    
Cu2   O29   S    
C8    C10   A    
Cu2   O25   S    
C4    C41   A    
C21   C24   A    
C56   C61   A    
C40   O5    S    
C37   C46   A    
C16   O26   A    
C14   H30   S    
C3    C16   S    
C61   H27   S    
C50   H17   S    
C57   O18   D    
