data_mof_unit_63440.cif
_audit_creation_date              2012-12-10T16:43:19-0500
_audit_creation_method            fapswitch 2.2
_symmetry_space_group_name_H-M    P1
_symmetry_Int_Tables_number       1
_space_group_crystal_system       triclinic
_cell_length_a                    18.472016
_cell_length_b                    18.445592
_cell_length_c                    18.411685
_cell_angle_alpha                 119.671614
_cell_angle_beta                  90.386412
_cell_angle_gamma                 119.809207
_cell_volume                      4455.68045138

loop_
_atom_site_label
_atom_site_type_symbol
_atom_type_description
_atom_site_fract_x
_atom_site_fract_y
_atom_site_fract_z
_atom_type_partial_charge
Br1   Br    Br    0.202906 0.564767 0.706499 -0.483250
Br2   Br    Br    0.608960 0.394996 0.073765 -0.491894
Br3   Br    Br    0.802954 0.434697 0.281879 -0.501724
C1    C     C_R   0.361782 0.998990 0.139093 0.827452
C2    C     C_2   0.809376 0.004691 0.697204 -0.289735
C3    C     C_2   0.723971 0.943070 0.780432 -0.157126
C4    C     C_R   0.638228 0.999814 0.861137 0.855950
C5    C     C_2   0.691018 0.998752 0.803209 -0.285738
C6    C     C_2   0.279586 0.444335 0.719613 -0.126131
C7    C     C_2   0.192352 0.386992 0.702946 -0.236726
C8    C     C_2   0.332778 0.555390 0.784439 -0.245801
C9    C     C_2   0.305715 0.613588 0.791800 0.159997
C10   C     C_2   0.279681 0.044691 0.336766 -0.155979
C11   C     C_2   0.191356 0.988699 0.303789 -0.351354
C12   C     C_R   0.114217 0.029864 0.808983 -0.167380
C13   C     C_2   0.333857 0.028981 0.279859 0.182132
C14   C     C_2   0.307642 0.002552 0.196417 -0.349274
C15   C     C_2   0.766927 0.935560 0.223991 -0.177375
C16   C     C_R   0.638441 0.277167 0.138301 0.865435
C17   C     C_2   0.825899 0.018647 0.305016 0.045704
C18   C     C_2   0.719717 0.939305 0.164262 -0.167207
C19   C     C_2   0.680842 0.987487 0.195045 -0.290128
C20   C     C_2   0.771105 0.556077 0.220917 -0.144327
C21   C     C_2   0.796042 0.613458 0.309182 -0.279148
C22   C     C_2   0.702888 0.446229 0.170049 0.206096
C23   C     C_R   0.180438 0.016255 0.781540 0.098982
C24   C     C_2   0.704642 0.386780 0.191894 0.054551
C25   C     C_R   0.138372 0.276933 0.639765 0.845559
C26   C     C_R   0.860141 0.723085 0.361845 0.875262
C27   C     C_R   0.861855 0.000428 0.639016 0.846420
C28   C     C_R   0.361402 0.722968 0.859814 0.800660
C29   C     C_R   0.138245 0.998905 0.361132 0.871634
C30   C     C_R   0.862986 0.002558 0.360314 0.797617
C31   C     C_R   0.139909 0.001489 0.641679 0.787586
C32   C     C_R   0.637400 0.997906 0.139651 0.862159
C33   C     C_R   0.359970 0.001687 0.861631 0.791213
C34   C     C_R   0.235289 0.016601 0.836299 0.101081
C35   C     C_R   0.222039 0.030626 0.916615 -0.154127
C36   C     C_R   0.155166 0.041845 0.941160 -0.128577
C37   C     C_R   0.101448 0.041444 0.887539 -0.131591
C38   C     C_3   0.419206 0.046305 0.317584 -0.327862
C39   C     C_3   0.422694 0.038091 0.396138 -0.894439
C40   C     C_3   0.866436 0.128958 0.337051 -0.373477
C41   C     C_3   0.919718 0.156352 0.280760 -0.807891
C42   C     C_R   0.303958 0.006913 0.810772 -0.063877
C43   C     C_R   0.320289 0.002498 0.735196 -0.181317
C44   C     C_R   0.266827 0.002228 0.681812 -0.191163
C45   C     C_R   0.195802 0.006337 0.702775 -0.070168
C46   C     C_2   0.777579 0.940340 0.721681 -0.162020
H1    H     H_    0.373576 0.996711 0.716191 0.159510
H2    H     H_    0.264053 0.035473 0.962352 0.145381
H3    H     H_    0.715071 0.900159 0.095004 0.183437
H4    H     H_    0.679504 0.018654 0.262463 0.151342
H5    H     H_    0.795403 0.590710 0.185107 0.196205
H6    H     H_    0.766134 0.579298 0.344251 0.191612
H7    H     H_    0.145872 0.052471 0.002807 0.139566
H8    H     H_    0.050472 0.051742 0.907582 0.141113
H9    H     H_    0.072919 0.034079 0.771589 0.145848
H10   H     H_    0.279724 0.996350 0.622449 0.158710
H11   H     H_    0.791929 0.883714 0.698910 0.180971
H12   H     H_    0.700662 0.044240 0.778646 0.154415
H13   H     H_    0.798942 0.064127 0.720556 0.156024
H14   H     H_    0.710487 0.896057 0.804581 0.178587
H15   H     H_    0.430176 0.104390 0.456372 0.258589
H16   H     H_    0.361988 0.966020 0.379927 0.270477
H17   H     H_    0.480950 0.038004 0.411251 0.256962
H18   H     H_    0.426277 0.987344 0.265072 0.206337
H19   H     H_    0.476747 0.122769 0.338422 0.231038
H20   H     H_    0.970449 0.140221 0.278632 0.249596
H21   H     H_    0.876002 0.112723 0.212129 0.266283
H22   H     H_    0.953877 0.238946 0.310436 0.259447
H23   H     H_    0.313763 0.409241 0.689595 0.178464
H24   H     H_    0.816688 0.146110 0.339935 0.215160
H25   H     H_    0.913024 0.182388 0.406302 0.221413
H26   H     H_    0.159282 0.421317 0.738145 0.191723
H27   H     H_    0.397058 0.590460 0.827964 0.160952
H28   H     H_    0.313064 0.100909 0.407836 0.188401
H29   H     H_    0.156014 0.928770 0.233488 0.163971
H30   H     H_    0.245714 0.987964 0.169828 0.140381
H31   H     H_    0.750348 0.860688 0.201320 0.159993
O1    O     O_3   0.500000 0.000000 0.000000 -0.502979
O2    O     O_R   0.054120 0.939900 0.325040 -0.639675
O3    O     O_R   0.884120 0.060070 0.444330 -0.645204
O4    O     O_R   0.325020 0.939940 0.054210 -0.636190
O5    O     O_R   0.175860 0.060090 0.615830 -0.637953
O6    O     O_R   0.884120 0.939900 0.324160 -0.646308
O7    O     O_R   0.055710 0.939940 0.615850 -0.639192
O8    O     O_R   0.885720 0.939940 0.614980 -0.647319
O9    O     O_R   0.174930 0.060060 0.445830 -0.642639
O10   O     O_R   0.054120 0.229160 0.614300 -0.632009
O11   O     O_R   0.885050 0.770830 0.325070 -0.642499
O12   O     O_R   0.614240 0.229150 0.054160 -0.608338
O13   O     O_R   0.614240 0.060060 0.885070 -0.636655
O14   O     O_R   0.614900 0.229170 0.174980 -0.614816
O15   O     O_R   0.445840 0.770840 0.885740 -0.660358
O16   O     O_R   0.615830 0.060100 0.175880 -0.640055
O17   O     O_R   0.324090 0.939910 0.884220 -0.635525
O18   O     O_R   0.615830 0.939930 0.055710 -0.647070
O19   O     O_R   0.444240 0.060060 0.884190 -0.620643
O20   O     O_R   0.325020 0.770840 0.885120 -0.598753
O21   O     O_R   0.445840 0.060100 0.175010 -0.654269
O22   O     O_R   0.614900 0.939900 0.885710 -0.641952
O23   O     O_3   0.999960 0.000000 0.500040 -0.494483
O24   O     O_R   0.174930 0.229160 0.614920 -0.645136
O25   O     O_R   0.885720 0.770850 0.445880 -0.630123
O26   O     O_R   0.885050 0.060100 0.614330 -0.639850
Zn1   Zn    Zn3+2 0.542440 0.085830 0.956610 1.020541
Zn2   Zn    Zn3+2 0.543390 0.085850 0.129220 0.984896
Zn3   Zn    Zn3+2 0.543390 0.914160 0.957530 0.968922
Zn4   Zn    Zn3+2 0.370780 0.914160 0.956640 1.000921
Zn5   Zn    Zn3+2 0.957510 0.914170 0.543430 0.981690
Zn6   Zn    Zn3+2 0.956570 0.085840 0.542520 0.980384
Zn7   Zn    Zn3+2 0.956570 0.914150 0.370820 0.980893
Zn8   Zn    Zn3+2 0.129180 0.085840 0.543400 0.971158

loop_
_geom_bond_atom_site_label_1
_geom_bond_atom_site_label_2
_ccdc_geom_bond_type
C40   H24   S    
O1    Zn1   S    
O20   Zn4   S    
C15   C18   S    
C38   C39   S    
C6    H23   S    
O10   Zn6   S    
C40   C41   S    
C26   O25   A    
C4    C5    S    
C38   H18   S    
O26   Zn6   S    
C32   O16   A    
C21   H6    S    
C19   C32   S    
O14   Zn2   S    
C46   H11   S    
O6    Zn7   S    
O5    Zn8   S    
O23   Zn7   S    
C8    H27   S    
C35   C36   A    
O7    Zn5   S    
C14   H30   S    
C41   H22   S    
O23   Zn5   S    
C21   C26   S    
C16   O12   A    
C43   C44   A    
O8    Zn5   S    
C29   O9    A    
C13   C14   D    
C4    O22   A    
C39   H16   S    
C20   C21   D    
C41   H21   S    
C33   O17   A    
C19   H4    S    
C32   O18   A    
C16   C24   S    
C6    C7    D    
C23   C45   A    
C5    H12   S    
C40   H25   S    
C11   H29   S    
O25   Zn5   S    
O1    Zn2   S    
O18   Zn3   S    
C10   C11   D    
C27   O26   A    
C2    C46   D    
Br1   C9    S    
C38   H19   S    
C4    O13   A    
C10   H28   S    
C41   H20   S    
O23   Zn8   S    
O15   Zn3   S    
C36   C37   A    
C12   C23   A    
C3    C5    D    
C35   H2    S    
C42   C43   A    
O4    Zn4   S    
O11   Zn7   S    
O23   Zn6   S    
C31   O5    A    
C3    H14   S    
C30   O6    A    
C34   C35   A    
C30   O3    A    
C7    H26   S    
C25   O24   A    
O12   Zn1   S    
C44   C45   A    
C1    O4    A    
C1    O21   A    
C33   C42   S    
C36   H7    S    
C28   O20   A    
C6    C8    S    
C16   O14   A    
O24   Zn8   S    
C1    C14   S    
C33   O19   A    
O1    Zn3   S    
C9    C28   S    
C12   H9    S    
C31   C45   S    
C17   C30   S    
C27   O8    A    
C39   H15   S    
C26   O11   A    
C17   C40   S    
C29   O2    A    
C20   H5    S    
C2    C27   S    
C7    C25   S    
O9    Zn8   S    
C37   H8    S    
O2    Zn7   S    
C11   C29   S    
C8    C9    D    
C23   C34   A    
C22   C24   D    
O19   Zn1   S    
C43   H1    S    
Br3   C24   S    
O13   Zn1   S    
O17   Zn4   S    
O21   Zn2   S    
C28   O15   A    
C2    H13   S    
Br2   C22   S    
C15   C17   D    
C31   O7    A    
C20   C22   S    
C3    C46   S    
O16   Zn2   S    
C12   C37   A    
C44   H10   S    
O1    Zn4   S    
C15   H31   S    
C10   C13   S    
C39   H17   S    
O3    Zn6   S    
O22   Zn3   S    
C25   O10   A    
C18   C19   D    
C34   C42   A    
C13   C38   S    
C18   H3    S    
