data_mof_unit_21508.cif
_audit_creation_date              2012-12-11T16:31:26-0500
_audit_creation_method            fapswitch 2.2
_symmetry_space_group_name_H-M    P1
_symmetry_Int_Tables_number       1
_space_group_crystal_system       triclinic
_cell_length_a                    6.94409
_cell_length_b                    18.144716
_cell_length_c                    20.315006
_cell_angle_alpha                 68.393765
_cell_angle_beta                  90.717684
_cell_angle_gamma                 90.68022
_cell_volume                      2379.55091759

loop_
_atom_site_label
_atom_site_type_symbol
_atom_type_description
_atom_site_fract_x
_atom_site_fract_y
_atom_site_fract_z
_atom_type_partial_charge
O1    O     O_R   0.488990 0.443920 0.942160 -0.539265
O2    O     O_R   0.823840 0.406530 0.087600 -0.525176
O3    O     O_R   0.999650 0.556080 0.057840 -0.540616
C1    C     C_R   0.655698 0.380584 0.113294 0.744479
O4    O     O_R   0.818390 0.434590 0.944530 -0.523231
O5    O     O_R   0.994160 0.584350 0.913750 -0.540500
C2    C     C_R   0.649009 0.423017 0.921983 0.760161
O6    O     O_R   0.494480 0.415650 0.086250 -0.533977
O7    O     O_3   0.662600 0.549100 0.990070 -0.375533
V1    V     V_3+5 0.935320 0.490890 0.001840 1.469085
O8    O     O_R   0.324240 0.593470 0.912400 -0.544117
C3    C     C_R   0.155469 0.616630 0.885078 0.684939
O9    O     O_R   0.329690 0.565410 0.055470 -0.539742
C4    C     C_R   0.162133 0.579685 0.075827 0.715929
V2    V     V_3+5 0.435990 0.509110 0.998160 1.439576
O10   O     O_3   0.158840 0.450900 0.009930 -0.352597
C5    C     C_3   0.129533 0.655104 0.284449 -0.403344
C6    C     C_3   0.321822 0.764204 0.197315 -0.344620
C7    C     C_3   0.310764 0.813575 0.245586 -0.336965
H1    H     H_    0.244028 0.687313 0.371527 0.145037
H2    H     H_    0.258200 0.616174 0.298663 0.157260
H3    H     H_    0.339730 0.804482 0.141299 0.141578
H4    H     H_    0.452153 0.726261 0.211827 0.139891
H5    H     H_    0.438917 0.800932 0.281352 0.140752
H6    H     H_    0.315399 0.877871 0.212239 0.135334
C8    C     C_1   0.110175 0.877369 0.376160 -0.213731
C9    C     C_3   0.139272 0.711302 0.205490 0.240868
C10   C     C_3   0.120062 0.703377 0.333781 -0.336396
C11   C     C_3   0.123847 0.793821 0.290048 0.259435
C12   C     C_3   0.949559 0.813633 0.238048 -0.369869
C13   C     C_3   0.955629 0.764313 0.189016 0.193138
C14   C     C_1   0.116110 0.839836 0.337482 -0.084065
C15   C     C_1   0.149037 0.664321 0.158797 -0.052656
C16   C     C_1   0.155725 0.625939 0.120832 -0.186496
H7    H     H_    0.828361 0.723541 0.201343 0.098935
H8    H     H_    0.812972 0.800213 0.268437 0.116867
H9    H     H_    0.000733 0.615670 0.293162 0.132118
H10   H     H_    0.986252 0.687244 0.365718 0.139335
H11   H     H_    0.949498 0.878366 0.206133 0.155265
H12   H     H_    0.444028 0.541649 0.700796 0.121001
C17   C     C_R   0.000577 0.768549 0.873450 -0.130633
C18   C     C_R   0.925664 0.840822 0.869822 -0.118456
C19   C     C_R   0.915218 0.903923 0.805297 -0.125819
C20   C     C_R   0.978832 0.895118 0.743858 -0.145016
C21   C     C_R   0.053153 0.822016 0.745527 0.052590
C22   C     C_R   0.065196 0.757569 0.811877 0.072066
C23   C     C_R   0.115613 0.812781 0.682635 -0.194309
C24   C     C_R   0.188343 0.738009 0.686345 0.038947
C25   C     C_R   0.216855 0.676416 0.753892 0.027440
C26   C     C_R   0.147061 0.684793 0.816107 -0.169286
C27   C     C_R   0.229536 0.721106 0.624641 0.291769
C28   C     C_R   0.329445 0.652167 0.630811 -0.176817
C29   C     C_R   0.371687 0.595710 0.696765 -0.178382
C30   C     C_R   0.309806 0.605967 0.757500 -0.151945
H13   H     H_    0.009306 0.721906 0.925214 0.105092
H14   H     H_    0.877097 0.848080 0.917482 0.118985
H15   H     H_    0.858219 0.960185 0.802818 0.107635
H16   H     H_    0.969060 0.946462 0.695291 0.106293
H17   H     H_    0.364244 0.640006 0.583989 0.108838
H18   H     H_    0.336076 0.557627 0.807099 0.123504
H19   H     H_    0.847896 0.470413 0.304371 0.104081
C31   C     C_R   0.595726 0.211059 0.126767 0.117531
C32   C     C_R   0.502183 0.141086 0.130396 -0.096114
C33   C     C_R   0.434853 0.088190 0.194590 -0.149471
C34   C     C_R   0.472486 0.102270 0.256297 -0.148684
C35   C     C_R   0.560554 0.174021 0.253793 0.052856
C36   C     C_R   0.601228 0.233824 0.186621 0.044143
C37   C     C_R   0.615994 0.185339 0.316710 -0.172794
C38   C     C_R   0.684163 0.260680 0.312863 0.071741
C39   C     C_R   0.695960 0.324606 0.246060 0.065806
C40   C     C_R   0.652704 0.311768 0.182489 -0.172390
C41   C     C_R   0.734655 0.274586 0.374981 -0.133204
C42   C     C_R   0.793836 0.349539 0.371583 -0.121746
C43   C     C_R   0.802790 0.412199 0.306662 -0.125290
C44   C     C_R   0.754132 0.400287 0.244535 -0.141301
H20   H     H_    0.495799 0.124314 0.084475 0.132601
H21   H     H_    0.367184 0.033059 0.197372 0.116188
H22   H     H_    0.432137 0.056159 0.305661 0.120400
H23   H     H_    0.726808 0.228020 0.426827 0.094024
H24   H     H_    0.831549 0.359176 0.419675 0.106509
H25   H     H_    0.763877 0.451023 0.195469 0.104250
O11   O     O_R   0.770890 0.084490 0.414040 -0.535235
O12   O     O_R   0.445980 0.065450 0.555510 -0.538391
O13   O     O_R   0.270670 0.915620 0.586180 -0.534296
C45   C     C_R   0.615362 0.079723 0.576042 0.722115
O14   O     O_R   0.441480 0.093500 0.412450 -0.542525
O15   O     O_R   0.266140 0.943870 0.442100 -0.537836
C46   C     C_R   0.609546 0.117279 0.385665 0.693940
O16   O     O_R   0.775410 0.056240 0.558120 -0.541551
O17   O     O_3   0.602660 0.950990 0.510100 -0.368368
V3    V     V_3+5 0.329740 0.009100 0.498130 1.425161
O18   O     O_R   0.936120 0.934420 0.444240 -0.535467
C47   C     C_R   0.103600 0.922250 0.422329 0.765424
O19   O     O_R   0.940610 0.906370 0.587310 -0.537925
C48   C     C_R   0.109295 0.882321 0.614279 0.782953
V4    V     V_3+5 0.829110 0.990690 0.501470 1.421293
O20   O     O_3   0.106080 0.049010 0.489880 -0.371114
C49   C     C_3   0.829518 0.251379 0.704639 -0.331651
C50   C     C_3   0.474920 0.276131 0.682470 -0.322758
C51   C     C_3   0.476032 0.324868 0.731519 -0.336445
H26   H     H_    0.864944 0.363226 0.721984 0.136669
H27   H     H_    0.863239 0.291323 0.649529 0.136406
H28   H     H_    0.330117 0.248725 0.683623 0.136738
H29   H     H_    0.501381 0.316581 0.626905 0.136322
H30   H     H_    0.503209 0.388517 0.699343 0.133079
H31   H     H_    0.331794 0.320679 0.755993 0.140072
C52   C     C_1   0.638690 0.378260 0.875729 -0.151476
C53   C     C_3   0.630859 0.210690 0.706272 0.292448
C54   C     C_3   0.830582 0.300081 0.753714 -0.328846
C55   C     C_3   0.632665 0.293979 0.790176 0.282568
C56   C     C_3   0.590205 0.205097 0.833103 -0.314745
C57   C     C_3   0.589263 0.156372 0.784038 -0.336604
C58   C     C_1   0.634387 0.340524 0.837183 -0.081266
C59   C     C_1   0.629103 0.164032 0.659322 -0.102361
C60   C     C_1   0.624988 0.125777 0.621191 -0.192719
H32   H     H_    0.699666 0.109020 0.803015 0.136413
H33   H     H_    0.446769 0.126597 0.787126 0.140622
H34   H     H_    0.700976 0.180940 0.875493 0.156047
H35   H     H_    0.944574 0.205865 0.722069 0.136159
H36   H     H_    0.946205 0.277751 0.794494 0.144563
H37   H     H_    0.448138 0.198576 0.859511 0.145131
N1    N     N_2   0.146358 0.765712 0.557723 -0.535519
H38   H     H_    0.230481 0.767589 0.515628 0.242126
C61   C     C_3   0.950071 0.741606 0.550288 -0.545536
H39   H     H_    0.890983 0.778438 0.497651 0.196396
H40   H     H_    0.857048 0.749036 0.591497 0.209010
H41   H     H_    0.945497 0.678608 0.554939 0.180399
I1    I     I_    0.804038 0.249473 0.045986 -0.450108
N2    N     N_2   0.947066 0.815922 0.114512 -0.509940
H42   H     H_    0.047066 0.861426 0.099435 0.262203
C62   C     C_3   0.756617 0.840681 0.085824 -0.589231
H43   H     H_    0.767197 0.878270 0.028773 0.197475
H44   H     H_    0.687893 0.875488 0.113994 0.196412
H45   H     H_    0.665949 0.788126 0.090721 0.204053

loop_
_geom_bond_atom_site_label_1
_geom_bond_atom_site_label_2
_ccdc_geom_bond_type
C35   C37   A    
C17   C18   A    
C51   C55   S    
O15   V3    S    
C56   H37   S    
C33   H21   S    
C50   H28   S    
C56   C57   S    
C1    O6    A    
C62   H45   S    
C59   C60   T    
C49   H35   S    
C30   H18   S    
C21   C22   A    
C9    C15   S    
C8    C14   T    
C50   C53   S    
C51   H30   S    
C11   C12   S    
C31   C36   A    
C56   H34   S    
C10   C11   S    
C11   C14   S    
O14   V3    S    
O5    C3    A    
C57   H33   S    
O14   C46   A    
C32   H20   S    
H26   C54   S    
C25   C30   A    
O18   V4    S    
C49   C53   S    
C6    C7    S    
C42   C43   A    
C53   C59   S    
C55   C56   S    
C52   C58   T    
C18   H14   S    
O8    V2    S    
C24   C27   A    
C17   H13   S    
C50   C51   S    
C20   H16   S    
C37   C38   A    
C17   C22   A    
C39   C40   A    
O1    V2    S    
O13   V3    S    
O7    V1    S    
C8    C47   S    
C35   C36   A    
C49   C54   S    
C6    H3    S    
O9    C4    A    
O19   C48   A    
C21   C23   A    
O11   V4    S    
C43   C44   A    
C6    C9    S    
C9    C13   S    
C27   C28   A    
C5    C9    S    
C45   C60   S    
O4    C2    A    
C45   O16   A    
C44   H25   S    
H1    C10   S    
C29   C30   A    
C5    H2    S    
C53   C57   S    
O13   C48   A    
C38   C41   A    
O2    C1    A    
C19   C20   A    
O5    V1    S    
C31   C32   A    
C28   H17   S    
C23   C24   A    
C10   H10   S    
V4    O20   S    
C15   C16   T    
C5    H9    S    
V3    O20   S    
O19   V4    S    
C55   C58   S    
O3    C4    A    
C61   H41   S    
C24   C25   A    
O12   C45   A    
C34   C35   A    
O6    V2    S    
O9    V2    S    
C37   C46   S    
C2    C52   S    
C18   C19   A    
N1    C61   S    
C62   H43   S    
O2    V1    S    
C57   H32   S    
C28   C29   A    
C61   H40   S    
N2    H42   S    
C34   H22   S    
O1    C2    A    
C5    C10   S    
C20   C21   A    
C41   C42   A    
C62   H44   S    
C4    C16   S    
C3    C26   S    
O8    C3    A    
H12   C29   S    
O17   V4    S    
H19   C43   S    
C41   H23   S    
O12   V3    S    
C22   C26   A    
C51   H31   S    
C12   H8    S    
C33   C34   A    
O16   V4    S    
C7    H5    S    
O7    V2    S    
O4    V1    S    
C13   N2    S    
O3    V1    S    
C49   H27   S    
C54   C55   S    
C31   I1    S    
O17   V3    S    
C12   C13   S    
C6    H4    S    
O11   C46   A    
O15   C47   A    
C13   H7    S    
O18   C47   A    
C42   H24   S    
C12   H11   S    
C50   H29   S    
C36   C40   A    
C38   C39   A    
C7    H6    S    
C19   H15   S    
C32   C33   A    
C25   C26   A    
C39   C44   A    
C27   N1    S    
C23   C48   S    
V1    O10   S    
N1    H38   S    
C1    C40   S    
V2    O10   S    
C54   H36   S    
C61   H39   S    
N2    C62   S    
C7    C11   S    
