data_mof_unit_31956.cif
_audit_creation_date              2012-12-11T18:42:26-0500
_audit_creation_method            fapswitch 2.2
_symmetry_space_group_name_H-M    P1
_symmetry_Int_Tables_number       1
_space_group_crystal_system       triclinic
_cell_length_a                    8.283522
_cell_length_b                    14.321327
_cell_length_c                    18.929807
_cell_angle_alpha                 97.783645
_cell_angle_beta                  92.119568
_cell_angle_gamma                 90.933043
_cell_volume                      2222.93562475

loop_
_atom_site_label
_atom_site_type_symbol
_atom_type_description
_atom_site_fract_x
_atom_site_fract_y
_atom_site_fract_z
_atom_type_partial_charge
Ba1   Ba    Ba6+2 0.843240 0.541620 0.463500 1.718954
Ba2   Ba    Ba6+2 0.346570 0.458460 0.536510 1.752181
C1    C     C_3   0.590111 0.883058 0.286272 -0.312845
C2    C     C_3   0.583785 0.784593 0.307758 0.331209
C3    C     C_3   0.528144 0.306198 0.323527 0.261025
C4    C     C_3   0.577707 0.282310 0.246695 -0.364405
C5    C     C_3   0.113221 0.288494 0.748416 0.376404
C6    C     C_3   0.148585 0.275714 0.826021 -0.281056
C7    C     C_3   0.591790 0.221588 0.708652 0.320719
C8    C     C_3   0.562442 0.128565 0.737089 -0.263117
C9    C     C_R   0.994373 0.470484 0.050216 0.015449
C10   C     C_R   0.902977 0.431615 0.100822 -0.023429
C11   C     C_R   0.780282 0.435818 0.954368 -0.090699
C12   C     C_3   0.078534 0.732692 0.263564 0.333948
C13   C     C_R   0.935157 0.472015 0.978457 0.021184
C14   C     C_R   0.727303 0.432051 0.883826 -0.084257
C15   C     C_R   0.825151 0.464336 0.833120 -0.031560
C16   C     C_R   0.976336 0.507822 0.855746 -0.002643
C17   C     C_R   0.032319 0.511197 0.928875 0.024726
C18   C     C_R   0.775698 0.453704 0.760360 -0.008471
C19   C     C_R   0.876974 0.484861 0.710342 -0.312425
C20   C     C_R   0.019999 0.536019 0.731288 0.032980
C21   C     C_R   0.070778 0.547812 0.805445 -0.043160
C22   C     C_R   0.150252 0.507814 0.072414 0.030014
C23   C     C_3   0.066795 0.759478 0.188563 -0.325970
C24   C     C_R   0.209516 0.505546 0.144833 0.022262
C25   C     C_R   0.112976 0.466372 0.195187 -0.046798
C26   C     C_R   0.960593 0.430088 0.170340 -0.005356
C27   C     C_R   0.212213 0.598014 0.831425 -0.020120
C28   C     C_R   0.269565 0.599057 0.902041 -0.083785
C29   C     C_R   0.185243 0.552635 0.951568 0.011476
C30   C     C_R   0.246704 0.548175 0.022987 0.022171
C31   C     C_R   0.403728 0.580843 0.046469 -0.095897
C32   C     C_R   0.364363 0.543839 0.166818 -0.033265
C33   C     C_R   0.460399 0.579058 0.116388 -0.089860
C34   C     C_3   0.233674 0.755204 0.633401 0.317085
C35   C     C_R   0.418711 0.546929 0.238765 0.004432
C36   C     C_R   0.322097 0.509248 0.287927 -0.280683
C37   C     C_R   0.171050 0.466628 0.268242 -0.040008
C38   C     C_R   0.676786 0.939510 0.552865 -0.004044
C39   C     C_R   0.501740 0.802460 0.503795 0.007240
C40   C     C_R   0.359394 0.768216 0.466725 -0.290538
C41   C     C_R   0.251617 0.829474 0.439652 0.014892
C42   C     C_R   0.290763 0.925256 0.444859 -0.161942
C43   C     C_R   0.435357 0.960797 0.480397 -0.004592
C44   C     C_R   0.538948 0.900453 0.512912 -0.050445
C45   C     C_3   0.325828 0.833504 0.681456 -0.295303
C46   C     C_R   0.622449 0.093007 0.517746 -0.079313
C47   C     C_R   0.718836 0.035811 0.558310 -0.074210
C48   C     C_R   0.681801 0.182692 0.507856 -0.047392
C49   C     C_R   0.845188 0.200630 0.525462 0.129306
C50   C     C_R   0.926752 0.161569 0.579610 -0.090529
C51   C     C_R   0.862329 0.075624 0.597299 0.243490
C52   C     C_R   0.479622 0.055305 0.481610 0.021339
C53   C     C_3   0.042944 0.241255 0.258429 0.196999
C54   C     C_3   0.198357 0.221968 0.219910 0.312006
C55   C     C_3   0.692803 0.674458 0.673644 0.311922
C56   C     C_3   0.733873 0.709774 0.751969 -0.358742
H1    H     H_    0.661482 0.784724 0.356816 0.093547
H2    H     H_    0.404043 0.802696 0.720566 0.099894
H3    H     H_    0.400724 0.875603 0.649450 0.089287
H4    H     H_    0.240292 0.880305 0.712157 0.207054
H5    H     H_    0.960879 0.278402 0.226993 -0.025168
H6    H     H_    0.983719 0.171686 0.260203 0.122369
H7    H     H_    0.259027 0.289510 0.213866 -0.046792
H8    H     H_    0.275819 0.178817 0.251264 0.050423
H9    H     H_    0.801045 0.642922 0.648519 0.025773
H10   H     H_    0.594179 0.620567 0.670286 0.053268
H11   H     H_    0.716047 0.902216 0.274838 0.165586
H12   H     H_    0.841368 0.757885 0.756675 0.174129
H13   H     H_    0.759613 0.650214 0.781910 0.044021
H14   H     H_    0.630871 0.748192 0.776964 0.115067
H15   H     H_    0.457041 0.767770 0.319231 -0.059126
H16   H     H_    0.547724 0.934954 0.330288 0.081684
H17   H     H_    0.399689 0.325968 0.325301 -0.009214
H18   H     H_    0.603280 0.368604 0.345763 0.076614
H19   H     H_    0.527921 0.212938 0.221781 0.176081
H20   H     H_    0.539128 0.338291 0.214841 0.075549
H21   H     H_    0.709617 0.277995 0.245960 0.091707
H22   H     H_    0.511046 0.885765 0.237940 0.127284
H23   H     H_    0.110369 0.701105 0.149827 0.063534
H24   H     H_    0.167291 0.356947 0.739034 0.043683
H25   H     H_    0.980266 0.288773 0.738896 -0.066533
H26   H     H_    0.280141 0.284005 0.839138 0.134953
H27   H     H_    0.084153 0.328706 0.861888 0.060655
H28   H     H_    0.107571 0.204673 0.835930 0.174886
H29   H     H_    0.530838 0.217364 0.655072 0.065169
H30   H     H_    0.604742 0.069127 0.699052 0.108767
H31   H     H_    0.431569 0.117387 0.744406 0.173019
H32   H     H_    0.002766 0.668308 0.264589 0.092920
H33   H     H_    0.628838 0.129052 0.789191 0.140974
H34   H     H_    0.838328 0.474624 0.654562 0.069002
H35   H     H_    0.607930 0.402308 0.869989 0.116331
H36   H     H_    0.876111 0.404098 0.204563 0.098883
H37   H     H_    0.282693 0.635978 0.797312 0.093495
H38   H     H_    0.582010 0.605569 0.129970 0.110671
H39   H     H_    0.695097 0.408702 0.988376 0.081542
H40   H     H_    0.783322 0.401930 0.089311 0.068955
H41   H     H_    0.380395 0.638553 0.916524 0.066747
H42   H     H_    0.206484 0.717260 0.276110 -0.062104
H43   H     H_    0.487989 0.607225 0.011532 0.073828
H44   H     H_    0.328745 0.693806 0.461684 0.067574
H45   H     H_    0.208402 0.971782 0.421608 0.123877
H46   H     H_    0.758608 0.893262 0.574227 0.171116
H47   H     H_    0.405523 0.097146 0.450555 0.128326
H48   H     H_    0.939248 0.773520 0.173922 0.149881
H49   H     H_    0.142248 0.823603 0.185769 0.146539
H50   H     H_    0.320290 0.705266 0.606999 0.003471
H51   H     H_    0.163635 0.786296 0.591541 0.026260
O1    O     O_2   0.887710 0.436190 0.327560 -0.490457
O2    O     O_3   0.643519 0.751091 0.640333 -0.623776
O3    O     O_3   0.022682 0.807427 0.311747 -0.585088
O4    O     O_2   0.301980 0.563840 0.672490 -0.485667
O5    O     O_3   0.054330 0.556590 0.583490 -0.471471
O6    O     O_3   0.555270 0.390630 0.635330 -0.496915
O7    O     O_3   0.125137 0.713953 0.675467 -0.627734
O8    O     O_3   0.637720 0.384870 0.467990 -0.463796
O9    O     O_3   0.145220 0.339960 0.601250 -0.459799
O10   O     O_2   0.268264 0.171885 0.575905 -0.437506
O11   O     O_3   0.181901 0.214072 0.704484 -0.530731
O12   O     O_3   0.135370 0.443490 0.416520 -0.399640
O13   O     O_3   0.551980 0.615210 0.532020 -0.502932
O14   O     O_2   0.394410 0.269100 0.474240 -0.402224
O15   O     O_3   0.550795 0.227327 0.359701 -0.617780
O16   O     O_2   0.441230 0.468135 0.757267 -0.492396
O17   O     O_3   0.527769 0.294580 0.755762 -0.601511
O18   O     O_3   0.634420 0.609440 0.364670 -0.485148
O19   O     O_2   0.757827 0.552033 0.242704 -0.512806
O20   O     O_3   0.070843 0.285403 0.329429 -0.565563
O21   O     O_3   0.640304 0.719881 0.252109 -0.599384
O22   O     O_2   0.795290 0.730930 0.525800 -0.449314
O23   O     O_3   0.044470 0.660110 0.398750 -0.498202
O24   O     O_2   0.916386 0.827478 0.440457 -0.482689
P1    P     P_3+3 0.061800 0.409390 0.339760 1.079370
P2    P     P_3+3 0.622760 0.718740 0.547830 0.974058
P3    P     P_3+3 0.058456 0.781933 0.398755 0.971182
P4    P     P_3+3 0.127890 0.590690 0.660240 0.980597
P5    P     P_3+3 0.126138 0.221123 0.615370 1.125795
P6    P     P_3+3 0.611594 0.605623 0.273405 0.927734
P7    P     P_3+3 0.574053 0.264372 0.451766 1.048053
P8    P     P_3+3 0.576122 0.402716 0.727574 0.926101
S1    S     S_3+6 0.160252 0.158712 0.132795 -0.082259
O25   O     O_2   0.083683 0.064289 0.138525 -0.284147
O26   O     O_2   0.049384 0.213858 0.090176 -0.300633
O27   O     O_3   0.336553 0.143225 0.092010 -0.508392
H52   H     H_    0.307045 0.110345 0.043690 0.371865
H53   H     H_    0.723841 0.232078 0.704063 -0.052477
H54   H     H_    0.366634 0.511886 0.342631 0.057807
S2    S     S_3+6 0.965344 0.022021 0.665378 -0.100457
O28   O     O_2   0.958735 0.087285 0.734167 -0.291661
O29   O     O_2   0.897467 0.928292 0.678352 -0.306629
O30   O     O_3   0.159233 0.009499 0.643589 -0.514341
H55   H     H_    0.154655 0.973744 0.594922 0.307145
S3    S     S_3+6 0.954411 0.219645 0.453668 -0.068952
O31   O     O_2   0.954998 0.324166 0.457993 -0.298657
O32   O     O_2   0.122117 0.183051 0.454756 -0.269891
O33   O     O_3   0.858981 0.164299 0.379492 -0.542888
H56   H     H_    0.825021 0.214985 0.352412 0.342194

loop_
_geom_bond_atom_site_label_1
_geom_bond_atom_site_label_2
_ccdc_geom_bond_type
C5    H25   S    
C53   C54   S    
O6    P8    S    
C49   S3    S    
C3    H17   S    
O33   H56   S    
C34   H50   S    
C32   C35   A    
C39   C40   A    
Ba1   O23   S    
C17   C29   A    
C45   H4    S    
O27   H52   S    
Ba2   O9    S    
C5    C6    S    
C55   O2    S    
C33   H38   S    
C42   C43   A    
C12   O3    S    
C3    O15   S    
C8    H30   S    
C14   H35   S    
C35   C36   A    
C10   C26   A    
C31   H43   S    
C21   C27   A    
C1    H11   S    
O19   P6    D    
C55   H9    S    
C32   C33   A    
O22   P2    D    
S2    O29   D    
C3    C4    S    
Ba2   O4    S    
C48   P7    S    
C56   H13   S    
C4    H20   S    
C1    H22   S    
C38   C47   A    
C9    C22   A    
C15   C18   A    
C34   C45   S    
C26   H36   S    
Ba1   Ba2   S    
O5    P4    S    
C1    H16   S    
Ba1   O13   S    
C12   H32   S    
C45   H2    S    
C9    C13   A    
C24   C32   A    
C8    H31   S    
C25   C37   A    
C14   C15   A    
C53   O20   S    
C53   H5    S    
O24   P3    D    
C50   P5    S    
C39   C44   A    
O12   P1    S    
C7    C8    S    
S3    O32   D    
C54   S1    S    
C46   C48   A    
C19   C20   A    
C23   H23   S    
Ba2   P4    S    
S1    O27   S    
O18   P6    S    
O3    P3    S    
O21   P6    S    
C40   H44   S    
C42   H45   S    
C23   H48   S    
C48   C49   A    
Ba2   O13   S    
C49   C50   A    
S3    O33   S    
S2    O30   S    
O16   P8    D    
C27   H37   S    
C16   C17   A    
C4    H19   S    
C2    O21   S    
Ba2   O14   S    
C28   H41   S    
C6    H27   S    
C16   C21   A    
C46   C52   A    
C13   C17   A    
C41   C42   A    
C22   C30   A    
C45   H3    S    
C27   C28   A    
C5    O11   S    
Ba1   O1    S    
C38   H46   S    
Ba2   O6    S    
C29   C30   A    
C20   P4    S    
C28   C29   A    
O23   P3    S    
C53   H6    S    
C15   C16   A    
C24   C25   A    
Ba1   O8    S    
C18   C19   A    
C36   H54   S    
C2    H15   S    
C46   C47   A    
C8    H33   S    
C11   C13   A    
C35   P6    S    
O4    P4    D    
O1    P1    D    
O8    P7    S    
O11   P5    S    
Ba1   O5    S    
C38   C44   A    
C55   H10   S    
C1    C2    S    
C34   O7    S    
C34   H51   S    
C39   P2    S    
C50   C51   A    
C23   H49   S    
O7    P4    S    
Ba2   O12   S    
C52   H47   S    
C6    H26   S    
O10   P5    D    
C10   H40   S    
C18   P8    S    
O15   P7    S    
C56   H12   S    
Ba1   O18   S    
C22   C24   A    
Ba1   O22   S    
C43   C52   A    
C9    C10   A    
C12   H42   S    
C54   H7    S    
Ba2   O8    S    
O17   P8    S    
C7    O17   S    
C30   C31   A    
C3    H18   S    
O9    P5    S    
S2    O28   D    
C7    H29   S    
Ba2   O5    S    
C6    H28   S    
C56   H14   S    
C55   C56   S    
C36   C37   A    
C54   H8    S    
O14   P7    D    
C2    H1    S    
C31   C33   A    
C7    H53   S    
S1    O26   D    
C12   C23   S    
C11   H39   S    
C41   P3    S    
O2    P2    S    
Ba1   O12   S    
O13   P2    S    
C47   C51   A    
C4    H21   S    
O20   P1    S    
C43   C44   A    
S3    O31   D    
C5    H24   S    
O30   H55   S    
C40   C41   A    
C11   C14   A    
C25   C26   A    
S1    O25   D    
C20   C21   A    
Ba1   P2    S    
C51   S2    S    
C19   H34   S    
Ba1   P1    S    
C37   P1    S    
