data_mof_unit_41447.cif
_audit_creation_date              2012-12-11T15:39:18-0500
_audit_creation_method            fapswitch 2.2
_symmetry_space_group_name_H-M    P1
_symmetry_Int_Tables_number       1
_space_group_crystal_system       triclinic
_cell_length_a                    6.946764
_cell_length_b                    15.090017
_cell_length_c                    16.613131
_cell_angle_alpha                 95.609202
_cell_angle_beta                  90.261217
_cell_angle_gamma                 90.322319
_cell_volume                      1733.1120765

loop_
_atom_site_label
_atom_site_type_symbol
_atom_type_description
_atom_site_fract_x
_atom_site_fract_y
_atom_site_fract_z
_atom_type_partial_charge
O1    O     O_R   0.633330 0.174290 0.828230 -0.536681
O2    O     O_R   0.366670 0.825710 0.171770 -0.536680
O3    O     O_R   0.301450 0.154140 0.662030 -0.542097
O4    O     O_R   0.698550 0.845860 0.337970 -0.542097
O5    O     O_R   0.133140 0.325730 0.671770 -0.534340
O6    O     O_R   0.866860 0.674270 0.328230 -0.534340
C1    C     C_R   0.470391 0.131458 0.633249 0.674905
C2    C     C_R   0.529609 0.868542 0.366751 0.674905
O7    O     O_R   0.303490 0.163670 0.827000 -0.539025
O8    O     O_R   0.696510 0.836330 0.173000 -0.539025
O9    O     O_R   0.135190 0.335320 0.837920 -0.541447
O10   O     O_R   0.864810 0.664680 0.162080 -0.541447
C3    C     C_R   0.472415 0.143462 0.854200 0.723613
C4    C     C_R   0.527585 0.856537 0.145800 0.723613
O11   O     O_R   0.631280 0.164690 0.662080 -0.541110
O12   O     O_R   0.368720 0.835310 0.337920 -0.541110
O13   O     O_3   0.467420 0.306310 0.753380 -0.361619
O14   O     O_3   0.532580 0.693690 0.246620 -0.361619
V1    V     V_3+5 0.191790 0.239560 0.749370 1.405210
V2    V     V_3+5 0.808210 0.760440 0.250630 1.405210
O15   O     O_R   0.805590 0.345870 0.837970 -0.532957
O16   O     O_R   0.194410 0.654130 0.162030 -0.532957
C5    C     C_R   0.975566 0.368192 0.866426 0.703916
C6    C     C_R   0.024434 0.631807 0.133574 0.703916
O17   O     O_R   0.803560 0.336340 0.672990 -0.532059
O18   O     O_R   0.196440 0.663660 0.327010 -0.532059
C7    C     C_R   0.972414 0.356742 0.645966 0.726368
C8    C     C_R   0.027586 0.643258 0.354034 0.726368
V3    V     V_3+5 0.692030 0.260450 0.750630 1.432238
V4    V     V_3+5 0.307970 0.739550 0.249370 1.432238
O19   O     O_3   0.966260 0.193700 0.746610 -0.373102
O20   O     O_3   0.033740 0.806300 0.253390 -0.373102
C9    C     C_1   0.982864 0.418665 0.583486 -0.199909
C10   C     C_1   0.017136 0.581335 0.416514 -0.199909
C11   C     C_1   0.993433 0.469898 0.530961 -0.013604
C12   C     C_1   0.006566 0.530102 0.469039 -0.013605
C13   C     C_3   0.819500 0.524389 0.023369 -0.268878
C14   C     C_3   0.180500 0.475611 0.976630 -0.268878
C15   C     C_3   0.907750 0.532112 0.938190 -0.066152
C16   C     C_3   0.092250 0.467888 0.061810 -0.066151
H1    H     H_    0.671998 0.543069 0.043755 0.138623
H2    H     H_    0.328002 0.456931 0.956245 0.138623
C17   C     C_3   0.989809 0.437542 0.937029 -0.176184
C18   C     C_3   0.010191 0.562459 0.062971 -0.176185
C19   C     C_3   0.905602 0.429774 0.021532 0.441294
C20   C     C_3   0.094398 0.570226 0.978468 0.441292
C21   C     C_3   0.675884 0.029143 0.523532 -0.109548
C22   C     C_3   0.324116 0.970857 0.476468 -0.109548
C23   C     C_3   0.604542 0.931526 0.521735 -0.144533
C24   C     C_3   0.395457 0.068474 0.478265 -0.144533
H3    H     H_    0.691523 0.874918 0.539256 0.099654
H4    H     H_    0.308477 0.125082 0.460744 0.099654
H5    H     H_    0.821713 0.053225 0.543044 0.111261
H6    H     H_    0.178286 0.946775 0.456956 0.111261
C25   C     C_3   0.516146 0.938793 0.437558 -0.006409
C26   C     C_3   0.483854 0.061206 0.562442 -0.006409
C27   C     C_3   0.587227 0.035625 0.438592 -0.145625
C28   C     C_3   0.412773 0.964375 0.561408 -0.145624
H7    H     H_    0.659788 0.064631 0.387769 0.101598
H8    H     H_    0.340211 0.935369 0.612231 0.101598
C29   C     C_1   0.482772 0.081457 0.916621 -0.202570
C30   C     C_1   0.517228 0.918543 0.083379 -0.202570
C31   C     C_1   0.493370 0.030131 0.969065 -0.003376
C32   C     C_1   0.506629 0.969869 0.030935 -0.003378
C33   C     C_R   0.814784 0.566855 0.865769 0.096216
C34   C     C_R   0.621622 0.593131 0.867761 -0.119792
C35   C     C_R   0.536211 0.624514 0.799718 -0.104726
C36   C     C_R   0.643720 0.630295 0.729508 -0.110872
C37   C     C_R   0.836617 0.604441 0.727196 -0.134516
C38   C     C_R   0.921830 0.572411 0.794933 -0.109472
H9    H     H_    0.537539 0.589016 0.921706 0.152249
H10   H     H_    0.386833 0.644378 0.801336 0.141118
H11   H     H_    0.577601 0.654783 0.676941 0.106536
H12   H     H_    0.920019 0.609119 0.672909 0.116616
H13   H     H_    0.071026 0.551956 0.792262 0.110022
C39   C     C_R   0.185216 0.433145 0.134231 0.096220
C40   C     C_R   0.378378 0.406868 0.132238 -0.119791
C41   C     C_R   0.463789 0.375485 0.200281 -0.104727
C42   C     C_R   0.356281 0.369704 0.270491 -0.110872
C43   C     C_R   0.163384 0.395559 0.272804 -0.134518
C44   C     C_R   0.078170 0.427589 0.205067 -0.109473
H14   H     H_    0.462461 0.410983 0.078293 0.152248
H15   H     H_    0.613167 0.355620 0.198662 0.141120
H16   H     H_    0.422400 0.345216 0.323058 0.106536
H17   H     H_    0.079982 0.390882 0.327091 0.116616
H18   H     H_    0.928974 0.448045 0.207738 0.110022
O21   O     O_3   0.798928 0.357964 0.047469 -0.574314
C45   C     C_3   0.897825 0.276839 0.030298 0.086916
H19   H     H_    0.057179 0.284118 0.035864 0.115008
H20   H     H_    0.861304 0.247814 0.968096 0.133334
C46   C     C_3   0.832267 0.211577 0.088905 -0.719680
H21   H     H_    0.673759 0.201939 0.084546 0.225505
H22   H     H_    0.903325 0.146321 0.074042 0.185608
H23   H     H_    0.871426 0.237470 0.151763 0.216787
O22   O     O_3   0.201073 0.642036 0.952531 -0.574314
C47   C     C_3   0.102176 0.723161 0.969701 0.086916
H24   H     H_    0.138686 0.752184 0.031905 0.133331
H25   H     H_    0.942823 0.715882 0.964129 0.115010
C48   C     C_3   0.167749 0.788425 0.911098 -0.719672
H26   H     H_    0.128601 0.762535 0.848238 0.216783
H27   H     H_    0.096691 0.853681 0.925961 0.185607
H28   H     H_    0.326257 0.798062 0.915462 0.225505

loop_
_geom_bond_atom_site_label_1
_geom_bond_atom_site_label_2
_ccdc_geom_bond_type
C22   C25   S    
V4    O20   S    
O21   C45   S    
O13   V3    S    
O22   C47   S    
O4    C2    A    
V1    O19   S    
C21   C23   S    
C40   C41   A    
C7    C9    S    
C22   H6    S    
O9    V1    S    
C19   O21   S    
C14   H2    S    
O3    C1    A    
C42   H16   S    
C27   H7    S    
C46   H22   S    
O12   V4    S    
C33   C38   A    
C4    C30   S    
C47   C48   S    
C5    C17   S    
C35   H10   S    
C29   C31   T    
O7    C3    A    
C30   C32   T    
C9    C11   T    
O5    C7    A    
C41   H15   S    
O7    V1    S    
O6    C8    A    
C20   O22   S    
C48   H26   S    
O8    V2    S    
C36   C37   A    
C23   H3    S    
C47   H25   S    
C24   H4    S    
O3    V1    S    
O14   V4    S    
C10   C12   T    
C44   H18   S    
C21   H5    S    
C22   C24   S    
C34   C35   A    
C8    C10   S    
C2    O12   A    
C15   C33   S    
C1    C26   S    
C2    C25   S    
C18   C20   S    
O11   V3    S    
O17   V3    S    
C16   C19   S    
C31   C32   S    
C35   C36   A    
C39   C40   A    
O8    C4    A    
C46   H21   S    
C41   C42   A    
C15   C17   S    
C1    O11   A    
C36   H11   S    
C23   C25   S    
O15   V3    S    
C24   C26   S    
C23   C28   S    
C16   C39   S    
C11   C12   S    
C43   H17   S    
C21   C27   S    
C34   H9    S    
C45   C46   S    
C47   H24   S    
O10   V2    S    
O1    V3    S    
C37   H12   S    
C17   C19   S    
C15   C20   S    
C48   H27   S    
C45   H20   S    
O18   V4    S    
C25   C27   S    
C6    C18   S    
O16   C6    A    
O1    C3    A    
C13   C19   S    
V2    O20   S    
O16   V4    S    
C24   C27   S    
C43   C44   A    
C39   C44   A    
C22   C28   S    
O5    V1    S    
O17   C7    A    
O6    V2    S    
O10   C6    A    
O18   C8    A    
O2    V4    S    
C13   C18   S    
O15   C5    A    
C14   C17   S    
V3    O19   S    
C46   H23   S    
C14   C16   S    
C40   H14   S    
O9    C5    A    
O13   V1    S    
C26   C28   S    
O14   V2    S    
C13   H1    S    
C37   C38   A    
O2    C4    A    
C14   C20   S    
C42   C43   A    
O4    V2    S    
C16   C18   S    
C48   H28   S    
C3    C29   S    
C45   H19   S    
C13   C15   S    
C33   C34   A    
C38   H13   S    
C28   H8    S    
C21   C26   S    
