data_mof_unit_29902.cif
_audit_creation_date              2013-03-05T15:45:48-0500
_audit_creation_method            fapswitch 2.2
_symmetry_space_group_name_H-M    P1
_symmetry_Int_Tables_number       1
_space_group_crystal_system       triclinic
_cell_length_a                    9.990986
_cell_length_b                    11.107861
_cell_length_c                    15.80564
_cell_angle_alpha                 97.368254
_cell_angle_beta                  78.058579
_cell_angle_gamma                 112.113374
_cell_volume                      1587.43445604

loop_
_atom_site_label
_atom_site_type_symbol
_atom_site_description
_atom_site_fract_x
_atom_site_fract_y
_atom_site_fract_z
_atom_type_partial_charge
O1    O     O_R   0.426810 0.668300 0.492040 -0.603665
O2    O     O_R   0.573190 0.331700 0.507960 -0.603900
O3    O     O_R   0.658240 0.703130 0.517240 -0.484980
O4    O     O_R   0.341760 0.296870 0.482760 -0.484906
C1    C     C_R   0.557069 0.745473 0.506493 0.750941
C2    C     C_R   0.442874 0.254500 0.493587 0.750208
O5    O     O_R   0.319390 0.472820 0.610170 -0.552808
O6    O     O_R   0.680610 0.527180 0.389830 -0.552813
O7    O     O_R   0.550820 0.507640 0.635370 -0.561551
O8    O     O_R   0.449180 0.492360 0.364630 -0.561283
C3    C     C_R   0.409828 0.481735 0.662322 0.800445
C4    C     C_R   0.590175 0.518270 0.337678 0.801026
Cu1   Cu    Cu3+1 0.362980 0.479380 0.485080 1.102577
Cu2   Cu    Cu3+1 0.637020 0.520620 0.514920 1.102333
C5    C     C_R   0.353141 0.459599 0.755262 -0.108489
C6    C     C_R   0.646871 0.540452 0.244743 -0.108713
C7    C     C_R   0.166337 0.356755 0.875362 -0.211719
C8    C     C_R   0.833671 0.643357 0.124659 -0.211766
C9    C     C_R   0.207494 0.380247 0.787468 0.163787
C10   C     C_R   0.792534 0.619775 0.212540 0.163965
C11   C     C_R   0.454169 0.510940 0.812282 -0.246961
C12   C     C_R   0.545831 0.489198 0.187726 -0.246681
C13   C     C_R   0.417405 0.478730 0.899534 0.088061
C14   C     C_R   0.582584 0.521482 0.100491 0.088113
C15   C     C_R   0.269478 0.403616 0.931016 0.111844
C16   C     C_R   0.730512 0.596589 0.069014 0.111871
C17   C     C_R   0.523106 0.517263 0.955896 0.071919
C18   C     C_R   0.476876 0.483001 0.044138 0.071939
C19   C     C_R   0.326168 0.413676 0.073389 -0.184700
C20   C     C_R   0.673807 0.586628 0.926655 -0.184830
C21   C     C_R   0.225424 0.373826 0.017583 -0.186206
C22   C     C_R   0.774553 0.626449 0.982459 -0.186134
H1    H     H_    0.111625 0.318582 0.042556 0.162220
H2    H     H_    0.888349 0.681708 0.957492 0.162185
H3    H     H_    0.437821 0.425144 0.213959 0.180007
H4    H     H_    0.562180 0.574987 0.786035 0.180012
H5    H     H_    0.054039 0.296711 0.899694 0.162069
H6    H     H_    0.945977 0.703380 0.100329 0.162038
H7    H     H_    0.280909 0.388199 0.139379 0.168871
H8    H     H_    0.719060 0.612161 0.860674 0.168837
H9    H     H_    0.619677 0.138387 0.510091 0.226584
H10   H     H_    0.378773 0.861670 0.492947 0.227128
C23   C     C_2   0.590114 0.886304 0.511844 0.142801
C24   C     C_2   0.409817 0.113622 0.488326 0.142767
C25   C     C_2   0.486281 0.930571 0.501811 -0.195228
C26   C     C_2   0.512883 0.069438 0.499906 -0.196199
N1    N     N_2   0.842890 0.551600 0.537350 -0.100621
N2    N     N_2   0.157110 0.448400 0.462650 -0.100611
C27   C     C_2   0.925906 0.491610 0.490108 0.246049
C28   C     C_2   0.074050 0.508335 0.509911 0.246195
I1    I     I_    0.956107 0.720920 0.289794 -0.130800
I2    I     I_    0.044014 0.278887 0.710195 -0.133317
N3    N     N_R   0.269560 0.026617 0.469641 0.160677
O9    O     O_R   0.150658 0.043899 0.510904 -0.185792
O10   O     O_R   0.262719 0.946835 0.401357 -0.293681
N4    N     N_R   0.731543 0.973236 0.528601 0.161129
O11   O     O_R   0.849283 0.956811 0.484605 -0.188490
O12   O     O_R   0.741165 0.051282 0.597757 -0.291745
I3    I     I_    0.145823 0.633819 0.620925 -0.202721
I4    I     I_    0.853942 0.365923 0.379200 -0.200677
N5    N     N_R   0.088142 0.317272 0.440323 0.247395
O13   O     O_R   0.143519 0.266354 0.369653 -0.285494
O14   O     O_R   0.993211 0.240236 0.497991 -0.249382
N6    N     N_R   0.911900 0.682743 0.559658 0.247104
O15   O     O_R   0.856506 0.733699 0.630306 -0.286230
O16   O     O_R   0.006930 0.759763 0.502005 -0.250003

loop_
_geom_bond_atom_site_label_1
_geom_bond_atom_site_label_2
_geom_bond_distance
_ccdc_geom_bond_type
C15   C21   1.390179 A    
Cu1   N2    2.052384 S    
O5    C3    1.313626 A    
O7    Cu2   1.919722 S    
C21   H1    1.084517 S    
C16   C22   1.390183 A    
Cu2   N1    2.052385 S    
C13   C17   1.429419 A    
C23   C25   1.347314 D    
C8    C16   1.400176 A    
O6    C4    1.313617 A    
H9    C26   1.084038 S    
C7    C15   1.400167 A    
N6    O15   1.300596 A    
C19   H7    1.075469 S    
N2    C28   1.312143 D    
C8    H6    1.084146 S    
C20   H8    1.075463 S    
N1    C27   1.312132 D    
C11   H4    1.074807 S    
C2    C24   1.467523 S    
N3    O9    1.300918 A    
C17   C20   1.415700 A    
C20   C22   1.385244 A    
C12   H3    1.074763 S    
O7    C3    1.313971 A    
N6    O16   1.301584 A    
N2    N5    1.390692 S    
O2    C2    1.309192 A    
C27   I4    2.162664 S    
O8    C4    1.313991 A    
O3    Cu2   1.953656 S    
O1    C1    1.309043 A    
C28   I3    2.162582 S    
C9    I2    2.124952 S    
O4    C2    1.312063 A    
C18   C19   1.415702 A    
C7    C9    1.393873 A    
C14   C16   1.414821 A    
C5    C9    1.412950 A    
C10   I1    2.124992 S    
C8    C10   1.393883 A    
N3    O10   1.301710 A    
C11   C13   1.408107 A    
C1    C23   1.466987 S    
N5    O13   1.300570 A    
O2    Cu2   1.945445 S    
C12   C14   1.408080 A    
C5    C11   1.402684 A    
O1    Cu1   1.945443 S    
C6    C12   1.402678 A    
C6    C10   1.412959 A    
C14   C18   1.429411 A    
C23   N4    1.435687 S    
O4    Cu1   1.953658 S    
C13   C15   1.414850 A    
N4    O11   1.300446 A    
C19   C21   1.385231 A    
C27   C28   1.514259 S    
N1    N6    1.390830 S    
N5    O14   1.301487 A    
C7    H5    1.084157 S    
O5    Cu1   1.939266 S    
O6    Cu2   1.939264 S    
Cu1   Cu2   2.731894 S    
O3    C1    1.311971 A    
C25   C26   1.466571 S    
C3    C5    1.477361 S    
C24   N3    1.436428 S    
O8    Cu1   1.919719 S    
C24   C26   1.347688 D    
C4    C6    1.477384 S    
N4    O12   1.301247 A    
C17   C18   1.428507 A    
H10   C25   1.083951 S    
C22   H2    1.084508 S    
