data_mof_unit_21603.cif
_audit_creation_date              2013-03-05T15:55:01-0500
_audit_creation_method            fapswitch 2.2
_symmetry_space_group_name_H-M    P1
_symmetry_Int_Tables_number       1
_space_group_crystal_system       triclinic
_cell_length_a                    23.387301
_cell_length_b                    10.618879
_cell_length_c                    9.919031
_cell_angle_alpha                 89.760969
_cell_angle_beta                  90.026546
_cell_angle_gamma                 91.96878
_cell_volume                      2461.88510853

loop_
_atom_site_label
_atom_site_type_symbol
_atom_site_description
_atom_site_fract_x
_atom_site_fract_y
_atom_site_fract_z
_atom_type_partial_charge
O1    O     O_R   0.500000 0.316780 0.614690 -0.642794
O2    O     O_R   0.500000 0.316750 0.385360 -0.633408
C1    C     C_R   0.501928 0.260794 0.500282 0.858370
O3    O     O_R   0.416160 0.499970 0.614690 -0.609900
O4    O     O_R   0.416150 0.499950 0.385360 -0.640577
C2    C     C_R   0.389209 0.501226 0.500031 0.903332
Zn1   Zn    Zn3+2 0.500000 0.500020 0.653130 0.966754
Zn2   Zn    Zn3+2 0.500000 0.499980 0.346870 0.978027
O5    O     O_R   0.500000 0.683250 0.614640 -0.598340
O6    O     O_R   0.500000 0.683220 0.385310 -0.592022
O7    O     O_R   0.583850 0.500050 0.614640 -0.641322
O8    O     O_R   0.583840 0.500030 0.385310 -0.595539
C3    C     C_R   0.502067 0.739397 0.499728 0.887608
C4    C     C_R   0.610584 0.499584 0.500078 0.851260
C5    C     C_R   0.882827 0.570561 0.443002 0.554705
N1    N     N_R   0.851828 0.471192 0.496452 -0.341874
C6    C     C_R   0.876860 0.363800 0.539454 0.562278
C7    C     C_R   0.936326 0.354677 0.532987 -0.023190
C8    C     C_R   0.969218 0.456860 0.480687 -0.015897
C9    C     C_R   0.942195 0.565431 0.433610 -0.013135
C10   C     C_R   0.963165 0.245451 0.575248 -0.197773
C11   C     C_R   0.022734 0.237227 0.569748 -0.009578
C12   C     C_R   0.056635 0.343568 0.525916 -0.067933
C13   C     C_R   0.029171 0.451296 0.476330 -0.025790
C14   C     C_R   0.061499 0.554670 0.423293 -0.004553
C15   C     C_R   0.033988 0.660140 0.372329 -0.174750
C16   C     C_R   0.974878 0.665979 0.378511 -0.149493
C17   C     C_R   0.116913 0.349095 0.532595 0.571025
N2    N     N_R   0.146967 0.449957 0.479270 -0.331576
C18   C     C_R   0.120874 0.550763 0.423944 0.525644
O9    O     O_2   0.856073 0.673943 0.399830 -0.545178
O10   O     O_2   0.844201 0.266856 0.588491 -0.558389
H1    H     H_    0.937652 0.164504 0.609966 0.194742
O11   O     O_2   0.145635 0.257162 0.594254 -0.531475
O12   O     O_2   0.152670 0.647733 0.371873 -0.581908
H2    H     H_    0.058029 0.739201 0.328861 0.179471
H3    H     H_    0.954957 0.749579 0.340400 0.191658
C19   C     C_R   0.233602 0.495365 0.605470 -0.153791
H4    H     H_    0.206743 0.516237 0.691067 0.170418
C20   C     C_R   0.292556 0.518011 0.612888 -0.060170
C21   C     C_R   0.326393 0.493500 0.498034 -0.142960
C22   C     C_R   0.299802 0.451886 0.378254 -0.213511
H5    H     H_    0.325370 0.433453 0.290084 0.202709
C23   C     C_R   0.240763 0.430308 0.370691 0.010019
C24   C     C_R   0.207801 0.453448 0.486024 0.229901
C25   C     C_R   0.760291 0.451072 0.384802 -0.121140
H6    H     H_    0.782259 0.423731 0.293939 0.150390
C26   C     C_R   0.701400 0.459022 0.383680 -0.138712
H7    H     H_    0.678332 0.436338 0.291753 0.194526
C27   C     C_R   0.672727 0.494027 0.500645 -0.065571
C28   C     C_R   0.703529 0.521048 0.619024 -0.279615
H8    H     H_    0.680933 0.548985 0.708812 0.205497
C29   C     C_R   0.763163 0.514533 0.621585 0.004994
C30   C     C_R   0.791252 0.478440 0.502179 0.242848
H9    H     H_    0.429989 0.109125 0.377952 0.191013
C31   C     C_R   0.597012 0.137746 0.629301 -0.174498
H10   H     H_    0.599378 0.239539 0.629375 0.156366
C32   C     C_R   0.641411 0.074960 0.691357 -0.105394
H11   H     H_    0.676116 0.128223 0.738963 0.162809
C33   C     C_R   0.641548 0.943909 0.690548 -0.106071
H12   H     H_    0.676346 0.895351 0.737548 0.159644
C34   C     C_R   0.597305 0.875170 0.627602 -0.178139
H13   H     H_    0.599911 0.773717 0.626197 0.141385
C35   C     C_R   0.551558 0.937377 0.565605 0.086223
C36   C     C_R   0.551410 0.069419 0.566444 0.097032
C37   C     C_R   0.506132 0.128715 0.500271 -0.099720
C38   C     C_R   0.463798 0.061648 0.429895 -0.198151
H14   H     H_    0.429881 0.881113 0.376937 0.172354
C39   C     C_R   0.463845 0.933175 0.429191 -0.131400
C40   C     C_R   0.506377 0.871949 0.498870 -0.093715
C41   C     C_R   0.423649 0.336280 0.140102 -0.235619
H15   H     H_    0.422371 0.331146 0.247055 0.222700
C42   C     C_R   0.384733 0.257061 0.070156 -0.019940
C43   C     C_R   0.385865 0.257515 0.929862 -0.167977
H16   H     H_    0.356684 0.196912 0.872749 0.208528
C44   C     C_R   0.424346 0.336273 0.860385 -0.164607
H17   H     H_    0.422518 0.329817 0.753497 0.208109
C45   C     C_R   0.462702 0.419085 0.928032 0.176394
C46   C     C_R   0.462585 0.419023 0.072409 0.135388
N3    N     N_R   0.499460 0.498800 0.142780 -0.158514
C47   C     C_R   0.535517 0.578553 0.070155 0.006240
H18   H     H_    0.564093 0.641424 0.871843 0.147167
C48   C     C_R   0.535396 0.577885 0.927191 -0.127672
N4    N     N_R   0.499440 0.498720 0.857170 -0.119694
C49   C     C_2   0.794295 0.546894 0.748760 0.932890
O13   O     O_2   0.846439 0.559641 0.750374 -0.621295
O14   O     O_R   0.763555 0.564148 0.867890 -0.803833
H19   H     H_    0.789204 0.585986 0.947473 0.360102
C50   C     C_2   0.574562 0.668635 0.138325 0.963252
O15   O     O_2   0.623463 0.639383 0.163964 -0.626615
O16   O     O_R   0.556678 0.790129 0.165401 -0.786829
H20   H     H_    0.587418 0.844206 0.211375 0.341411
C51   C     C_R   0.046811 0.112968 0.600743 0.169378
C52   C     C_R   0.076880 0.048374 0.501343 -0.075662
C53   C     C_R   0.099345 0.931007 0.530142 -0.122819
C54   C     C_R   0.090604 0.875495 0.656746 -0.076416
C55   C     C_R   0.059780 0.937963 0.755302 -0.108765
C56   C     C_R   0.037907 0.056307 0.727618 -0.133849
H21   H     H_    0.083446 0.089719 0.402286 0.149267
H22   H     H_    0.123539 0.883195 0.454182 0.180735
H23   H     H_    0.107699 0.784129 0.678385 0.143492
H24   H     H_    0.052944 0.894817 0.853286 0.145808
H25   H     H_    0.014289 0.103979 0.804984 0.140419
C57   C     C_2   0.342457 0.174067 0.142811 0.945566
O17   O     O_2   0.338108 0.179575 0.265468 -0.676189
O18   O     O_R   0.306830 0.089966 0.070711 -0.770019
H26   H     H_    0.279638 0.039328 0.131237 0.359916
C58   C     C_2   0.315803 0.573170 0.739412 0.933509
O19   O     O_2   0.350190 0.662523 0.735507 -0.595366
O20   O     O_R   0.296311 0.526044 0.863595 -0.759140
H27   H     H_    0.315151 0.571028 0.942824 0.360681
C59   C     C_2   0.214727 0.383937 0.242078 0.965431
O21   O     O_2   0.241890 0.392776 0.136875 -0.595591
O22   O     O_R   0.159678 0.328258 0.240518 -0.817248
H28   H     H_    0.147162 0.300628 0.147020 0.353228

loop_
_geom_bond_atom_site_label_1
_geom_bond_atom_site_label_2
_geom_bond_distance
_ccdc_geom_bond_type
O14   H19   1.014050 S    
C51   C52   1.405895 A    
C7    C10   1.400247 A    
C21   C22   1.406559 A    
C53   C54   1.397162 A    
C57   O18   1.398895 S    
O22   H28   1.013893 S    
C4    C27   1.456572 S    
C29   C30   1.415291 A    
C58   O19   1.223053 D    
Zn1   O7    1.998006 S    
C15   C16   1.387356 A    
C34   H13   1.081271 S    
C43   C44   1.388646 A    
C18   O12   1.350314 S    
C17   N2    1.365589 A    
C44   C45   1.406550 A    
O1    C1    1.284840 A    
O4    C2    1.300884 A    
O7    C4    1.297358 A    
C10   H1    1.084416 S    
C3    C40   1.407690 S    
C32   C33   1.391789 A    
C56   H25   1.083100 S    
C31   H10   1.080446 S    
C33   C34   1.394485 A    
C7    C8    1.405901 A    
C42   C43   1.391825 A    
O5    C3    1.284287 A    
O20   H27   1.014028 S    
C59   O21   1.223530 D    
C19   C24   1.396877 A    
C34   C35   1.415540 A    
C42   C57   1.486305 S    
C8    C9    1.411354 A    
C31   C32   1.394694 A    
N1    C6    1.366276 A    
C2    C21   1.468705 S    
C12   C13   1.417250 A    
C35   C40   1.410732 A    
C50   O16   1.396984 S    
C55   H24   1.082342 S    
C20   C58   1.482327 S    
C47   C50   1.466600 S    
C26   C27   1.398325 A    
Zn1   N4    2.023914 S    
C17   O11   1.348327 S    
O1    Zn1   1.984368 S    
C10   C11   1.399984 A    
C52   C53   1.397425 A    
C22   C23   1.393912 A    
O3    Zn1   1.997329 S    
C59   O22   1.398232 S    
C57   O17   1.222747 D    
C47   C48   1.418109 A    
C55   C56   1.399103 A    
C49   O14   1.399417 S    
C5    C9    1.394580 A    
C25   C26   1.382817 A    
C43   H16   1.083208 S    
C28   H8    1.083452 S    
C13   C14   1.411341 A    
O3    C2    1.300272 A    
O16   H20   1.013941 S    
C41   C42   1.403224 A    
C45   C46   1.432086 A    
H14   C39   1.084917 S    
C27   C28   1.402812 A    
C14   C15   1.402964 A    
C49   O13   1.222482 D    
C41   C46   1.411634 A    
N2    C24   1.423496 S    
C33   H12   1.082602 S    
C28   C29   1.398981 A    
N2    C18   1.363486 A    
C31   C36   1.415127 A    
C48   N4    1.360863 A    
Zn2   O8    1.997326 S    
C54   C55   1.397961 A    
C25   C30   1.397093 A    
C6    C7    1.398943 A    
C12   C17   1.410466 A    
C44   H17   1.063466 S    
C23   C59   1.491507 S    
C15   H2    1.082410 S    
C20   C21   1.417508 A    
O8    C4    1.298719 A    
C36   C37   1.410806 A    
C11   C51   1.483299 S    
C1    C37   1.409330 S    
C22   H5    1.081986 S    
C23   C24   1.406969 A    
C14   C18   1.390683 A    
Zn1   O5    1.981238 S    
C25   H6    1.083244 S    
C26   H7    1.083034 S    
C53   H22   1.081175 S    
C8    C13   1.406119 A    
O2    Zn2   1.981237 S    
N3    C47   1.376105 A    
O6    C3    1.284462 A    
O4    Zn2   1.998008 S    
H9    C38   1.081503 S    
C5    O9    1.350205 S    
C9    C16   1.400849 A    
C35   C36   1.402312 A    
O2    C1    1.284771 A    
C32   H11   1.082588 S    
C41   H15   1.062430 S    
C19   C20   1.393376 A    
C19   H4    1.084528 S    
C52   H21   1.083351 S    
C16   H3    1.083276 S    
C58   O20   1.398293 S    
C37   C38   1.389176 A    
C39   C40   1.389206 A    
N1    C30   1.422605 S    
C46   N3    1.379416 A    
C45   N4    1.375879 A    
Zn2   O6    1.984370 S    
H18   C48   1.083163 S    
O18   H26   1.013985 S    
Zn2   N3    2.024497 S    
C6    O10   1.349773 S    
C11   C12   1.423903 A    
C29   C49   1.491649 S    
C38   C39   1.364327 A    
C50   O15   1.221717 D    
C54   H23   1.082615 S    
C51   C56   1.405160 A    
C5    N1    1.365005 A    
