data_mof_unit_14903.cif
_audit_creation_date              2012-12-11T15:10:44-0500
_audit_creation_method            fapswitch 2.2
_symmetry_space_group_name_H-M    P1
_symmetry_Int_Tables_number       1
_space_group_crystal_system       triclinic
_cell_length_a                    14.747381
_cell_length_b                    14.730996
_cell_length_c                    27.86202
_cell_angle_alpha                 90.353778
_cell_angle_beta                  89.656162
_cell_angle_gamma                 120.057491
_cell_volume                      5238.74942747

loop_
_atom_site_label
_atom_site_type_symbol
_atom_type_description
_atom_site_fract_x
_atom_site_fract_y
_atom_site_fract_z
_atom_type_partial_charge
C1    C     C_R   0.564340 0.405689 0.179340 0.498578
C2    C     C_R   0.594590 0.158728 0.179742 0.497545
C3    C     C_R   0.840924 0.435004 0.179407 0.497885
C4    C     C_R   0.405156 0.564682 0.820624 0.495174
C5    C     C_R   0.158669 0.594600 0.820336 0.494505
C6    C     C_R   0.435931 0.842830 0.820623 0.492172
C7    C     C_3   0.497425 0.916359 0.467132 0.154100
C8    C     C_3   0.083582 0.581816 0.468791 0.142731
C9    C     C_3   0.417854 0.500566 0.471557 0.137370
C10   C     C_3   0.909165 0.550507 0.537528 0.130492
C11   C     C_3   0.637623 0.096033 0.537060 0.160687
C12   C     C_3   0.456304 0.356988 0.537538 0.129635
C13   C     C_1   0.482553 0.946281 0.641683 0.088426
C14   C     C_1   0.050885 0.533452 0.642369 0.105993
C15   C     C_1   0.468379 0.515035 0.643550 0.099381
C16   C     C_1   0.926799 0.473676 0.363158 0.057232
C17   C     C_1   0.546233 0.074536 0.363262 0.062070
C18   C     C_1   0.526067 0.453811 0.363598 0.065790
C19   C     C_3   0.539453 0.033826 0.456498 -0.033797
C20   C     C_3   0.966170 0.506509 0.456724 -0.008172
C21   C     C_3   0.492598 0.458491 0.457607 -0.008752
C22   C     C_3   0.992128 0.518376 0.551193 -0.032707
C23   C     C_3   0.524909 0.005658 0.550510 -0.035282
C24   C     C_3   0.483413 0.470581 0.552489 -0.029682
C25   C     C_3   0.449531 0.043420 0.533530 -0.320909
C26   C     C_3   0.949100 0.404206 0.533196 -0.331970
C27   C     C_3   0.595845 0.545695 0.533929 -0.323194
C28   C     C_3   0.936126 0.398162 0.478105 -0.317303
C29   C     C_3   0.461419 0.063558 0.478926 -0.308884
C30   C     C_3   0.601378 0.536164 0.478918 -0.306016
C31   C     C_1   0.506125 0.982413 0.602008 0.007997
C32   C     C_1   0.013706 0.520657 0.602873 0.062790
C33   C     C_1   0.482152 0.489733 0.604288 0.056538
C34   C     C_1   0.949544 0.491015 0.404784 0.007859
C35   C     C_1   0.540860 0.052067 0.404827 -0.004567
C36   C     C_1   0.507981 0.458639 0.405371 0.011296
C37   C     C_R   0.546181 0.429553 0.316512 0.553914
C38   C     C_R   0.570511 0.117168 0.316351 0.556976
C39   C     C_R   0.883106 0.453865 0.316343 0.559294
C40   C     C_R   0.432332 0.543883 0.685419 0.578332
C41   C     C_R   0.112629 0.568037 0.685032 0.583016
C42   C     C_R   0.455481 0.886665 0.684854 0.585792
C43   C     C_3   0.518029 0.102212 0.006897 0.084599
C44   C     C_3   0.884040 0.410104 0.999782 0.086969
C45   C     C_3   0.581419 0.473678 0.001052 0.066550
C46   C     C_3   0.099708 0.517028 0.993450 0.081420
C47   C     C_3   0.411453 0.887185 0.998793 0.058875
C48   C     C_3   0.473469 0.582718 0.998588 0.061164
C49   C     C_3   0.437306 0.936377 0.050522 0.029524
C50   C     C_3   0.047934 0.488221 0.044374 0.066629
C51   C     C_3   0.499696 0.553138 0.047945 0.006309
C52   C     C_3   0.935018 0.437530 0.948616 0.038889
C53   C     C_3   0.491801 0.052561 0.955684 0.066535
C54   C     C_3   0.550524 0.498199 0.951633 0.040184
C55   C     C_1   0.450663 0.873280 0.869595 0.096024
C56   C     C_1   0.125300 0.579290 0.868336 0.092098
C57   C     C_1   0.417142 0.549216 0.869985 0.096696
C58   C     C_1   0.868449 0.447874 0.129936 0.088909
C59   C     C_1   0.579122 0.125235 0.131849 0.084359
C60   C     C_1   0.549032 0.418925 0.130169 0.100556
C61   C     C_3   0.542829 0.038258 0.045495 -0.096214
C62   C     C_3   0.947823 0.494914 0.040884 -0.100610
C63   C     C_3   0.497673 0.448420 0.042024 -0.100278
C64   C     C_3   0.037202 0.542791 0.954547 -0.102480
C65   C     C_3   0.497796 0.952029 0.958621 -0.090825
C66   C     C_3   0.446433 0.497571 0.958171 -0.103873
C67   C     C_3   0.615470 0.980606 0.972228 0.303945
C68   C     C_3   0.009342 0.631882 0.970077 0.296828
C69   C     C_3   0.354213 0.383676 0.973726 0.307923
C70   C     C_3   0.978274 0.613926 0.028105 0.288328
C71   C     C_3   0.631410 0.009651 0.030174 0.292539
C72   C     C_3   0.382922 0.356649 0.027802 0.289401
C73   C     C_1   0.469915 0.903596 0.910354 0.109656
C74   C     C_1   0.089952 0.566281 0.907906 0.079758
C75   C     C_1   0.425795 0.528095 0.910772 0.053165
C76   C     C_1   0.897926 0.466105 0.088952 0.103575
C77   C     C_1   0.566024 0.090011 0.092297 0.071958
C78   C     C_1   0.528426 0.428270 0.089431 0.060755
C79   C     C_3   0.649476 0.105012 0.480857 0.245372
C80   C     C_3   0.892158 0.541845 0.481345 0.188764
C81   C     C_3   0.457200 0.348207 0.480887 0.185650
C82   C     C_3   0.098264 0.589742 0.524515 0.191864
C83   C     C_3   0.495309 0.900957 0.522699 0.239060
C84   C     C_3   0.407433 0.501244 0.527637 0.176484
Cr1   Cr    Cr6+3 0.748260 0.501860 0.250510 1.107353
Cr2   Cr    Cr6+3 0.498140 0.246400 0.250510 1.131852
Cr3   Cr    Cr6+3 0.753600 0.251740 0.250510 1.100945
Cr4   Cr    Cr6+3 0.501860 0.748260 0.749490 1.110560
Cr5   Cr    Cr6+3 0.246400 0.498140 0.749490 1.144414
Cr6   Cr    Cr6+3 0.251740 0.753600 0.749490 1.118540
H1    H     H_    0.411777 0.848367 0.530588 0.179837
H2    H     H_    0.144863 0.551794 0.530891 0.141074
H3    H     H_    0.438794 0.584856 0.536924 0.184673
H4    H     H_    0.810840 0.475569 0.475904 0.053198
H5    H     H_    0.673810 0.187580 0.471613 0.030614
H6    H     H_    0.520644 0.330467 0.472396 0.051933
H7    H     H_    0.490239 0.148073 0.472245 0.169966
H8    H     H_    0.853262 0.340766 0.469090 0.167954
H9    H     H_    0.657119 0.508318 0.470230 0.177912
H10   H     H_    0.002623 0.374856 0.543466 0.209547
H11   H     H_    0.367175 0.984830 0.542424 0.221277
H12   H     H_    0.620920 0.628119 0.543861 0.199396
H13   H     H_    0.383298 0.017320 0.461620 0.219988
H14   H     H_    0.985887 0.368811 0.461933 0.195871
H15   H     H_    0.632662 0.614948 0.462398 0.204913
H16   H     H_    0.872115 0.351028 0.550430 0.150764
H17   H     H_    0.466331 0.116846 0.552642 0.168829
H18   H     H_    0.652573 0.527172 0.551183 0.161786
H19   H     H_    0.446761 0.099532 0.019346 0.262257
H20   H     H_    0.885190 0.338660 0.008014 0.282694
H21   H     H_    0.650915 0.546415 0.011376 0.249501
H22   H     H_    0.097543 0.446307 0.980463 0.261062
H23   H     H_    0.341774 0.890496 0.989245 0.241120
H24   H     H_    0.545896 0.651764 0.987572 0.252104
H25   H     H_    0.440392 0.880843 0.075234 0.287131
H26   H     H_    0.103081 0.543583 0.070643 0.281136
H27   H     H_    0.440884 0.547277 0.072336 0.220217
H28   H     H_    0.880704 0.441607 0.923502 0.276002
H29   H     H_    0.549238 0.109069 0.930626 0.240876
H30   H     H_    0.543618 0.437958 0.927379 0.264125
H31   H     H_    0.414572 0.871091 0.454151 0.122276
H32   H     H_    0.129465 0.546101 0.454084 0.076189
H33   H     H_    0.455442 0.583709 0.459306 0.141647
H34   H     H_    0.833554 0.492404 0.554434 0.120811
H35   H     H_    0.646060 0.171698 0.550327 0.046318
H36   H     H_    0.520735 0.345597 0.551206 0.117523
O1    O     O_R   0.863770 0.527700 0.199270 -0.479084
O2    O     O_R   0.472300 0.336070 0.199270 -0.434664
O3    O     O_R   0.663930 0.136230 0.199270 -0.483697
O4    O     O_R   0.527700 0.863770 0.800730 -0.489755
O5    O     O_R   0.336070 0.472300 0.800730 -0.457682
O6    O     O_R   0.136230 0.663930 0.800730 -0.492509
O7    O     O_R   0.643280 0.490970 0.202410 -0.481040
O8    O     O_R   0.509030 0.152310 0.202410 -0.449551
O9    O     O_R   0.847690 0.356720 0.202410 -0.470297
O10   O     O_R   0.490970 0.643280 0.797590 -0.484352
O11   O     O_R   0.152310 0.509030 0.797590 -0.457122
O12   O     O_R   0.356720 0.847690 0.797590 -0.481035
O13   O     O_R   0.862920 0.527590 0.302350 -0.454694
O14   O     O_R   0.472410 0.335330 0.302350 -0.461014
O15   O     O_R   0.664670 0.137080 0.302350 -0.460879
O16   O     O_R   0.527590 0.862920 0.697650 -0.462158
O17   O     O_R   0.335330 0.472410 0.697650 -0.449731
O18   O     O_R   0.137080 0.664670 0.697650 -0.448521
O19   O     O_R   0.642490 0.490870 0.297970 -0.478587
O20   O     O_R   0.509130 0.151620 0.297970 -0.481892
O21   O     O_R   0.848380 0.357510 0.297970 -0.486644
O22   O     O_R   0.490870 0.642490 0.702030 -0.475633
O23   O     O_R   0.151620 0.509130 0.702030 -0.473770
O24   O     O_R   0.357510 0.848380 0.702030 -0.468502
O25   O     O_3   0.666667 0.333333 0.250440 -0.415895
O26   O     O_3   0.333333 0.666667 0.749560 -0.402248
S1    S     S_3+6 0.372405 0.034326 0.925644 0.099400
O27   O     O_2   0.310506 0.931715 0.900209 -0.276050
O28   O     O_2   0.298351 0.041984 0.959685 -0.093581
O29   O     O_3   0.411104 0.123937 0.882205 -0.419577
H37   H     H_    0.349275 0.100243 0.861151 0.397309
S2    S     S_3+6 0.948743 0.335330 0.915749 0.077508
O30   O     O_2   0.043334 0.373686 0.884346 -0.230087
O31   O     O_2   0.952524 0.260491 0.950374 -0.112210
O32   O     O_3   0.848824 0.275274 0.876941 -0.459640
H38   H     H_    0.868232 0.234280 0.855142 0.410540
S3    S     S_3+6 0.653088 0.616127 0.920142 0.052811
O33   O     O_2   0.616054 0.680310 0.894456 -0.260344
O34   O     O_2   0.731907 0.689009 0.955302 -0.147751
O35   O     O_3   0.707269 0.577628 0.877146 -0.420539
H39   H     H_    0.750503 0.640905 0.857505 0.406465
S4    S     S_3+6 0.028297 0.367282 0.073324 0.084567
O36   O     O_2   0.927156 0.307739 0.099932 -0.275887
O37   O     O_2   0.031709 0.292923 0.038030 -0.098393
O38   O     O_3   0.119178 0.400535 0.115741 -0.463876
H40   H     H_    0.094314 0.337426 0.136070 0.412746
S5    S     S_3+6 0.335515 0.950442 0.083562 0.057863
O39   O     O_2   0.374152 0.044104 0.115687 -0.224666
O40   O     O_2   0.261581 0.956404 0.049094 -0.154983
O41   O     O_3   0.274949 0.849284 0.121769 -0.410226
H41   H     H_    0.234759 0.868639 0.144089 0.408514
S6    S     S_3+6 0.618227 0.655594 0.078925 0.074674
O42   O     O_2   0.681822 0.618604 0.105088 -0.240017
O43   O     O_2   0.691176 0.732942 0.043276 -0.126193
O44   O     O_3   0.582327 0.712510 0.121624 -0.372422
H42   H     H_    0.539638 0.655685 0.144617 0.357263
O45   O     O_3   0.386931 0.783602 0.000188 -0.574361
H43   H     H_    0.369606 0.758613 0.966870 0.357429
O46   O     O_3   0.203261 0.596047 0.997672 -0.562418
H44   H     H_    0.231509 0.612582 0.965040 0.322062
O47   O     O_3   0.395367 0.608179 0.004412 -0.576425
H45   H     H_    0.380486 0.622173 0.971899 0.347438
O48   O     O_3   0.781351 0.387279 0.997830 -0.576267
H46   H     H_    0.756076 0.369979 0.031050 0.360053
O49   O     O_3   0.596382 0.206040 0.003558 -0.586410
H47   H     H_    0.612307 0.232748 0.036470 0.321810
O50   O     O_3   0.607023 0.395667 0.995610 -0.567109
H48   H     H_    0.620779 0.381298 0.028245 0.341562
S7    S     S_3+6 0.760775 0.113684 0.048561 0.170685
O51   O     O_2   0.845706 0.120733 0.016594 -0.057779
O52   O     O_2   0.759613 0.213716 0.049628 -0.356744
O53   O     O_3   0.793809 0.097546 0.104556 -0.369229
H49   H     H_    0.770605 0.135143 0.126348 0.369244
S8    S     S_3+6 0.875864 0.640267 0.049304 0.119718
O54   O     O_2   0.867286 0.717804 0.018296 -0.088395
O55   O     O_2   0.774922 0.539495 0.052381 -0.425721
O56   O     O_3   0.896618 0.691613 0.105287 -0.346954
H50   H     H_    0.857315 0.631903 0.127267 0.374589
S9    S     S_3+6 0.379061 0.234706 0.024544 0.134037
O57   O     O_2   0.266327 0.149261 0.021955 -0.063327
O58   O     O_2   0.437630 0.232538 0.981132 -0.181220
O59   O     O_3   0.427293 0.211464 0.074332 -0.469897
H51   H     H_    0.503546 0.253365 0.072809 0.279861
S10   S     S_3+6 0.114217 0.761659 0.951751 0.123035
O60   O     O_2   0.123627 0.846643 0.984417 -0.092656
O61   O     O_2   0.213875 0.759948 0.948904 -0.416502
O62   O     O_3   0.097315 0.796886 0.896347 -0.357144
H52   H     H_    0.133425 0.773266 0.873832 0.373595
S11   S     S_3+6 0.639962 0.877484 0.950124 0.112615
O63   O     O_2   0.718342 0.868197 0.980204 -0.097307
O64   O     O_2   0.538972 0.776662 0.947372 -0.421351
O65   O     O_3   0.688526 0.899423 0.893589 -0.366899
H53   H     H_    0.629298 0.854334 0.872313 0.375349
S12   S     S_3+6 0.232530 0.379496 0.976492 0.122385
O66   O     O_2   0.146971 0.266840 0.979677 -0.059730
O67   O     O_2   0.229920 0.438908 0.019362 -0.255061
O68   O     O_3   0.210022 0.426414 0.926085 -0.461294
H54   H     H_    0.250258 0.502910 0.927781 0.282758
S13   S     S_3+6 0.622033 0.907657 0.070610 0.128833
O69   O     O_2   0.723175 0.906322 0.070986 -0.061066
O70   O     O_2   0.603568 0.929959 0.121391 -0.226797
O71   O     O_3   0.522308 0.789944 0.057560 -0.423667
H55   H     H_    0.548552 0.770825 0.029801 0.414990
S14   S     S_3+6 0.081651 0.702726 0.069443 0.106319
O72   O     O_2   0.085866 0.806589 0.072530 -0.095640
O73   O     O_2   0.059583 0.659225 0.119543 -0.252874
O74   O     O_3   0.198287 0.719578 0.055113 -0.408284
H56   H     H_    0.223434 0.775214 0.031714 0.417797
S15   S     S_3+6 0.293934 0.329105 0.082121 0.147291
O75   O     O_2   0.180654 0.263497 0.069448 -0.098249
O76   O     O_2   0.311970 0.263673 0.117735 -0.134817
O77   O     O_3   0.311694 0.431345 0.116401 -0.512932
H57   H     H_    0.290604 0.473844 0.097487 0.413226
S16   S     S_3+6 0.908139 0.623469 0.929113 0.105246
O78   O     O_2   0.907021 0.724834 0.928675 -0.089815
O79   O     O_2   0.931719 0.605780 0.878433 -0.252339
O80   O     O_3   0.789815 0.523670 0.941191 -0.421468
H58   H     H_    0.770585 0.547720 0.969695 0.418020
S17   S     S_3+6 0.708509 0.087188 0.933500 0.119254
O81   O     O_2   0.807808 0.083133 0.927852 -0.063664
O82   O     O_2   0.664711 0.076045 0.883729 -0.302257
O83   O     O_3   0.737452 0.204281 0.955353 -0.415218
H59   H     H_    0.710791 0.235688 0.932006 0.421112
S18   S     S_3+6 0.324262 0.292083 0.920713 0.147498
O84   O     O_2   0.247517 0.180740 0.933571 -0.073529
O85   O     O_2   0.271801 0.318230 0.881364 -0.210612
O86   O     O_3   0.428008 0.295444 0.894149 -0.466271
H60   H     H_    0.437858 0.331793 0.863097 0.358917
O87   O     O_3   0.717052 0.084692 0.558617 -0.553967
H61   H     H_    0.721358 0.106638 0.592685 0.330310
O88   O     O_3   0.932806 0.648161 0.556872 -0.591801
H62   H     H_    0.986366 0.703560 0.536182 0.414206
O89   O     O_3   0.365232 0.278302 0.559849 -0.603438
H63   H     H_    0.303887 0.270525 0.542230 0.435120
O90   O     O_3   0.122072 0.679599 0.447018 -0.573832
H64   H     H_    0.138228 0.672455 0.413022 0.339332
O91   O     O_3   0.555256 0.878824 0.442451 -0.566887
H65   H     H_    0.526923 0.860259 0.409370 0.331135
O92   O     O_3   0.321251 0.445795 0.448274 -0.601724
H66   H     H_    0.331170 0.472417 0.414884 0.330831
S19   S     S_3+6 0.755281 0.086928 0.457900 0.106196
O93   O     O_2   0.757865 0.091391 0.404012 -0.264801
O94   O     O_2   0.857653 0.172978 0.476794 -0.265306
O95   O     O_3   0.744381 0.973204 0.475582 -0.369654
H67   H     H_    0.803729 0.970868 0.460005 0.374069
S20   S     S_3+6 0.886976 0.650726 0.453243 0.011586
O96   O     O_2   0.830758 0.614073 0.406108 -0.289040
O97   O     O_2   0.826598 0.684303 0.485167 -0.289005
O98   O     O_3   0.004849 0.756914 0.443566 -0.449320
H68   H     H_    0.989943 0.808159 0.427863 0.383556
S21   S     S_3+6 0.342428 0.236814 0.454134 0.031013
O99   O     O_2   0.368426 0.221040 0.403646 -0.278972
O100  O     O_2   0.314247 0.139902 0.482518 -0.292041
O101  O     O_3   0.235734 0.249831 0.453282 -0.394487
H69   H     H_    0.180921 0.185302 0.437472 0.384499
S22   S     S_3+6 0.181366 0.719819 0.550841 0.032967
O102  O     O_2   0.126987 0.746471 0.589523 -0.246300
O103  O     O_2   0.271632 0.718391 0.574556 -0.239824
O104  O     O_3   0.228542 0.815952 0.509729 -0.521648
H70   H     H_    0.178620 0.842394 0.509460 0.396661
S23   S     S_3+6 0.553552 0.825682 0.545322 0.089187
O105  O     O_2   0.657876 0.893204 0.568667 -0.177066
O106  O     O_2   0.481318 0.751052 0.582722 -0.265874
O107  O     O_3   0.567863 0.754904 0.501500 -0.531736
H71   H     H_    0.643422 0.777766 0.500570 0.386055
S24   S     S_3+6 0.275634 0.441210 0.553826 0.053663
O108  O     O_2   0.260826 0.369143 0.594769 -0.207413
O109  O     O_2   0.263506 0.528337 0.574914 -0.289102
O110  O     O_3   0.178932 0.372776 0.514281 -0.419605
H72   H     H_    0.169147 0.425451 0.496855 0.337608

loop_
_geom_bond_atom_site_label_1
_geom_bond_atom_site_label_2
_ccdc_geom_bond_type
C44   H20   S    
C7    C83   S    
O56   H50   S    
S2    O31   D    
C53   S1    S    
C46   H22   S    
Cr3   O25   S    
C69   S12   S    
Cr4   O26   S    
C9    C84   S    
C5    C56   S    
C67   S11   S    
O68   H54   S    
C24   C27   S    
Cr4   O4    S    
C6    C55   S    
C6    O4    A    
C25   H11   S    
C26   H16   S    
C29   H13   S    
C49   S5    S    
S6    O42   D    
O46   H44   S    
C58   C76   T    
O91   H65   S    
C47   C49   S    
C21   C36   S    
O44   H42   S    
C10   C22   S    
Cr3   O21   S    
C60   C78   T    
S22   O102  D    
C8    C20   S    
C22   C32   S    
C81   S21   S    
C64   C68   S    
C17   C35   T    
O29   H37   S    
S3    O34   D    
C18   C37   S    
Cr1   O19   S    
C54   H30   S    
O88   H62   S    
C10   H34   S    
S11   O64   D    
O86   H60   S    
S19   O95   S    
C3    O1    A    
S4    O37   D    
S5    O41   S    
C66   C69   S    
C12   H36   S    
S18   O85   D    
O80   H58   S    
C82   H2    S    
O87   H61   S    
S13   O71   S    
C65   C73   S    
S22   O103  D    
C62   C70   S    
S14   O74   S    
O107  H71   S    
Cr4   O16   S    
C11   C23   S    
S20   O98   S    
C4    O10   A    
C38   O20   A    
C26   H10   S    
S2    O32   S    
C16   C34   T    
C71   S7    S    
C43   C53   S    
C48   C51   S    
O98   H68   S    
C61   C77   S    
S8    O54   D    
C65   C67   S    
C37   O14   A    
C4    C57   S    
C42   O16   A    
C11   O87   S    
S15   O75   D    
C1    O2    A    
C7    O91   S    
O53   H49   S    
C11   C79   S    
C12   O89   S    
C54   S3    S    
S1    O28   D    
C51   S6    S    
C53   C65   S    
O74   H56   S    
Cr1   O13   S    
C50   H26   S    
S21   O99   D    
Cr6   O24   S    
C17   C38   S    
S7    O53   S    
Cr6   O6    S    
C44   C52   S    
S18   O86   S    
S9    O58   D    
C43   O49   S    
C46   O46   S    
S5    O39   D    
S17   O81   D    
C27   C30   S    
C25   C29   S    
C71   S13   S    
C62   C76   S    
C61   C71   S    
O48   H46   S    
S15   O77   S    
C7    H31   S    
C1    O7    A    
Cr2   O20   S    
S16   O79   D    
C13   C42   S    
Cr6   O12   S    
Cr2   O8    S    
O32   H38   S    
C4    O5    A    
Cr5   O26   S    
C52   S2    S    
S13   O70   D    
C39   O13   A    
S23   O107  S    
C3    O9    A    
C56   C74   T    
C20   C80   S    
C8    O90   S    
Cr2   O2    S    
O49   H47   S    
S6    O44   S    
Cr3   O9    S    
S3    O35   S    
C51   C63   S    
O101  H69   S    
Cr4   O10   S    
C48   O47   S    
Cr6   O26   S    
C68   S16   S    
S11   O65   S    
O110  H72   S    
C81   H6    S    
C40   O22   A    
C2    C59   S    
O59   H51   S    
C20   C28   S    
C44   C62   S    
S18   O84   D    
S9    O57   D    
C9    O92   S    
C30   H9    S    
C45   C63   S    
S16   O80   S    
C46   C64   S    
C80   S20   S    
C45   O50   S    
C23   C31   S    
S2    O30   D    
C6    O12   A    
C69   C72   S    
S14   O73   D    
O45   H43   S    
Cr1   O25   S    
C79   H5    S    
O104  H70   S    
C44   O48   S    
C12   C81   S    
C52   H28   S    
C28   H14   S    
C79   S19   S    
C70   S14   S    
C84   S24   S    
O62   H52   S    
C5    O6    A    
C70   S8    S    
S23   O106  D    
S13   O69   D    
Cr4   O22   S    
C10   O88   S    
C2    O8    A    
Cr3   O15   S    
S1    O29   S    
C19   C79   S    
C57   C75   T    
O38   H40   S    
Cr5   O17   S    
S5    O40   D    
C23   C83   S    
C69   S18   S    
C41   O18   A    
C14   C41   S    
C9    H33   S    
S8    O55   D    
C47   O45   S    
O41   H41   S    
C49   H25   S    
C21   C81   S    
C45   C54   S    
S10   O60   D    
C7    C19   S    
S17   O82   D    
S23   O105  D    
C52   C64   S    
O35   H39   S    
C50   C62   S    
C38   O15   A    
C8    C82   S    
S21   O101  S    
S20   O96   D    
C80   H4    S    
O89   H63   S    
C19   C29   S    
C22   C82   S    
C83   S23   S    
O83   H59   S    
C43   C61   S    
C48   H24   S    
O92   H66   S    
S9    O59   S    
C28   H8    S    
C47   H23   S    
C12   C24   S    
O77   H57   S    
S4    O36   D    
C10   C80   S    
C11   H35   S    
S12   O68   S    
C40   O17   A    
C26   C28   S    
C13   C31   T    
S24   O110  S    
C14   C32   T    
S24   O108  D    
S6    O43   D    
S19   O93   D    
C53   H29   S    
C5    O11   A    
C72   S9    S    
C54   C66   S    
Cr2   O14   S    
S10   O62   S    
C43   H19   S    
C21   C30   S    
C46   C50   S    
C27   H12   S    
S10   O61   D    
C24   C33   S    
Cr5   O5    S    
C72   S15   S    
C29   H7    S    
S12   O67   D    
S15   O76   D    
C68   S10   S    
C59   C77   T    
Cr3   O3    S    
S21   O100  D    
C24   C84   S    
C20   C34   S    
O47   H45   S    
C30   H15   S    
C19   C35   S    
C45   H21   S    
C50   S4    S    
C67   S17   S    
C49   C61   S    
C9    C21   S    
O65   H53   S    
O90   H64   S    
C27   H18   S    
S8    O56   S    
C66   C75   S    
C83   H1    S    
C1    C60   S    
Cr5   O23   S    
S16   O78   D    
C51   H27   S    
C47   C65   S    
S12   O66   D    
C67   C71   S    
C84   H3    S    
C23   C25   S    
Cr5   O11   S    
S14   O72   D    
C42   O24   A    
C15   C40   S    
S3    O33   D    
Cr1   O1    S    
C16   C39   S    
O71   H55   S    
S7    O51   D    
C55   C73   T    
C3    C58   S    
C8    H32   S    
S11   O63   D    
C41   O23   A    
C63   C72   S    
S22   O104  S    
S20   O97   D    
O50   H48   S    
C22   C26   S    
S17   O83   S    
C39   O21   A    
C2    O3    A    
C68   C70   S    
C64   C74   S    
O95   H67   S    
S24   O109  D    
S4    O38   S    
C48   C66   S    
C37   O19   A    
S1    O27   D    
Cr2   O25   S    
C18   C36   T    
C15   C33   T    
C25   H17   S    
Cr6   O18   S    
S19   O94   D    
Cr1   O7    S    
S7    O52   D    
C63   C78   S    
C82   S22   S    
