data_mof_unit_43138.cif
_audit_creation_date              2012-12-11T16:44:26-0500
_audit_creation_method            fapswitch 2.2
_symmetry_space_group_name_H-M    P1
_symmetry_Int_Tables_number       1
_space_group_crystal_system       triclinic
_cell_length_a                    27.162317
_cell_length_b                    7.220825
_cell_length_c                    22.788749
_cell_angle_alpha                 90.000244
_cell_angle_beta                  101.322222
_cell_angle_gamma                 90.000084
_cell_volume                      4382.6703688

loop_
_atom_site_label
_atom_site_type_symbol
_atom_type_description
_atom_site_fract_x
_atom_site_fract_y
_atom_site_fract_z
_atom_type_partial_charge
O1    O     O_R   0.707300 0.594030 0.176840 -0.532579
O2    O     O_R   0.292700 0.405970 0.823160 -0.532244
O3    O     O_R   0.792700 0.094030 0.323160 -0.532579
O4    O     O_R   0.207300 0.905970 0.676840 -0.532245
O5    O     O_R   0.697330 0.262360 0.295660 -0.540905
O6    O     O_R   0.302670 0.737640 0.704340 -0.541170
O7    O     O_R   0.802670 0.762360 0.204340 -0.540905
O8    O     O_R   0.197330 0.237640 0.795660 -0.541170
C1    C     C_R   0.684886 0.432400 0.311930 0.722377
C2    C     C_R   0.315126 0.567634 0.688111 0.722998
C3    C     C_R   0.815114 0.932399 0.188069 0.722377
C4    C     C_R   0.184874 0.067634 0.811889 0.722997
O9    O     O_R   0.701410 0.264250 0.175600 -0.535648
O10   O     O_R   0.298590 0.735750 0.824400 -0.535650
O11   O     O_R   0.798590 0.764250 0.324400 -0.535648
O12   O     O_R   0.201410 0.235750 0.675600 -0.535650
O13   O     O_R   0.796800 0.094950 0.202240 -0.538257
O14   O     O_R   0.203200 0.905050 0.797760 -0.538685
O15   O     O_R   0.703200 0.594950 0.297760 -0.538257
O16   O     O_R   0.296800 0.405050 0.702240 -0.538686
C5    C     C_R   0.689833 0.432528 0.153509 0.682428
C6    C     C_R   0.310099 0.567454 0.846526 0.682743
C7    C     C_R   0.810167 0.932529 0.346490 0.682429
C8    C     C_R   0.189901 0.067453 0.653474 0.682743
O17   O     O_3   0.781290 0.427390 0.258880 -0.374089
O18   O     O_3   0.218710 0.572610 0.741120 -0.374161
O19   O     O_3   0.718710 0.927390 0.241120 -0.374090
O20   O     O_3   0.281290 0.072610 0.758880 -0.374161
V1    V     V_3+5 0.744190 0.152150 0.248350 1.402255
V2    V     V_3+5 0.255810 0.847850 0.751650 1.401820
V3    V     V_3+5 0.755810 0.652150 0.251650 1.402255
V4    V     V_3+5 0.244190 0.347850 0.748350 1.401819
C9    C     C_R   0.154981 0.061588 0.595159 -0.034355
C10   C     C_R   0.845158 0.938079 0.404789 -0.033331
C11   C     C_R   0.345019 0.561592 0.904841 -0.034356
C12   C     C_R   0.654842 0.438075 0.095211 -0.033333
C13   C     C_R   0.139965 0.111549 0.488283 -0.163673
C14   C     C_R   0.860365 0.885291 0.511541 -0.163810
C15   C     C_R   0.360036 0.611578 0.011716 -0.163674
C16   C     C_R   0.639633 0.385259 0.988460 -0.163810
C17   C     C_R   0.172706 0.106610 0.543496 -0.166464
C18   C     C_R   0.827565 0.891077 0.456377 -0.167689
C19   C     C_R   0.327295 0.606632 0.956503 -0.166463
C20   C     C_R   0.672434 0.391053 0.043624 -0.167688
C21   C     C_R   0.103751 0.021628 0.591300 -0.213479
C22   C     C_R   0.896368 0.978640 0.408670 -0.214669
C23   C     C_R   0.396248 0.521621 0.908700 -0.213479
C24   C     C_R   0.603632 0.478647 0.091329 -0.214670
C25   C     C_R   0.069204 0.028310 0.535431 0.085454
C26   C     C_R   0.931001 0.970600 0.464476 0.084998
C27   C     C_R   0.430796 0.528311 0.964569 0.085453
C28   C     C_R   0.568999 0.470597 0.035524 0.084998
C29   C     C_R   0.088628 0.074166 0.483811 0.140287
C30   C     C_R   0.911652 0.923478 0.516042 0.140764
C31   C     C_R   0.411373 0.574186 0.016188 0.140287
C32   C     C_R   0.588347 0.423456 0.983959 0.140764
C33   C     C_R   0.016275 0.993242 0.528928 0.058520
C34   C     C_R   0.983944 0.005420 0.470969 0.059021
C35   C     C_R   0.483724 0.493236 0.971072 0.058520
C36   C     C_R   0.516056 0.505425 0.029031 0.059021
C37   C     C_R   0.005678 0.051159 0.421467 -0.189127
C38   C     C_R   0.994587 0.946610 0.578393 -0.187483
C39   C     C_R   0.494323 0.551181 0.078532 -0.189127
C40   C     C_R   0.505411 0.446586 0.921608 -0.187483
C41   C     C_R   0.056801 0.084262 0.427913 -0.203320
C42   C     C_R   0.943504 0.912760 0.571913 -0.202039
C43   C     C_R   0.443200 0.584291 0.072086 -0.203320
C44   C     C_R   0.556494 0.412727 0.928088 -0.202039
H1    H     H_    0.071604 0.119239 0.388457 0.120881
H2    H     H_    0.928757 0.876717 0.611324 0.121583
H3    H     H_    0.428398 0.619282 0.111542 0.120881
H4    H     H_    0.571240 0.376669 0.888678 0.121583
H5    H     H_    0.907843 0.012131 0.367297 0.093324
H6    H     H_    0.092193 0.989793 0.632748 0.093813
H7    H     H_    0.592158 0.512152 0.132702 0.093325
H8    H     H_    0.407806 0.489774 0.867253 0.093815
H9    H     H_    0.788288 0.857962 0.453847 0.100112
H10   H     H_    0.212020 0.138874 0.546007 0.105760
H11   H     H_    0.711710 0.357928 0.046154 0.100113
H12   H     H_    0.287982 0.638905 0.953992 0.105760
H13   H     H_    0.154794 0.146859 0.448890 0.114786
H14   H     H_    0.845630 0.848610 0.550882 0.111734
H15   H     H_    0.345208 0.646901 0.051109 0.114786
H16   H     H_    0.654367 0.348562 0.949120 0.111735
H17   H     H_    0.984148 0.062799 0.376639 0.121183
H18   H     H_    0.016144 0.934166 0.623184 0.122809
H19   H     H_    0.515853 0.562830 0.123360 0.121183
H20   H     H_    0.483854 0.434132 0.876817 0.122808
C45   C     C_R   0.863195 0.113887 0.123715 -0.261058
C46   C     C_R   0.136182 0.886363 0.875544 -0.249041
C47   C     C_R   0.636804 0.613888 0.376285 -0.261058
C48   C     C_R   0.363818 0.386362 0.624455 -0.249040
H21   H     H_    0.842942 0.237803 0.131504 0.150101
H22   H     H_    0.155580 0.761563 0.866651 0.151681
H23   H     H_    0.657057 0.737805 0.368496 0.150100
H24   H     H_    0.344420 0.261563 0.633349 0.151680
C49   C     C_R   0.898570 0.127251 0.086611 0.370381
C50   C     C_R   0.101898 0.874247 0.913967 0.379553
C51   C     C_R   0.601430 0.627252 0.413389 0.370382
C52   C     C_R   0.398102 0.374247 0.586032 0.379552
C53   C     C_R   0.926484 0.970996 0.076111 -0.093721
C54   C     C_R   0.074163 0.031321 0.924728 -0.125691
C55   C     C_R   0.573516 0.470997 0.423889 -0.093722
C56   C     C_R   0.425837 0.531321 0.575272 -0.125691
C57   C     C_R   0.917834 0.800788 0.102514 0.380366
C58   C     C_R   0.082934 0.201637 0.898110 0.398698
C59   C     C_R   0.582166 0.300789 0.397485 0.380365
C60   C     C_R   0.417066 0.701637 0.601890 0.398695
C61   C     C_R   0.881143 0.787103 0.138176 -0.264389
C62   C     C_R   0.119864 0.214408 0.862859 -0.255736
C63   C     C_R   0.618857 0.287103 0.361823 -0.264388
C64   C     C_R   0.380136 0.714408 0.637141 -0.255737
H25   H     H_    0.874709 0.653880 0.157172 0.155347
H26   H     H_    0.127062 0.347974 0.844626 0.155611
H27   H     H_    0.625291 0.153880 0.342827 0.155347
H28   H     H_    0.372938 0.847974 0.655374 0.155611
C65   C     C_R   0.853674 0.943861 0.149657 -0.159229
C66   C     C_R   0.146368 0.056580 0.850337 -0.168900
C67   C     C_R   0.646326 0.443862 0.350343 -0.159229
C68   C     C_R   0.353631 0.556580 0.649663 -0.168899
C69   C     C_R   0.960543 0.876109 0.985907 -0.164010
C70   C     C_R   0.040021 0.127226 0.014903 -0.163057
C71   C     C_R   0.539457 0.376111 0.514093 -0.164009
C72   C     C_R   0.459979 0.627225 0.485097 -0.163058
H29   H     H_    0.929406 0.781284 0.973559 0.136736
H30   H     H_    0.070832 0.223955 0.026955 0.136212
H31   H     H_    0.570594 0.281286 0.526440 0.136735
H32   H     H_    0.429167 0.723953 0.473044 0.136213
C73   C     C_R   0.996157 0.890882 0.949345 -0.151562
C74   C     C_R   0.004575 0.111260 0.051688 -0.153567
C75   C     C_R   0.503842 0.390883 0.550655 -0.151563
C76   C     C_R   0.495425 0.611259 0.448312 -0.153568
H33   H     H_    0.992185 0.805699 0.909584 0.137035
H34   H     H_    0.008611 0.195040 0.091710 0.138919
H35   H     H_    0.507815 0.305701 0.590415 0.137034
H36   H     H_    0.491389 0.695039 0.408290 0.138920
C77   C     C_R   0.036182 0.016768 0.963470 0.122774
C78   C     C_R   0.964489 0.985860 0.037462 0.140531
C79   C     C_R   0.463818 0.516768 0.536530 0.122775
C80   C     C_R   0.535511 0.485860 0.462538 0.140531
O21   O     O_3   0.907717 0.296632 0.062865 -0.552511
C81   C     C_3   0.870564 0.336726 0.011630 0.142602
H37   H     H_    0.852475 0.469671 0.019940 0.144023
H38   H     H_    0.840050 0.230940 0.000766 0.072378
C82   C     C_3   0.895882 0.359113 0.957714 -0.291488
H39   H     H_    0.929136 0.450867 0.969873 0.219082
H40   H     H_    0.909054 0.221970 0.945049 0.188436
C83   C     C_3   0.860067 0.440907 0.904013 -0.888008
H41   H     H_    0.826667 0.350334 0.890873 0.237698
H42   H     H_    0.879520 0.452226 0.865625 0.233567
H43   H     H_    0.847757 0.581339 0.914888 0.232449
O22   O     O_3   0.093730 0.704534 0.938318 -0.550926
C84   C     C_3   0.123463 0.688147 0.996465 0.151134
H44   H     H_    0.102667 0.597958 0.022683 0.149515
H45   H     H_    0.129660 0.822557 0.021070 0.084778
C85   C     C_3   0.173791 0.595755 0.993877 -0.325102
H46   H     H_    0.167046 0.465973 0.967299 0.217123
H47   H     H_    0.196792 0.690139 0.971756 0.174930
C86   C     C_3   0.203103 0.549843 0.056361 -0.855839
H48   H     H_    0.210221 0.677620 0.083867 0.232985
H49   H     H_    0.239743 0.486947 0.052929 0.235498
H50   H     H_    0.181827 0.449492 0.078710 0.229842
O23   O     O_3   0.592283 0.796633 0.437135 -0.552510
C87   C     C_3   0.629435 0.836729 0.488370 0.142607
H51   H     H_    0.647525 0.969676 0.480060 0.144021
H52   H     H_    0.659950 0.730944 0.499234 0.072376
C88   C     C_3   0.604117 0.859117 0.542286 -0.291486
H53   H     H_    0.570863 0.950871 0.530127 0.219079
H54   H     H_    0.590945 0.721974 0.554951 0.188435
C89   C     C_3   0.639932 0.940913 0.595987 -0.887997
H55   H     H_    0.673332 0.850338 0.609128 0.237696
H56   H     H_    0.620479 0.952234 0.634375 0.233565
H57   H     H_    0.652243 0.081345 0.585112 0.232446
O24   O     O_3   0.406270 0.204533 0.561681 -0.550926
C90   C     C_3   0.376536 0.188146 0.503534 0.151132
H58   H     H_    0.397332 0.097963 0.477315 0.149512
H59   H     H_    0.370337 0.322557 0.478931 0.084778
C91   C     C_3   0.326210 0.095744 0.506123 -0.325096
H60   H     H_    0.332956 0.965958 0.532698 0.217124
H61   H     H_    0.303208 0.190119 0.528247 0.174929
C92   C     C_3   0.296896 0.049838 0.443638 -0.855844
H62   H     H_    0.289776 0.177620 0.416136 0.232986
H63   H     H_    0.260257 0.986932 0.447071 0.235498
H64   H     H_    0.318172 0.949498 0.421286 0.229842
O25   O     O_3   0.944055 0.645186 0.091415 -0.551099
C93   C     C_3   0.985331 0.614140 0.138934 0.139341
H65   H     H_    0.979731 0.477519 0.159113 0.147024
H66   H     H_    0.989854 0.719217 0.175680 0.076155
C94   C     C_3   0.033580 0.608854 0.113783 -0.308917
H67   H     H_    0.028229 0.517291 0.073868 0.213979
H68   H     H_    0.042249 0.750114 0.099485 0.194183
C95   C     C_3   0.078004 0.538938 0.160130 -0.884345
H69   H     H_    0.084317 0.629984 0.200196 0.238507
H70   H     H_    0.112373 0.539661 0.140609 0.232740
H71   H     H_    0.071027 0.395079 0.173714 0.230624
O26   O     O_3   0.057610 0.359664 0.909253 -0.548956
C96   C     C_3   0.010463 0.369081 0.869763 0.135066
H72   H     H_    0.984279 0.441447 0.893810 0.140372
H73   H     H_    0.993469 0.230592 0.856730 0.086449
C97   C     C_3   0.014557 0.481677 0.813928 -0.312764
H74   H     H_    0.033368 0.615949 0.827487 0.222336
H75   H     H_    0.037486 0.404324 0.786788 0.181658
C98   C     C_3   0.962914 0.519562 0.775495 -0.864212
H76   H     H_    0.943274 0.387239 0.761337 0.235810
H77   H     H_    0.967211 0.598200 0.734924 0.235857
H78   H     H_    0.939883 0.603161 0.800932 0.227220
O27   O     O_3   0.555945 0.145186 0.408584 -0.551099
C99   C     C_3   0.514668 0.114141 0.361065 0.139343
H79   H     H_    0.520269 0.977521 0.340886 0.147022
H80   H     H_    0.510145 0.219219 0.324320 0.076154
C100  C     C_3   0.466420 0.108851 0.386217 -0.308914
H81   H     H_    0.471771 0.017286 0.426131 0.213979
H82   H     H_    0.457750 0.250110 0.400516 0.194182
C101  C     C_3   0.421996 0.038934 0.339870 -0.884341
H83   H     H_    0.415681 0.129983 0.299805 0.238506
H84   H     H_    0.387627 0.039653 0.359391 0.232738
H85   H     H_    0.428973 0.895076 0.326284 0.230623
O28   O     O_3   0.442389 0.859664 0.590747 -0.548956
C102  C     C_3   0.489536 0.869084 0.630237 0.135068
H86   H     H_    0.515721 0.941449 0.606190 0.140371
H87   H     H_    0.506530 0.730595 0.643271 0.086449
C103  C     C_3   0.485442 0.981682 0.686071 -0.312763
H88   H     H_    0.466632 0.115953 0.672513 0.222336
H89   H     H_    0.462513 0.904331 0.713212 0.181659
C104  C     C_3   0.537085 0.019570 0.724505 -0.864213
H90   H     H_    0.556726 0.887247 0.738663 0.235811
H91   H     H_    0.532788 0.098209 0.765076 0.235856
H92   H     H_    0.560116 0.103168 0.699067 0.227220

loop_
_geom_bond_atom_site_label_1
_geom_bond_atom_site_label_2
_ccdc_geom_bond_type
O17   V3    S    
C51   C55   A    
C98   H76   S    
C25   C29   A    
O1    C5    A    
O19   V1    S    
C9    C21   A    
C16   H16   S    
C72   C79   A    
O3    C7    A    
O23   C87   S    
C10   C18   A    
C83   H43   S    
C64   H28   S    
O15   V3    S    
C82   C83   S    
C82   H39   S    
O28   C102  S    
C61   C65   A    
C33   C38   A    
C90   H59   S    
C5    C12   S    
C50   O22   S    
C92   H62   S    
C96   C97   S    
O7    C3    A    
C6    C11   S    
C38   H18   S    
O5    C1    A    
C26   C30   A    
C36   C39   A    
C46   C66   A    
O9    V1    S    
C87   H51   S    
C83   H42   S    
C23   H8    S    
C14   C18   A    
C75   H35   S    
C97   C98   S    
C58   C62   A    
O4    C8    A    
C101  H84   S    
C44   H4    S    
C43   H3    S    
C89   H55   S    
C51   O23   S    
O1    V3    S    
C104  H92   S    
O13   V1    S    
C31   C43   A    
C72   C76   A    
O2    V4    S    
C57   O25   S    
O3    V1    S    
O24   C90   S    
C28   C36   A    
C47   C51   A    
C85   H47   S    
C1    O15   A    
C52   C56   A    
C15   C31   A    
C100  H81   S    
C2    O16   A    
C97   H74   S    
C16   C32   A    
C102  H86   S    
O2    C6    A    
C39   H19   S    
C86   H49   S    
O12   V4    S    
C10   C22   A    
C84   H45   S    
C11   C19   A    
C62   H26   S    
C16   C20   A    
C59   O27   S    
C76   H36   S    
C72   H32   S    
C13   C29   A    
C34   C37   A    
O11   C7    A    
C11   C23   A    
C35   C36   A    
O12   C8    A    
C14   H14   S    
C45   H21   S    
C24   H7    S    
C13   H13   S    
C74   H34   S    
O10   V2    S    
C82   H40   S    
C46   H22   S    
C88   C89   S    
O5    V1    S    
C92   H63   S    
C48   H24   S    
C53   C57   A    
C98   H78   S    
C39   C43   A    
O7    V3    S    
C38   C42   A    
O27   C99   S    
O8    V4    S    
C95   H71   S    
C91   H60   S    
C2    C68   S    
C83   H41   S    
C88   H54   S    
C88   H53   S    
C64   C68   A    
C90   C91   S    
C99   H79   S    
C15   C19   A    
C103  C104  S    
C19   H12   S    
C50   C54   A    
C47   H23   S    
C71   C80   A    
C96   H72   S    
C60   C64   A    
C45   C49   A    
C21   H6    S    
C54   C77   S    
C95   H70   S    
C69   C78   A    
C70   H30   S    
C94   C95   S    
C33   C34   A    
C69   H29   S    
C17   H10   S    
C23   C27   A    
C102  H87   S    
C98   H77   S    
C71   H31   S    
C86   H48   S    
C14   C30   A    
C21   C25   A    
O8    C4    A    
C7    C10   S    
C81   C82   S    
C104  H90   S    
C35   C40   A    
C86   H50   S    
O9    C5    A    
C84   C85   S    
C103  H89   S    
C62   C66   A    
C49   O21   S    
C37   H17   S    
C4    C66   S    
C63   C67   A    
C97   H75   S    
C26   C34   A    
O6    V2    S    
C45   C65   A    
C96   H73   S    
C73   H33   S    
C52   O24   S    
O14   V2    S    
C1    C67   S    
C47   C67   A    
C12   C20   A    
C27   C35   A    
C93   H66   S    
C3    C65   S    
C40   C44   A    
C56   C60   A    
C81   H38   S    
C29   C41   A    
C48   C52   A    
O16   V4    S    
C92   H64   S    
C100  H82   S    
C57   C61   A    
C85   H46   S    
C71   C75   A    
C58   O26   S    
C101  H83   S    
C59   C63   A    
C20   H11   S    
C70   C77   A    
C69   C73   A    
O26   C96   S    
C101  H85   S    
C3    O13   A    
O6    C2    A    
C25   C33   A    
C91   H61   S    
C53   C78   S    
O11   V3    S    
C30   C42   A    
C61   H25   S    
C76   C80   A    
C70   C74   A    
C22   C26   A    
C8    C9    S    
C56   C79   S    
C9    C17   A    
C95   H69   S    
O10   C6    A    
C93   C94   S    
C87   H52   S    
C48   C68   A    
C60   O28   S    
C90   H58   S    
C32   C44   A    
C55   C80   S    
C85   C86   S    
C102  C103  S    
C63   H27   S    
O25   C93   S    
C42   H2    S    
C89   H56   S    
C99   C100  S    
C41   H1    S    
C22   H5    S    
O20   V2    S    
C104  H91   S    
C46   C50   A    
C12   C24   A    
C27   C31   A    
C87   C88   S    
C13   C17   A    
C94   H67   S    
C49   C53   A    
C91   C92   S    
C75   C79   A    
C15   H15   S    
C37   C41   A    
C24   C28   A    
C100  C101  S    
C73   C77   A    
O22   C84   S    
C18   H9    S    
C99   H80   S    
C54   C58   A    
C4    O14   A    
C81   H37   S    
C55   C59   A    
C94   H68   S    
C93   H65   S    
O21   C81   S    
C103  H88   S    
C40   H20   S    
O18   V4    S    
O4    V2    S    
C28   C32   A    
C84   H44   S    
C89   H57   S    
C74   C78   A    
