data_mof_unit_63385.cif
_audit_creation_date              2012-10-26T19:29:34-0400
_audit_creation_method            fapswitch 2.2
_symmetry_space_group_name_H-M    P1
_symmetry_Int_Tables_number       1
_space_group_crystal_system       triclinic
_cell_length_a                    15.897776
_cell_length_b                    14.669699
_cell_length_c                    10.684628
_cell_angle_alpha                 89.64446
_cell_angle_beta                  90.077977
_cell_angle_gamma                 90.028212
_cell_volume                      2491.77123426

loop_
_atom_site_label
_atom_site_type_symbol
_atom_type_description
_atom_site_fract_x
_atom_site_fract_y
_atom_site_fract_z
_atom_type_partial_charge
C1    C     C_R   0.339734 0.499982 0.499965 0.540170
C2    C     C_3   0.951269 0.505304 0.365555 -0.257692
C3    C     C_3   0.048746 0.505259 0.365870 -0.344857
C4    C     C_1   0.825186 0.500077 0.500751 -0.049024
C5    C     C_1   0.174701 0.499946 0.501164 0.024529
C6    C     C_R   0.499621 0.500327 0.259003 0.573139
C7    C     C_1   0.250166 0.499950 0.500562 0.010183
C8    C     C_3   0.589614 0.053168 0.538971 -0.205107
C9    C     C_3   0.589613 0.946611 0.538976 -0.206762
C10   C     C_3   0.478555 0.054035 0.371130 0.329142
C11   C     C_3   0.478566 0.947146 0.371122 0.326707
C12   C     C_3   0.499275 0.501063 0.123381 -0.020826
C13   C     C_3   0.501894 0.091882 0.502457 -0.007058
C14   C     C_3   0.501894 0.908131 0.502450 -0.005250
C15   C     C_3   0.437124 0.946259 0.597508 -0.303597
C16   C     C_3   0.437134 0.052830 0.597527 -0.304464
C17   C     C_1   0.501709 0.804909 0.502831 0.168544
C18   C     C_1   0.501710 0.195092 0.502839 0.176352
C19   C     C_R   0.660135 0.500020 0.499909 0.568410
C20   C     C_R   0.500353 0.499621 0.740748 0.585260
C21   C     C_3   0.497069 0.588142 0.040371 -0.139416
C22   C     C_3   0.430973 0.453714 0.043248 -0.154393
C23   C     C_3   0.048579 0.583787 0.574250 0.302343
C24   C     C_3   0.431195 0.539295 0.958341 0.042878
C25   C     C_3   0.500571 0.498661 0.876611 0.060787
C26   C     C_3   0.566558 0.544564 0.959630 0.069681
C27   C     C_3   0.502632 0.414497 0.962477 0.085060
C28   C     C_3   0.569941 0.459726 0.043946 0.416941
C29   C     C_3   0.048436 0.410961 0.563045 0.301598
C30   C     C_3   0.950876 0.411757 0.564006 -0.166370
C31   C     C_3   0.951015 0.582998 0.575097 -0.167707
C32   C     C_1   0.749711 0.500066 0.500323 0.014710
C33   C     C_3   0.082596 0.499955 0.501911 0.080135
C34   C     C_3   0.917230 0.500042 0.501278 -0.036579
Cu1   Cu    Cu3+1 0.499910 0.589920 0.499840 1.029228
Cu2   Cu    Cu3+1 0.499910 0.410080 0.499840 1.055550
F1    F     F_    0.534102 0.087330 0.281838 -0.569277
F2    F     F_    0.534141 0.914743 0.281850 -0.577966
F3    F     F_    0.641981 0.418612 0.089908 -0.600563
F4    F     F_    0.078830 0.584196 0.696059 -0.572341
F5    F     F_    0.078678 0.401080 0.684187 -0.570799
H1    H     H_    0.927972 0.568359 0.318559 0.153718
H2    H     H_    0.373023 0.921148 0.573845 0.124030
H3    H     H_    0.607589 0.077889 0.633565 0.119520
H4    H     H_    0.607581 0.921062 0.633576 0.116832
H5    H     H_    0.494389 0.659751 0.073130 0.163811
H6    H     H_    0.374877 0.416700 0.078859 0.138442
H7    H     H_    0.927580 0.580288 0.673176 0.185353
H8    H     H_    0.927446 0.406876 0.661951 0.186783
H9    H     H_    0.070505 0.351150 0.508536 0.108758
H10   H     H_    0.070758 0.647508 0.527751 0.108036
H11   H     H_    0.926850 0.350994 0.513285 0.094721
H12   H     H_    0.927875 0.446223 0.310652 0.163448
H13   H     H_    0.927100 0.647405 0.532467 0.088989
H14   H     H_    0.072186 0.568256 0.318891 0.132432
H15   H     H_    0.072087 0.446208 0.310980 0.134964
H16   H     H_    0.317988 0.599859 0.984924 0.244999
H17   H     H_    0.323076 0.533977 0.857312 0.259028
H18   H     H_    0.673227 0.617025 0.990113 0.257367
H19   H     H_    0.619466 0.648890 0.862011 0.238519
H20   H     H_    0.506962 0.278742 0.999327 0.271582
H21   H     H_    0.563920 0.311588 0.874992 0.261768
H22   H     H_    0.638104 0.921684 0.472496 0.186403
H23   H     H_    0.638099 0.078744 0.472478 0.190019
H24   H     H_    0.414634 0.078565 0.344956 0.079539
H25   H     H_    0.414656 0.922768 0.344918 0.079963
H26   H     H_    0.452204 0.077584 0.693218 0.162850
H27   H     H_    0.452171 0.920646 0.693196 0.160153
H28   H     H_    0.373032 0.078104 0.573893 0.123993
N1    N     N_1   0.501390 0.724970 0.502570 -0.184301
N2    N     N_1   0.501390 0.275030 0.502570 -0.178594
N3    N     N_3   0.355869 0.582926 0.908673 -0.581560
N4    N     N_3   0.640538 0.592131 0.912597 -0.589566
N5    N     N_3   0.506123 0.320500 0.919749 -0.582382
O1    O     O_R   0.379360 0.575970 0.499860 -0.493996
O2    O     O_R   0.379360 0.424030 0.499860 -0.499208
O3    O     O_R   0.499910 0.575920 0.316720 -0.502013
O4    O     O_R   0.499910 0.424080 0.316720 -0.468564
O5    O     O_R   0.620490 0.575900 0.499870 -0.494944
O6    O     O_R   0.620490 0.424100 0.499870 -0.481199
O7    O     O_R   0.499950 0.575950 0.683010 -0.489273
O8    O     O_R   0.499950 0.424050 0.683010 -0.491720

loop_
_geom_bond_atom_site_label_1
_geom_bond_atom_site_label_2
_ccdc_geom_bond_type
C21   C26   S    
C9    H4    S    
C8    C13   S    
C20   O8    A    
Cu1   Cu2   S    
Cu1   O7    S    
Cu1   O1    S    
C13   C18   S    
C12   C28   S    
C10   F1    S    
C6    C12   S    
C11   C14   S    
C6    O4    A    
C20   C25   S    
C3    C33   S    
C23   F4    S    
C29   C33   S    
H19   N4    S    
C26   N4    S    
Cu2   O2    S    
C3    H14   S    
Cu1   N1    S    
Cu2   O8    S    
C8    C9    S    
C23   C33   S    
C5    C33   S    
C27   N5    S    
H18   N4    S    
Cu2   N2    S    
C2    C34   S    
C22   H6    S    
C17   N1    T    
H16   N3    S    
C9    H22   S    
C20   O7    A    
C14   C17   S    
C19   C32   S    
C29   H9    S    
C4    C34   S    
C30   C34   S    
C1    O1    A    
C24   C25   S    
Cu2   O6    S    
C5    C7    T    
C6    O3    A    
C28   F3    S    
C25   C26   S    
C12   C21   S    
Cu1   O3    S    
C23   C31   S    
C11   F2    S    
C9    C14   S    
C29   C30   S    
C3    H15   S    
C23   H10   S    
C31   C34   S    
C16   H26   S    
C19   O5    A    
C4    C32   T    
C8    H23   S    
C30   H8    S    
C31   H7    S    
C12   C22   S    
C22   C24   S    
C21   C24   S    
C24   N3    S    
C21   H5    S    
C10   H24   S    
C18   N2    T    
C30   H11   S    
C29   F5    S    
C1    C7    S    
C1    O2    A    
C16   H28   S    
C8    H3    S    
C2    H12   S    
C10   C13   S    
C11   H25   S    
H20   N5    S    
C25   C27   S    
C26   C28   S    
C22   C27   S    
C2    C3    S    
C15   H2    S    
Cu2   O4    S    
H17   N3    S    
C2    H1    S    
C15   H27   S    
Cu1   O5    S    
C31   H13   S    
C19   O6    A    
C10   C11   S    
C13   C16   S    
C27   C28   S    
C14   C15   S    
H21   N5    S    
C15   C16   S    
