data_mof_unit_16342.cif
_audit_creation_date              2013-03-05T16:32:08-0500
_audit_creation_method            fapswitch 2.2
_symmetry_space_group_name_H-M    P1
_symmetry_Int_Tables_number       1
_space_group_crystal_system       triclinic
_cell_length_a                    10.794081
_cell_length_b                    10.922506
_cell_length_c                    9.590729
_cell_angle_alpha                 91.822406
_cell_angle_beta                  89.390579
_cell_angle_gamma                 91.713653
_cell_volume                      1129.60128473

loop_
_atom_site_label
_atom_site_type_symbol
_atom_site_description
_atom_site_fract_x
_atom_site_fract_y
_atom_site_fract_z
_atom_type_partial_charge
O1    O     O_R   0.500000 0.319640 0.618810 -0.600856
O2    O     O_R   0.500010 0.319680 0.381230 -0.502384
C1    C     C_R   0.500307 0.262539 0.497343 0.865279
O3    O     O_R   0.317690 0.499960 0.618790 -0.573594
O4    O     O_R   0.317700 0.500000 0.381210 -0.555245
C2    C     C_R   0.260201 0.499942 0.501468 0.810660
Cu1   Cu    Cu3+1 0.499990 0.499980 0.640670 1.004513
Cu2   Cu    Cu3+1 0.500010 0.500020 0.359330 1.075949
O5    O     O_R   0.499990 0.680320 0.618770 -0.579905
O6    O     O_R   0.500000 0.680360 0.381190 -0.601975
O7    O     O_R   0.682300 0.500000 0.618790 -0.587887
O8    O     O_R   0.682310 0.500040 0.381210 -0.544872
C3    C     C_R   0.499623 0.737614 0.501745 0.864272
C4    C     C_R   0.740192 0.503141 0.500173 0.856639
C5    C     C_3   0.069082 0.503502 0.659041 0.198982
H1    H     H_    0.098079 0.418344 0.709260 0.146492
C6    C     C_3   0.925852 0.499829 0.656128 -0.433213
H2    H     H_    0.889201 0.578742 0.718506 0.215822
H3    H     H_    0.127251 0.699398 0.463701 0.198648
H4    H     H_    0.921387 0.699391 0.523434 0.204555
C7    C     C_3   0.078959 0.613410 0.426414 -0.369017
C8    C     C_3   0.069782 0.383422 0.431082 -0.447943
C9    C     C_3   0.122681 0.501498 0.505693 -0.124743
H5    H     H_    0.097165 0.301817 0.488726 0.215172
C10   C     C_3   0.878599 0.503217 0.502503 -0.174460
C11   C     C_3   0.937349 0.624808 0.443869 0.149786
C12   C     C_3   0.927313 0.388942 0.418328 0.185917
C13   C     C_R   0.488144 0.069599 0.618751 -0.018025
C14   C     C_R   0.494078 0.129087 0.492325 -0.155654
C15   C     C_R   0.486594 0.056490 0.366673 0.378255
C16   C     C_R   0.481161 0.928855 0.374425 -0.217320
C17   C     C_R   0.492964 0.870841 0.502212 -0.084574
C18   C     C_R   0.491735 0.943990 0.624502 0.041629
C19   C     C_3   0.570300 0.954582 0.753930 0.148883
C20   C     C_3   0.562880 0.092654 0.746922 -0.358344
H6    H     H_    0.522914 0.920383 0.848838 0.125852
C21   C     C_R   0.595665 0.554402 0.074215 0.244460
N1    N     N_R   0.500800 0.500930 0.147930 -0.258586
C22   C     C_R   0.407862 0.440925 0.070648 0.432640
C23   C     C_R   0.409983 0.440195 0.922730 -0.043147
H7    H     H_    0.336291 0.393445 0.864627 0.183278
N2    N     N_R   0.500800 0.500890 0.852020 -0.227550
C24   C     C_R   0.597264 0.550933 0.926460 0.204804
C25   C     C_3   0.636189 0.680584 0.918347 -0.412536
C26   C     C_3   0.626533 0.688758 0.074800 -0.404719
H8    H     H_    0.732308 0.691705 0.877064 0.247392
N3    N     N_R   0.115432 0.609114 0.744680 0.150771
O9    O     O_R   0.086814 0.720534 0.716816 -0.332278
O10   O     O_R   0.174629 0.590669 0.859148 -0.303595
H9    H     H_    0.906280 0.400529 0.306463 0.196383
H10   H     H_    0.104858 0.601819 0.314216 0.246369
N4    N     N_R   0.883289 0.663686 0.314137 0.116899
O11   O     O_R   0.846364 0.775748 0.308272 -0.307000
O12   O     O_R   0.895235 0.598419 0.199096 -0.360540
N5    N     N_R   0.493186 0.107301 0.230434 0.155645
O13   O     O_R   0.592501 0.168469 0.192544 -0.282448
O14   O     O_R   0.418572 0.064018 0.133887 -0.339931
H11   H     H_    0.475429 0.875508 0.277935 0.183864
N6    N     N_R   0.698543 0.915348 0.736406 0.145156
O15   O     O_R   0.777531 0.940417 0.835544 -0.269752
O16   O     O_R   0.735559 0.856265 0.624363 -0.342258
H12   H     H_    0.507166 0.134121 0.833445 0.211122
H13   H     H_    0.652867 0.141227 0.725421 0.249731
N7    N     N_R   0.301126 0.385861 0.135253 0.122284
O17   O     O_R   0.312727 0.291331 0.212089 -0.316351
O18   O     O_R   0.191929 0.408482 0.087696 -0.349721
H14   H     H_    0.564754 0.731779 0.866279 0.214827
H15   H     H_    0.716048 0.714044 0.121786 0.295848
H16   H     H_    0.548123 0.744879 0.111733 0.199410
H17   H     H_    0.889358 0.417535 0.709580 0.231920
H18   H     H_    0.109871 0.372502 0.325159 0.259342
N8    N     N_R   0.866555 0.273257 0.460116 0.123411
O19   O     O_R   0.888506 0.226376 0.580119 -0.340276
O20   O     O_R   0.798650 0.210286 0.370778 -0.282162

loop_
_geom_bond_atom_site_label_1
_geom_bond_atom_site_label_2
_geom_bond_distance
_ccdc_geom_bond_type
C7    C11   1.544212 S    
C3    C17   1.458964 S    
C5    N3    1.472931 S    
N5    O13   1.300755 A    
Cu1   Cu2   2.698266 S    
N3    O10   1.300308 A    
C25   C26   1.503001 S    
Cu1   O7    1.976800 S    
C22   N7    1.428320 S    
C14   C15   1.423025 A    
O4    C2    1.303933 A    
C16   H11   1.079116 S    
C13   C14   1.393722 A    
H3    C7    1.111324 S    
C15   C16   1.397881 A    
O7    C4    1.293031 A    
C5    H1    1.115441 S    
Cu1   O5    1.987563 S    
C19   C20   1.516266 S    
Cu1   N2    2.026820 S    
C1    C14   1.456452 S    
O5    C3    1.302387 A    
C16   C17   1.406171 A    
C13   C20   1.488130 S    
N4    O12   1.301763 A    
C12   H9    1.110918 S    
C23   N2    1.354968 A    
N6    O15   1.301017 A    
Cu2   N1    2.027747 S    
O3    Cu1   1.981129 S    
C25   H8    1.111196 S    
C6    H2    1.113508 S    
N6    O16   1.301153 A    
C26   H16   1.108333 S    
N8    O20   1.300076 A    
C22   C23   1.418352 A    
C10   C11   1.572163 S    
O1    C1    1.303821 A    
N7    O18   1.301686 A    
C21   C24   1.416312 A    
C24   C25   1.469245 S    
C21   N1    1.365493 A    
C11   N4    1.460412 S    
N3    O9    1.301072 A    
Cu2   O8    1.981128 S    
C26   H15   1.094685 S    
C18   C19   1.510216 S    
O3    C2    1.290727 A    
C23   H7    1.082132 S    
O8    C4    1.305634 A    
C13   C18   1.376540 A    
C8    C12   1.547095 S    
N5    O14   1.301848 A    
C19   N6    1.467663 S    
C8    H5    1.112678 S    
N2    C24   1.360006 A    
C21   C26   1.494956 S    
C8    H18   1.104322 S    
C7    H10   1.113167 S    
N4    O11   1.301626 A    
C5    C6    1.545887 S    
O1    Cu1   1.974253 S    
O2    Cu2   1.987561 S    
N8    O19   1.301342 A    
O6    C3    1.296912 A    
O4    Cu2   1.976799 S    
C10   C12   1.565980 S    
C15   N5    1.436012 S    
C6    C10   1.566184 S    
C17   C18   1.398147 A    
C7    C9    1.547986 S    
O2    C1    1.293861 A    
N7    O17   1.297261 A    
N1    C22   1.389564 A    
H4    C11   1.114310 S    
C2    C9    1.485118 S    
C5    C9    1.574429 S    
C20   H12   1.112274 S    
C19   H6    1.109050 S    
C4    C10   1.494364 S    
C6    H17   1.108946 S    
Cu2   O6    1.974253 S    
C8    C9    1.551549 S    
C25   H14   1.099245 S    
C20   H13   1.113253 S    
C12   N8    1.471185 S    
