data_mof_unit_14468.cif
_audit_creation_date              2012-12-10T16:38:37-0500
_audit_creation_method            fapswitch 2.2
_symmetry_space_group_name_H-M    P1
_symmetry_Int_Tables_number       1
_space_group_crystal_system       triclinic
_cell_length_a                    10.942797
_cell_length_b                    10.822854
_cell_length_c                    17.722498
_cell_angle_alpha                 97.877049
_cell_angle_beta                  72.875299
_cell_angle_gamma                 98.749872
_cell_volume                      1973.03949493

loop_
_atom_site_label
_atom_site_type_symbol
_atom_type_description
_atom_site_fract_x
_atom_site_fract_y
_atom_site_fract_z
_atom_type_partial_charge
C1    C     C_R   0.158343 0.478404 0.518164 0.884494
C2    C     C_R   0.589056 0.372376 0.917678 -0.290716
C3    C     C_R   0.658471 0.317936 0.956289 0.204844
C4    C     C_R   0.844129 0.519937 0.481966 0.877301
C5    C     C_R   0.632794 0.340554 0.039094 0.085606
C6    C     C_R   0.527345 0.406464 0.083092 0.047563
C7    C     C_R   0.714116 0.303359 0.078294 -0.230491
C8    C     C_R   0.694555 0.333025 0.160063 0.149506
C9    C     C_R   0.517296 0.446034 0.163130 -0.281111
C10   C     C_2   0.983158 0.526619 0.475076 -0.087064
C11   C     C_2   0.022545 0.466903 0.525920 -0.041529
C12   C     C_R   0.283385 0.627854 0.846802 0.208457
C13   C     C_2   0.543720 0.966954 0.475882 -0.352362
C14   C     C_2   0.455603 0.035959 0.523969 -0.296914
C15   C     C_R   0.468288 0.168260 0.517620 0.858673
C16   C     C_R   0.530978 0.833145 0.482512 0.890889
C17   C     C_R   0.565060 0.435844 0.287848 0.804926
C18   C     C_R   0.435115 0.562033 0.712930 0.805000
C19   C     C_R   0.394883 0.573398 0.800942 -0.070122
C20   C     C_R   0.594962 0.405610 0.202209 -0.020468
C21   C     C_R   0.242064 0.620679 0.928847 -0.264339
C22   C     C_3   0.086639 0.599482 0.411560 -0.440729
C23   C     C_R   0.464693 0.517825 0.839331 -0.300244
C24   C     C_3   0.044401 0.654195 0.349450 -0.807936
C25   C     C_3   0.935104 0.381855 0.587933 -0.372167
C26   C     C_3   0.004542 0.314474 0.630888 -0.926127
C27   C     C_3   0.783188 0.289903 0.200065 -0.441444
C28   C     C_3   0.720843 0.172527 0.242067 -0.855282
C29   C     C_3   0.723579 0.112766 0.906249 -0.803496
C30   C     C_3   0.103957 0.602580 0.791877 -0.732259
C31   C     C_3   0.231193 0.422268 0.161906 -0.403321
C32   C     C_3   0.221659 0.279174 0.156881 -0.827774
C33   C     C_R   0.420095 0.503875 0.921226 0.103467
C34   C     C_R   0.307088 0.556596 0.965723 0.110513
C35   C     C_R   0.485276 0.440437 0.960210 0.009381
C36   C     C_R   0.442538 0.441283 0.044304 0.052667
C37   C     C_R   0.315827 0.473919 0.084834 0.156307
C38   C     C_R   0.254784 0.538352 0.045718 -0.280764
H1    H     H_    0.161747 0.569414 0.076944 0.142306
H2    H     H_    0.983188 0.730259 0.377468 0.279239
H3    H     H_    0.131012 0.696253 0.305969 0.224831
H4    H     H_    0.137700 0.678039 0.442132 0.212804
H5    H     H_    0.158416 0.535208 0.377539 0.207727
H6    H     H_    0.067906 0.250130 0.588063 0.270014
H7    H     H_    0.062645 0.383368 0.662529 0.250829
H8    H     H_    0.932422 0.257922 0.675193 0.252432
H9    H     H_    0.868409 0.439140 0.634227 0.233782
H10   H     H_    0.879500 0.306326 0.558197 0.241783
H11   H     H_    0.632545 0.192017 0.290103 0.264919
H12   H     H_    0.794139 0.252120 0.045362 0.174190
H13   H     H_    0.695603 0.095437 0.198997 0.263550
H14   H     H_    0.789478 0.141333 0.268801 0.242453
H15   H     H_    0.874774 0.267964 0.155649 0.208907
H16   H     H_    0.809935 0.366059 0.243165 0.207246
H17   H     H_    0.805924 0.277512 0.855419 0.225952
H18   H     H_    0.648535 0.086353 0.874259 0.244699
H19   H     H_    0.686312 0.080680 0.966650 0.250142
H20   H     H_    0.809226 0.064446 0.873685 0.240051
H21   H     H_    0.179411 0.768814 0.842369 0.216521
H22   H     H_    0.029708 0.576177 0.847051 0.218152
H23   H     H_    0.625189 0.009576 0.431694 0.146034
H24   H     H_    0.139539 0.516295 0.755964 0.235433
H25   H     H_    0.059345 0.650322 0.756886 0.240440
H26   H     H_    0.150031 0.245136 0.210900 0.244931
H27   H     H_    0.189771 0.236073 0.104198 0.253848
H28   H     H_    0.315477 0.248174 0.153093 0.270032
H29   H     H_    0.259835 0.465394 0.215135 0.197656
H30   H     H_    0.131026 0.445296 0.174391 0.195507
H31   H     H_    0.372781 0.995480 0.568080 0.161220
H32   H     H_    0.455204 0.515448 0.194985 0.134143
H33   H     H_    0.155127 0.660700 0.963313 0.141322
H34   H     H_    0.554101 0.485703 0.803499 0.168725
H35   H     H_    0.615249 0.354589 0.853972 0.150355
H36   H     H_    0.993899 0.579255 0.316232 0.262073
N1    N     N_2   0.759774 0.247210 0.910584 -0.317893
N2    N     N_2   0.209373 0.686028 0.811030 -0.280406
O1    O     O_3   0.500000 0.500000 0.500000 -0.481133
O2    O     O_R   0.470800 0.371790 0.332500 -0.636907
O3    O     O_R   0.380610 0.619380 0.674980 -0.609528
O4    O     O_R   0.632640 0.524780 0.317540 -0.651723
O5    O     O_R   0.515950 0.484050 0.674980 -0.653587
O6    O     O_R   0.535460 0.243030 0.556410 -0.635363
O7    O     O_R   0.437420 0.784080 0.535340 -0.638971
O8    O     O_R   0.223560 0.397520 0.472140 -0.648911
O9    O     O_R   0.803560 0.575360 0.436110 -0.635931
O10   O     O_R   0.209690 0.568800 0.556400 -0.653308
O11   O     O_R   0.763190 0.458310 0.535350 -0.678909
O12   O     O_R   0.414000 0.207090 0.472140 -0.637458
O13   O     O_R   0.613120 0.765800 0.436110 -0.647774
Zn1   Zn    Zn3+2 0.577310 0.422690 0.565550 0.941717
Zn2   Zn    Zn3+2 0.403760 0.371330 0.445150 0.954842
Zn3   Zn    Zn3+2 0.634990 0.589920 0.423760 0.950910
Zn4   Zn    Zn3+2 0.383940 0.616050 0.565540 0.963146

loop_
_geom_bond_atom_site_label_1
_geom_bond_atom_site_label_2
_ccdc_geom_bond_type
C2    C35   A    
O1    Zn3   S    
C35   C36   A    
C1    C11   S    
C18   O5    A    
C6    C9    A    
C27   H16   S    
C26   H6    S    
C7    C8    A    
C4    O11   A    
C22   H4    S    
C10   C22   S    
C1    O8    A    
C31   H29   S    
C8    C20   A    
C21   H33   S    
C36   C37   A    
O3    Zn4   S    
C5    C6    A    
C28   H13   S    
C11   C25   S    
O7    Zn4   S    
C17   C20   S    
C18   C19   S    
C26   H7    S    
C24   H2    S    
C31   C32   S    
C18   O3    A    
C23   C33   A    
C30   H22   S    
O8    Zn2   S    
C3    N1    S    
C25   H9    S    
H17   N1    S    
C16   O13   A    
C13   C14   D    
C24   H3    S    
O9    Zn3   S    
C15   O6    A    
C31   H30   S    
O1    Zn1   S    
C9    H32   S    
C32   H26   S    
C5    C7    A    
C21   C34   A    
C25   C26   S    
C12   C21   A    
C16   O7    A    
C31   C37   S    
O4    Zn3   S    
C19   C23   A    
C37   C38   A    
O10   Zn4   S    
C30   N2    S    
C28   H11   S    
C9    C20   A    
C22   H5    S    
O12   Zn2   S    
C33   C34   A    
O13   Zn3   S    
C25   H10   S    
C2    H35   S    
O5    Zn1   S    
C29   H19   S    
C12   N2    S    
C14   H31   S    
C22   C24   S    
O11   Zn1   S    
C4    C10   S    
C32   H28   S    
C1    O10   A    
O1    Zn2   S    
C34   C38   A    
C23   H34   S    
C7    H12   S    
C3    C5    A    
C27   H15   S    
C29   N1    S    
C29   H18   S    
O2    Zn2   S    
O6    Zn1   S    
C30   H24   S    
C2    C3    A    
C28   H14   S    
C24   H36   S    
C38   H1    S    
C12   C19   A    
O1    Zn4   S    
C17   O2    A    
C33   C35   A    
C6    C36   A    
C17   O4    A    
C10   C11   D    
C26   H8    S    
C13   H23   S    
C29   H20   S    
C13   C16   S    
C27   C28   S    
C4    O9    A    
C8    C27   S    
C14   C15   S    
C32   H27   S    
C30   H25   S    
H21   N2    S    
C15   O12   A    
