data_mof_unit_59549.cif
_audit_creation_date              2012-12-10T16:54:59-0500
_audit_creation_method            fapswitch 2.2
_symmetry_space_group_name_H-M    P1
_symmetry_Int_Tables_number       1
_space_group_crystal_system       triclinic
_cell_length_a                    7.761729
_cell_length_b                    8.576525
_cell_length_c                    15.71965
_cell_angle_alpha                 90.806547
_cell_angle_beta                  85.952018
_cell_angle_gamma                 93.611386
_cell_volume                      1041.70398201

loop_
_atom_site_label
_atom_site_type_symbol
_atom_type_description
_atom_site_fract_x
_atom_site_fract_y
_atom_site_fract_z
_atom_type_partial_charge
C1    C     C_R   0.545553 0.794558 0.501731 0.958825
C2    C     C_2   0.432349 0.044726 0.524975 0.032926
C3    C     C_R   0.502180 0.500138 0.661556 0.883711
C4    C     C_R   0.454479 0.205710 0.506686 0.893225
C5    C     C_R   0.497776 0.499863 0.338394 0.905932
C6    C     C_3   0.357630 0.601920 0.954889 -0.016628
C7    C     C_3   0.680414 0.555638 0.947430 -0.386504
C8    C     C_3   0.673752 0.557042 0.045618 -0.480290
C9    C     C_1   0.492727 0.498719 0.249690 -0.138183
C10   C     C_3   0.501790 0.496174 0.917090 0.153041
C11   C     C_3   0.290016 0.961914 0.660209 -0.691214
C12   C     C_3   0.356380 0.604217 0.053611 -0.414509
C13   C     C_3   0.226051 0.846604 0.922693 -0.685498
C14   C     C_3   0.492272 0.495355 0.082814 0.167425
C15   C     C_3   0.455002 0.325916 0.048864 0.181963
C16   C     C_3   0.456577 0.326776 0.950043 0.133965
C17   C     C_1   0.490957 0.497197 0.174400 0.004003
C18   C     C_1   0.506258 0.497567 0.825429 0.015159
C19   C     C_1   0.506385 0.498836 0.750157 -0.141988
C20   C     C_2   0.567718 0.958297 0.502949 -0.406471
Cl1   Cl    Cl    0.602456 0.188534 0.904259 -0.675567
Cl2   Cl    Cl    0.253360 0.237950 0.093991 -0.662923
H1    H     H_    0.385267 0.724894 0.078024 0.200873
H2    H     H_    0.703782 0.678302 0.068866 0.205618
H3    H     H_    0.775098 0.483249 0.067168 0.207222
H4    H     H_    0.326485 0.286882 0.929576 0.156941
H5    H     H_    0.166901 0.041234 0.557925 0.236482
H6    H     H_    0.166336 0.907496 0.689094 0.229691
H7    H     H_    0.317721 0.076105 0.692387 0.232902
H8    H     H_    0.394553 0.883078 0.670777 0.244125
H9    H     H_    0.486697 0.825473 0.940155 0.281295
H10   H     H_    0.256594 0.960281 0.890340 0.268965
H11   H     H_    0.177581 0.869181 0.989641 0.260577
H12   H     H_    0.230765 0.547667 0.936726 0.153386
H13   H     H_    0.123688 0.780905 0.888424 0.223609
H14   H     H_    0.224786 0.566276 0.081309 0.207972
H15   H     H_    0.557590 0.252189 0.069038 0.179334
H16   H     H_    0.691884 0.007787 0.476052 0.160620
H17   H     H_    0.013506 0.381881 0.436681 0.199924
H18   H     H_    0.986552 0.618146 0.563332 0.198517
H19   H     H_    0.782993 0.479295 0.921848 0.228044
H20   H     H_    0.718766 0.674683 0.922963 0.183839
N1    N     N_2   0.950340 0.457950 0.477370 -0.169286
N2    N     N_2   0.049660 0.542050 0.522630 -0.166028
N3    N     N_2   0.275723 0.984438 0.569950 -0.279348
N4    N     N_2   0.380356 0.759877 0.920749 -0.289176
O1    O     O_R   0.389240 0.738570 0.505550 -0.572894
O2    O     O_R   0.678400 0.711630 0.491050 -0.633111
O3    O     O_R   0.355360 0.513470 0.630110 -0.614513
O4    O     O_R   0.644510 0.486530 0.615610 -0.616851
O5    O     O_R   0.321600 0.288370 0.508950 -0.634915
O6    O     O_R   0.610760 0.261430 0.494450 -0.623224
O7    O     O_R   0.355490 0.513470 0.384390 -0.613140
O8    O     O_R   0.644640 0.486530 0.369890 -0.607116
Zn1   Zn    Zn3+2 0.306930 0.517990 0.509680 0.967653
Zn2   Zn    Zn3+2 0.693070 0.482010 0.490320 0.961612

loop_
_geom_bond_atom_site_label_1
_geom_bond_atom_site_label_2
_ccdc_geom_bond_type
C6    C10   S    
C7    C10   S    
C2    C4    S    
N1    N2    D    
C1    O2    A    
C13   H11   S    
C16   Cl1   S    
C12   H14   S    
C20   H16   S    
N1    Zn2   S    
C13   H10   S    
C14   C17   S    
O3    Zn1   S    
H5    N3    S    
C7    H19   S    
C3    O3    A    
C7    C8    S    
C10   C16   S    
O4    Zn2   S    
C3    C19   S    
C8    H3    S    
N2    Zn1   S    
C5    C9    S    
C11   H6    S    
C4    O6    A    
C6    C12   S    
C5    O7    A    
C8    H2    S    
C3    O4    A    
C12   C14   S    
C13   H13   S    
O5    Zn1   S    
O7    Zn1   S    
C2    N3    S    
C16   H4    S    
C13   N4    S    
C10   C18   S    
O8    Zn2   S    
C11   N3    S    
C4    O5    A    
C2    C20   D    
C15   C16   S    
O6    Zn2   S    
C5    O8    A    
H18   N2    S    
C11   H7    S    
O1    Zn1   S    
C18   C19   T    
C7    H20   S    
C9    C17   T    
C12   H1    S    
O2    Zn2   S    
C14   C15   S    
C1    O1    A    
C1    C20   S    
C8    C14   S    
C6    N4    S    
H17   N1    S    
C15   Cl2   S    
C15   H15   S    
C6    H12   S    
C11   H8    S    
H9    N4    S    
