data_mof_unit_22273.cif
_audit_creation_date              2012-12-10T18:11:55-0500
_audit_creation_method            fapswitch 2.2
_symmetry_space_group_name_H-M    P1
_symmetry_Int_Tables_number       1
_space_group_crystal_system       triclinic
_cell_length_a                    15.848797
_cell_length_b                    10.792026
_cell_length_c                    9.71284
_cell_angle_alpha                 89.592335
_cell_angle_beta                  91.217331
_cell_angle_gamma                 90.449751
_cell_volume                      1660.82403466

loop_
_atom_site_label
_atom_site_type_symbol
_atom_type_description
_atom_site_fract_x
_atom_site_fract_y
_atom_site_fract_z
_atom_type_partial_charge
C1    C     C_R   0.505339 0.261145 0.500837 0.754024
C2    C     C_3   0.083557 0.485579 0.500496 -0.074742
C3    C     C_3   0.975685 0.513431 0.633557 -0.306887
C4    C     C_3   0.916867 0.487530 0.507668 -0.027104
C5    C     C_3   0.029908 0.597434 0.539731 0.405239
C6    C     C_3   0.969932 0.574024 0.414566 -0.330297
C7    C     C_1   0.175266 0.490170 0.497533 0.094816
C8    C     C_1   0.824992 0.488563 0.507268 0.038183
C9    C     C_3   0.563765 0.066232 0.619821 0.306934
C10   C     C_3   0.546752 0.925096 0.624266 -0.439076
C11   C     C_3   0.414066 0.076093 0.520307 -0.389491
C12   C     C_R   0.340577 0.499380 0.498841 0.846336
C13   C     C_3   0.540473 0.073005 0.363498 -0.473299
C14   C     C_3   0.506193 0.122833 0.502229 0.012530
C15   C     C_3   0.498369 0.878683 0.494144 -0.057109
C16   C     C_3   0.406841 0.936349 0.487069 0.649256
C17   C     C_3   0.548441 0.930235 0.369261 -0.429703
C18   C     C_3   0.483292 0.625289 0.083868 0.229703
C19   C     C_3   0.495089 0.632204 0.920302 0.629215
C20   C     C_3   0.583735 0.454902 0.083586 0.179430
C21   C     C_3   0.437058 0.411351 0.080588 0.316922
C22   C     C_3   0.579238 0.442923 0.919681 0.203923
C23   C     C_R   0.497796 0.739521 0.498456 0.859476
C24   C     C_3   0.425397 0.431085 0.916818 0.574507
C25   C     C_R   0.659465 0.497633 0.501425 0.773231
C26   C     C_3   0.970560 0.375460 0.468800 0.403570
C27   C     C_3   0.023560 0.460568 0.377267 0.322038
C28   C     C_1   0.250832 0.495107 0.496867 -0.107057
C29   C     C_1   0.749293 0.491811 0.505118 -0.142473
C30   C     C_3   0.029854 0.400784 0.592909 0.234365
Cu1   Cu    Cu3+1 0.500040 0.499860 0.642410 1.093560
Cu2   Cu    Cu3+1 0.499960 0.500140 0.357590 1.021007
H1    H     H_    0.508244 0.903567 0.715403 0.294988
H2    H     H_    0.395488 0.092923 0.628272 0.260735
H3    H     H_    0.496955 0.099239 0.276892 0.230242
H4    H     H_    0.603237 0.114907 0.341811 0.173430
H5    H     H_    0.616153 0.904360 0.379947 0.166547
H6    H     H_    0.525194 0.890885 0.269976 0.243177
H7    H     H_    0.369098 0.130108 0.454957 0.157042
H8    H     H_    0.523725 0.695509 0.132399 0.116587
H9    H     H_    0.461808 0.315701 0.097931 0.017426
H10   H     H_    0.589109 0.356330 0.117067 0.101342
H11   H     H_    0.945107 0.646237 0.342955 0.175623
H12   H     H_    0.573633 0.342492 0.894636 0.108913
H13   H     H_    0.957562 0.539360 0.738986 0.181834
H14   H     H_    0.630893 0.084777 0.592714 0.064981
H15   H     H_    0.608179 0.876267 0.635602 0.175220
N1    N     N_3   0.501840 0.500250 0.143650 -0.293670
N2    N     N_3   0.501160 0.503300 0.856280 -0.265653
O1    O     O_R   0.500050 0.317570 0.620260 -0.497371
O2    O     O_R   0.499980 0.317810 0.379740 -0.629236
O3    O     O_R   0.379110 0.499870 0.620240 -0.529656
O4    O     O_R   0.379040 0.500110 0.379720 -0.483945
O5    O     O_R   0.500020 0.682190 0.620260 -0.492654
O6    O     O_R   0.499950 0.682430 0.379740 -0.574528
O7    O     O_R   0.620960 0.499890 0.620280 -0.515795
O8    O     O_R   0.620890 0.500130 0.379760 -0.527535
O9    O     O_3   0.054248 0.428931 0.247572 -0.590110
C31   C     C_3   0.989093 0.437141 0.147279 0.009418
H16   H     H_    0.979923 0.535744 0.116802 0.172003
H17   H     H_    0.928206 0.397457 0.183419 0.159169
C32   C     C_3   0.015068 0.364696 0.022056 -0.700132
H18   H     H_    0.011981 0.263647 0.043297 0.247126
H19   H     H_    0.972714 0.386484 0.933588 0.224497
H20   H     H_    0.080570 0.389560 0.995194 0.269682
Cl1   Cl    Cl    0.333333 0.865690 0.600352 -0.451661
Cl2   Cl    Cl    0.357572 0.920755 0.320043 -0.514514
O10   O     O_3   0.933143 0.259842 0.436312 -0.580905
C33   C     C_3   0.994078 0.178096 0.385410 0.110028
H21   H     H_    0.057866 0.190777 0.433897 0.193121
H22   H     H_    0.999292 0.191535 0.272711 0.163634
C34   C     C_3   0.965730 0.045277 0.412131 -0.669468
H23   H     H_    0.903284 0.027866 0.361553 0.220235
H24   H     H_    0.012314 0.979991 0.370063 0.236798
H25   H     H_    0.960768 0.028541 0.524648 0.284857
Cl3   Cl    Cl    0.381597 0.677330 0.140325 -0.356229
Cl4   Cl    Cl    0.411928 0.726244 0.847713 -0.398830
Cl5   Cl    Cl    0.584393 0.727591 0.881338 -0.713514
O11   O     O_3   0.661825 0.497845 0.145224 -0.534018
C35   C     C_3   0.692516 0.619152 0.119115 0.212917
H26   H     H_    0.650123 0.691712 0.153750 0.136438
H27   H     H_    0.710196 0.632546 0.011408 0.240743
C36   C     C_3   0.774403 0.639838 0.200775 -0.879350
H28   H     H_    0.814139 0.555691 0.199187 0.251036
H29   H     H_    0.810406 0.718453 0.155709 0.208035
H30   H     H_    0.760585 0.664177 0.308541 0.241088
O12   O     O_3   0.654497 0.489765 0.863434 -0.500222
C37   C     C_3   0.718057 0.398247 0.861788 0.134030
H31   H     H_    0.707947 0.339024 0.769660 0.142966
H32   H     H_    0.718969 0.338890 0.956184 0.128795
C38   C     C_3   0.803933 0.460184 0.851919 -0.815189
H33   H     H_    0.827171 0.489302 0.955293 0.226071
H34   H     H_    0.848804 0.393099 0.808900 0.219691
H35   H     H_    0.800433 0.543184 0.784064 0.272149
O13   O     O_3   0.357210 0.419291 0.143859 -0.485725
C39   C     C_3   0.325180 0.301023 0.183202 0.071528
H36   H     H_    0.359925 0.267836 0.275983 0.165309
H37   H     H_    0.331778 0.230723 0.100876 0.181018
C40   C     C_3   0.231901 0.310225 0.216658 -0.713841
H38   H     H_    0.192185 0.271965 0.131354 0.233377
H39   H     H_    0.218045 0.256617 0.311717 0.214661
H40   H     H_    0.214362 0.408348 0.231517 0.304742
O14   O     O_3   0.350413 0.501797 0.891879 -0.502413
C41   C     C_3   0.273375 0.439322 0.863208 0.223964
H41   H     H_    0.258138 0.369782 0.942606 0.170761
H42   H     H_    0.274235 0.392436 0.762147 0.181262
C42   C     C_3   0.204179 0.536376 0.857421 -0.642393
H43   H     H_    0.221875 0.612810 0.786199 0.305225
H44   H     H_    0.144083 0.495496 0.819086 0.207085
H45   H     H_    0.194965 0.575059 0.961653 0.272803
Cl6   Cl    Cl    0.413832 0.276066 0.848641 -0.665610
Cl7   Cl    Cl    0.070756 0.745470 0.587919 -0.538518
Cl8   Cl    Cl    0.070079 0.282493 0.704610 -0.657046
O15   O     O_3   0.547627 0.116940 0.750838 -0.516658
C43   C     C_3   0.610309 0.081612 0.850132 0.086511
H46   H     H_    0.657035 0.157193 0.862297 0.097213
H47   H     H_    0.646250 0.997264 0.823379 0.159388
C44   C     C_3   0.569282 0.057238 0.988002 -0.693190
H48   H     H_    0.520098 0.983892 0.977194 0.302528
H49   H     H_    0.617673 0.026362 0.064898 0.184342
H50   H     H_    0.539867 0.142906 0.025726 0.224219

loop_
_geom_bond_atom_site_label_1
_geom_bond_atom_site_label_2
_ccdc_geom_bond_type
O12   C37   S    
C19   Cl5   S    
C34   H24   S    
Cu2   N1    S    
C2    C7    S    
C25   O7    A    
Cu1   O3    S    
C4    C8    S    
C41   H42   S    
O15   C43   S    
Cu1   Cu2   S    
C26   C27   S    
C12   C28   S    
C9    O15   S    
C13   H3    S    
C10   C15   S    
C34   H25   S    
C5    C6    S    
C11   C14   S    
C43   H46   S    
C39   C40   S    
C33   H22   S    
C18   C19   S    
C19   Cl4   S    
C18   H8    S    
C44   H48   S    
C32   H19   S    
O14   C41   S    
C22   H12   S    
C40   H38   S    
O10   C33   S    
C43   H47   S    
C39   H37   S    
C42   H43   S    
C2    C27   S    
Cu1   O7    S    
C1    O1    A    
Cu2   O6    S    
C12   O4    A    
C20   O11   S    
C6    C27   S    
C21   N1    S    
C15   C23   S    
C9    H14   S    
C13   C14   S    
C42   H44   S    
C24   Cl6   S    
C25   O8    A    
Cu2   O8    S    
Cu1   N2    S    
C35   C36   S    
C41   H41   S    
C12   O3    A    
C25   C29   S    
C31   H17   S    
C13   H4    S    
C35   H27   S    
C38   H33   S    
C35   H26   S    
C21   O13   S    
O9    C31   S    
C3    H13   S    
C7    C28   T    
C44   H50   S    
C3    C30   S    
C9    C14   S    
Cu2   O2    S    
C32   H18   S    
C38   H34   S    
C11   C16   S    
C19   N2    S    
C4    C26   S    
C36   H28   S    
C37   C38   S    
C43   C44   S    
C39   H36   S    
C40   H40   S    
C16   Cl2   S    
C17   H5    S    
C22   O12   S    
C11   H7    S    
C1    O2    A    
C20   N1    S    
C22   N2    S    
C21   H9    S    
C4    C6    S    
C36   H29   S    
C37   H32   S    
C26   C30   S    
C6    H11   S    
C42   H45   S    
C2    C5    S    
C16   Cl1   S    
C8    C29   T    
Cu1   O1    S    
C3    C4    S    
Cu2   O4    S    
C10   H15   S    
C33   C34   S    
C23   O5    A    
C9    C10   S    
C24   N2    S    
C15   C17   S    
C31   C32   S    
C18   Cl3   S    
C32   H20   S    
C40   H39   S    
C11   H2    S    
C20   C22   S    
C34   H23   S    
C3    C5    S    
C27   O9    S    
C18   N1    S    
C20   H10   S    
C23   O6    A    
C5    Cl7   S    
C13   C17   S    
C2    C30   S    
C24   O14   S    
C26   O10   S    
C38   H35   S    
C10   H1    S    
C17   H6    S    
Cu1   O5    S    
C33   H21   S    
C44   H49   S    
O11   C35   S    
C31   H16   S    
C36   H30   S    
C37   H31   S    
C21   C24   S    
O13   C39   S    
C1    C14   S    
C41   C42   S    
C15   C16   S    
C30   Cl8   S    
