data_mof_unit_9698.cif
_audit_creation_date              2012-12-10T18:14:28-0500
_audit_creation_method            fapswitch 2.2
_symmetry_space_group_name_H-M    P1
_symmetry_Int_Tables_number       1
_space_group_crystal_system       triclinic
_cell_length_a                    12.689409
_cell_length_b                    13.30539
_cell_length_c                    18.947989
_cell_angle_alpha                 93.677676
_cell_angle_beta                  101.58771
_cell_angle_gamma                 84.744851
_cell_volume                      3117.32204129

loop_
_atom_site_label
_atom_site_type_symbol
_atom_type_description
_atom_site_fract_x
_atom_site_fract_y
_atom_site_fract_z
_atom_type_partial_charge
C1    C     C_R   0.442149 0.691184 0.491414 0.853645
C2    C     C_R   0.516913 0.431409 0.144567 0.020992
C3    C     C_R   0.672406 0.098803 0.631665 0.477606
C4    C     C_R   0.502715 0.494477 0.634630 0.873079
C5    C     C_R   0.584708 0.211017 0.537752 -0.236110
C6    C     C_R   0.309297 0.830417 0.439248 0.493403
C7    C     C_R   0.273364 0.932440 0.436876 -0.223828
C8    C     C_R   0.339239 0.005277 0.471967 -0.231324
C9    C     C_R   0.443588 0.977395 0.510778 0.073677
C10   C     C_R   0.480062 0.874810 0.516850 -0.162967
C11   C     C_R   0.516582 0.049324 0.541184 -0.038018
C12   C     C_R   0.512106 0.469224 0.709922 -0.142135
C13   C     C_R   0.604508 0.023628 0.597928 -0.187741
C14   C     C_R   0.628333 0.921405 0.612537 0.404284
C15   C     C_R   0.586887 0.853270 0.556649 0.407234
C16   C     C_R   0.557864 0.311021 0.511674 0.942671
C17   C     C_R   0.511168 0.140926 0.510153 -0.302661
C18   C     C_R   0.665303 0.191936 0.599096 0.369810
C19   C     C_R   0.411246 0.799825 0.481935 -0.216752
C20   C     C_R   0.106794 0.311837 0.431999 0.472006
C21   C     C_R   0.801084 0.630032 0.586838 -0.062120
C22   C     C_R   0.905231 0.660139 0.606601 0.290150
C23   C     C_R   0.523707 0.408696 0.069004 0.315741
C24   C     C_R   0.989581 0.603628 0.580678 0.420364
C25   C     C_R   0.966586 0.524206 0.527531 -0.206042
C26   C     C_R   0.857628 0.497084 0.508022 0.024085
C27   C     C_R   0.047732 0.468466 0.494760 -0.033755
C28   C     C_R   0.499280 0.498906 0.364963 0.860698
C29   C     C_R   0.027122 0.372596 0.460652 -0.010562
C30   C     C_R   0.924654 0.340948 0.449950 -0.376109
C31   C     C_R   0.837344 0.407628 0.462366 0.560968
C32   C     C_R   0.148091 0.504123 0.492666 0.000115
C33   C     C_R   0.205604 0.350344 0.435268 -0.123550
C34   C     C_R   0.527628 0.395043 0.926747 0.313821
C35   C     C_R   0.418150 0.451882 0.733939 -0.283903
C36   C     C_R   0.423622 0.422757 0.803469 -0.173585
C37   C     C_R   0.523621 0.409364 0.850432 0.023020
C38   C     C_R   0.618491 0.421306 0.825895 -0.294889
C39   C     C_R   0.613829 0.452530 0.756244 0.551883
C40   C     C_3   0.687912 0.822303 0.709564 0.107843
C41   C     C_3   0.639750 0.878351 0.770367 -0.374139
C42   C     C_3   0.609059 0.804602 0.819873 -0.968786
C43   C     C_3   0.713066 0.126928 0.753153 -0.271224
C44   C     C_3   0.275027 0.722295 0.339394 0.146124
C45   C     C_R   0.416690 0.436202 0.165479 -0.266985
C46   C     C_3   0.223959 0.786861 0.275410 -0.416273
C47   C     C_3   0.252863 0.739912 0.205426 -0.904800
C48   C     C_3   0.676345 0.833534 0.461990 -0.296950
C49   C     C_3   0.101952 0.198588 0.334893 -0.401484
C50   C     C_3   0.126602 0.569333 0.675085 -0.285751
C51   C     C_3   0.947595 0.823323 0.622332 0.167904
C52   C     C_3   0.986542 0.905697 0.678924 -0.284619
C53   C     C_3   0.011510 0.998209 0.643560 -0.955541
C54   C     C_3   0.717736 0.301345 0.384422 -0.353094
C55   C     C_3   0.758870 0.543423 0.762512 -0.316903
C56   C     C_R   0.408156 0.460601 0.236975 0.520939
C57   C     C_3   0.270542 0.372354 0.254520 -0.315373
C58   C     C_3   0.832117 0.250210 0.614986 -0.185974
C59   C     C_R   0.501365 0.484308 0.287832 -0.160823
C60   C     C_R   0.600626 0.483463 0.265673 -0.259031
C61   C     C_R   0.608602 0.456096 0.195015 -0.189653
H1    H     H_    0.339881 0.460234 0.698731 0.178802
H2    H     H_    0.696513 0.407446 0.860927 0.161356
H3    H     H_    0.344157 0.422231 0.126289 0.163250
H4    H     H_    0.673344 0.501480 0.303337 0.207903
H5    H     H_    0.686669 0.454848 0.179972 0.162150
H6    H     H_    0.762660 0.777137 0.734204 0.182499
H7    H     H_    0.631292 0.767574 0.679902 0.097863
H8    H     H_    0.699844 0.927245 0.802750 0.238145
H9    H     H_    0.566466 0.926653 0.747054 0.212857
H10   H     H_    0.548827 0.754633 0.788816 0.264259
H11   H     H_    0.573229 0.847421 0.862744 0.273791
H12   H     H_    0.451183 0.157786 0.462126 0.170696
H13   H     H_    0.681685 0.757588 0.845803 0.261605
H14   H     H_    0.769493 0.102240 0.802750 0.174081
H15   H     H_    0.631427 0.105339 0.756284 0.136457
H16   H     H_    0.712511 0.210453 0.752966 0.213714
H17   H     H_    0.247762 0.644931 0.327781 0.222093
H18   H     H_    0.364630 0.714378 0.345050 0.093004
H19   H     H_    0.134757 0.793812 0.269926 0.235457
H20   H     H_    0.253154 0.863720 0.284933 0.212411
H21   H     H_    0.341819 0.732568 0.209673 0.261820
H22   H     H_    0.216025 0.788832 0.160159 0.258467
H23   H     H_    0.306956 0.083408 0.469429 0.183270
H24   H     H_    0.221671 0.664067 0.193507 0.288647
H25   H     H_    0.691418 0.915068 0.469043 0.144521
H26   H     H_    0.604918 0.821490 0.418493 0.172018
H27   H     H_    0.747515 0.792234 0.444661 0.173838
H28   H     H_    0.056587 0.259829 0.300944 0.163543
H29   H     H_    0.068231 0.126516 0.312723 0.202427
H30   H     H_    0.188489 0.191638 0.330932 0.155809
H31   H     H_    0.135202 0.486676 0.661852 0.152904
H32   H     H_    0.070122 0.586085 0.713113 0.179832
H33   H     H_    0.206202 0.593125 0.703460 0.186052
H34   H     H_    0.193735 0.955477 0.406859 0.173905
H35   H     H_    0.872768 0.853263 0.585898 0.180631
H36   H     H_    0.011543 0.804036 0.589944 0.155913
H37   H     H_    0.923644 0.928199 0.711344 0.280612
H38   H     H_    0.060723 0.875895 0.715868 0.217187
H39   H     H_    0.078425 0.978284 0.614058 0.267136
H40   H     H_    0.036273 0.058091 0.685625 0.265955
H41   H     H_    0.938967 0.027779 0.605121 0.264857
H42   H     H_    0.740569 0.234978 0.418699 0.149109
H43   H     H_    0.760339 0.297107 0.338321 0.168494
H44   H     H_    0.630438 0.299439 0.361141 0.175021
H45   H     H_    0.271094 0.304136 0.417936 0.144444
H46   H     H_    0.703235 0.612654 0.751916 0.142810
H47   H     H_    0.829335 0.551314 0.737439 0.191666
H48   H     H_    0.789248 0.537000 0.821436 0.157473
H49   H     H_    0.195591 0.379648 0.276706 0.186254
H50   H     H_    0.330281 0.320390 0.288947 0.149200
H51   H     H_    0.250038 0.339335 0.198572 0.154242
H52   H     H_    0.830021 0.226473 0.557249 0.121830
H53   H     H_    0.881159 0.193368 0.650746 0.183821
H54   H     H_    0.872810 0.321528 0.625631 0.181082
H55   H     H_    0.911967 0.267615 0.423455 0.204691
H56   H     H_    0.348974 0.413354 0.820802 0.158682
H57   H     H_    0.169209 0.578501 0.513074 0.212551
H58   H     H_    0.738366 0.665992 0.612619 0.188005
N1    N     N_R   0.618387 0.412118 0.976018 -0.184438
N2    N     N_R   0.616510 0.418670 0.045957 -0.184667
N3    N     N_R   0.434316 0.387071 0.019908 -0.186510
N4    N     N_R   0.436171 0.380582 0.950029 -0.185607
N5    N     N_R   0.222200 0.444680 0.463280 -0.142597
N6    N     N_R   0.776960 0.554780 0.536340 -0.124367
O1    O     O_R   0.366740 0.627160 0.482470 -0.584217
O2    O     O_3   0.749942 0.079398 0.692865 -0.576976
O3    O     O_3   0.239956 0.761276 0.402901 -0.645454
O4    O     O_3   0.664220 0.794235 0.527131 -0.589869
O5    O     O_3   0.090045 0.212846 0.407401 -0.616746
O6    O     O_3   0.094200 0.623504 0.611734 -0.619981
O7    O     O_3   0.926201 0.738870 0.657291 -0.640681
O8    O     O_3   0.733589 0.392981 0.425918 -0.556065
O9    O     O_3   0.708699 0.456520 0.731444 -0.558663
O10   O     O_3   0.307598 0.469348 0.255692 -0.614528
O11   O     O_3   0.728274 0.268264 0.631336 -0.567528
O12   O     O_R   0.544830 0.662520 0.505920 -0.570302
O13   O     O_R   0.410920 0.482320 0.590130 -0.619033
O14   O     O_R   0.589010 0.517690 0.613590 -0.574371
O15   O     O_R   0.455170 0.337480 0.494080 -0.648157
O16   O     O_R   0.633260 0.372840 0.517530 -0.517248
O17   O     O_R   0.410990 0.482310 0.386410 -0.584564
O18   O     O_R   0.589080 0.517680 0.409870 -0.553032
O19   O     O_3   0.717170 0.891108 0.664196 -0.589032
Zn1   Zn    Zn3+2 0.381090 0.476390 0.484340 0.963355
Zn2   Zn    Zn3+2 0.618910 0.523610 0.515660 1.031557

loop_
_geom_bond_atom_site_label_1
_geom_bond_atom_site_label_2
_ccdc_geom_bond_type
C51   H36   S    
O18   Zn2   S    
O14   Zn2   S    
C34   N4    A    
C27   C29   A    
C34   C37   S    
C41   C42   S    
C32   N5    A    
C35   C36   A    
C49   H29   S    
C31   O8    S    
C7    C8    A    
C23   N2    A    
C30   H55   S    
C52   C53   S    
C6    C19   A    
C29   C30   A    
C43   H16   S    
C47   H24   S    
C54   H43   S    
C36   C37   A    
C10   C15   A    
C30   C31   A    
C3    O2    S    
C57   H51   S    
C5    C17   A    
O13   Zn1   S    
C3    C18   A    
C47   H21   S    
C5    C16   S    
C61   H5    S    
C11   C17   A    
C45   C56   A    
C53   H40   S    
C8    C9    A    
C40   H6    S    
C58   H52   S    
C48   H27   S    
C18   O11   S    
C47   H22   S    
C4    C12   S    
C9    C10   A    
C10   C19   A    
C3    C13   A    
C2    C61   A    
C51   H35   S    
C59   C60   A    
C53   H39   S    
C13   C14   A    
C55   H48   S    
C17   H12   S    
O17   Zn1   S    
C16   O15   A    
C49   H30   S    
O1    Zn1   S    
C44   C46   S    
C57   H50   S    
C23   N3    A    
C20   C29   A    
C2    C45   A    
C34   N1    A    
C14   O19   S    
C42   H13   S    
C1    C19   S    
C51   C52   S    
C54   H42   S    
C32   H57   S    
C1    O1    A    
C43   O2    S    
C50   H33   S    
C5    C18   A    
C58   O11   S    
C25   C26   A    
C54   O8    S    
C55   H46   S    
C60   C61   A    
C26   N6    A    
C37   C38   A    
C33   N5    A    
C46   H20   S    
O12   Zn2   S    
C57   H49   S    
C15   O4    S    
C53   H41   S    
C42   H11   S    
C48   H26   S    
C28   O18   A    
C24   C25   A    
C12   C35   A    
C36   H56   S    
C9    C11   A    
O16   Zn2   S    
C20   C33   A    
C50   H31   S    
C40   C41   S    
C60   H4    S    
C40   O19   S    
C58   H54   S    
C48   H25   S    
C48   O4    S    
C28   O17   A    
C21   N6    A    
C56   O10   S    
C1    O12   A    
N1    N2    A    
C43   H14   S    
C41   H8    S    
C38   H2    S    
N5    Zn1   S    
C28   C59   S    
C43   H15   S    
C46   C47   S    
C44   O3    S    
C45   H3    S    
C54   H44   S    
C22   O7    S    
C27   C32   A    
C8    H23   S    
C44   H18   S    
C33   H45   S    
C49   H28   S    
O15   Zn1   S    
C51   O7    S    
C50   H32   S    
C6    C7    A    
C25   C27   A    
C55   O9    S    
C7    H34   S    
C49   O5    S    
C52   H38   S    
C56   C59   A    
C55   H47   S    
N6    Zn2   S    
C12   C39   A    
C44   H17   S    
C16   O16   A    
C6    O3    S    
C21   H58   S    
C4    O14   A    
C46   H19   S    
C11   C13   A    
C24   O6    S    
C38   C39   A    
C52   H37   S    
C42   H10   S    
C35   H1    S    
C22   C24   A    
C50   O6    S    
C4    O13   A    
C26   C31   A    
C40   H7    S    
C2    C23   S    
C58   H53   S    
C14   C15   A    
C57   O10   S    
C20   O5    S    
N3    N4    A    
C21   C22   A    
C41   H9    S    
C39   O9    S    
