data_mof_unit_42479.cif
_audit_creation_date              2012-12-10T19:46:24-0500
_audit_creation_method            fapswitch 2.2
_symmetry_space_group_name_H-M    P1
_symmetry_Int_Tables_number       1
_space_group_crystal_system       triclinic
_cell_length_a                    10.85653
_cell_length_b                    10.864027
_cell_length_c                    10.427361
_cell_angle_alpha                 90.436849
_cell_angle_beta                  90.276429
_cell_angle_gamma                 90.139677
_cell_volume                      1229.80788891

loop_
_atom_site_label
_atom_site_type_symbol
_atom_type_description
_atom_site_fract_x
_atom_site_fract_y
_atom_site_fract_z
_atom_type_partial_charge
C1    C     C_R   0.495709 0.261512 0.499180 0.793670
C2    C     C_R   0.504283 0.738490 0.500821 0.793680
C3    C     C_R   0.872004 0.493931 0.501603 -0.084459
C4    C     C_R   0.127992 0.506016 0.498376 -0.084538
C5    C     C_R   0.939763 0.455079 0.610032 -0.004111
C6    C     C_R   0.060229 0.544855 0.389930 -0.004034
C7    C     C_R   0.268991 0.220556 0.138905 -0.117934
C8    C     C_R   0.731001 0.780289 0.861618 -0.118350
C9    C     C_R   0.309678 0.170880 0.254884 -0.112074
C10   C     C_R   0.690382 0.829782 0.745521 -0.112880
C11   C     C_R   0.426210 0.115541 0.262964 0.127342
C12   C     C_R   0.573555 0.884475 0.737087 0.127646
C13   C     C_R   0.500982 0.109972 0.153526 -0.157872
C14   C     C_R   0.498365 0.889512 0.846251 -0.157296
C15   C     C_R   0.460115 0.160444 0.037950 -0.149277
C16   C     C_R   0.539147 0.839180 0.961929 -0.149280
C17   C     C_R   0.344180 0.215568 0.030595 -0.120384
C18   C     C_R   0.655410 0.784751 0.969662 -0.120304
C19   C     C_R   0.476865 0.932432 0.388273 -0.253926
C20   C     C_R   0.523126 0.067575 0.611722 -0.253854
C21   C     C_R   0.506641 0.872111 0.502305 -0.083373
C22   C     C_R   0.493320 0.127893 0.497698 -0.083393
C23   C     C_R   0.261555 0.503909 0.499439 0.793733
C24   C     C_R   0.738443 0.496071 0.500557 0.794032
C25   C     C_R   0.531969 0.940501 0.615336 -0.000541
C26   C     C_R   0.467942 0.059506 0.384671 -0.000363
C27   C     C_1   0.500016 0.500011 0.071944 0.091432
C28   C     C_1   0.499978 0.499992 0.928056 0.091820
C29   C     C_R   0.230907 0.761284 0.169112 -0.135775
C30   C     C_R   0.769192 0.238825 0.831104 -0.135705
C31   C     C_R   0.179259 0.711237 0.279845 -0.105959
C32   C     C_R   0.821150 0.288572 0.720376 -0.106947
C33   C     C_R   0.117839 0.597332 0.273856 0.133887
C34   C     C_R   0.882097 0.402747 0.726129 0.133852
C35   C     C_R   0.108325 0.534847 0.155825 -0.150527
C36   C     C_R   0.890836 0.465819 0.843899 -0.149445
C37   C     C_R   0.161994 0.584157 0.045896 -0.144979
C38   C     C_R   0.836866 0.416803 0.953815 -0.144982
C39   C     C_R   0.223023 0.697426 0.052474 -0.118961
C40   C     C_R   0.776296 0.303260 0.947483 -0.118798
C41   C     C_R   0.932794 0.537086 0.392707 -0.248333
C42   C     C_R   0.067197 0.462839 0.607268 -0.248419
Cu1   Cu    Cu3+1 0.500000 0.500000 0.625300 0.978345
Cu2   Cu    Cu3+1 0.500000 0.500000 0.374700 0.978170
H1    H     H_    0.590727 0.066838 0.157889 0.126957
H2    H     H_    0.408389 0.932164 0.841605 0.126651
H3    H     H_    0.518014 0.156345 0.953907 0.130320
H4    H     H_    0.480953 0.842896 0.045774 0.130204
H5    H     H_    0.276407 0.849894 0.173411 0.120255
H6    H     H_    0.724006 0.150033 0.826983 0.120354
H7    H     H_    0.186278 0.761355 0.369781 0.104215
H8    H     H_    0.814699 0.238037 0.630628 0.104440
H9    H     H_    0.059821 0.447870 0.149331 0.114976
H10   H     H_    0.938922 0.553045 0.850173 0.114654
H11   H     H_    0.155824 0.534841 0.955514 0.126240
H12   H     H_    0.842409 0.466589 0.043984 0.126120
H13   H     H_    0.880698 0.568692 0.310262 0.154030
H14   H     H_    0.119278 0.431263 0.689735 0.154029
H15   H     H_    0.312572 0.254276 0.940965 0.126514
H16   H     H_    0.686972 0.746192 0.059385 0.126465
N1    N     N_1   0.500010 0.499990 0.186410 -0.139456
N2    N     N_1   0.499990 0.500010 0.813590 -0.139360
O1    O     O_R   0.499990 0.319650 0.605810 -0.585726
O2    O     O_R   0.500010 0.680350 0.394190 -0.585795
O3    O     O_R   0.499990 0.319640 0.394190 -0.565799
O4    O     O_R   0.500010 0.680360 0.605810 -0.565764
O5    O     O_R   0.319640 0.500010 0.605810 -0.589540
O6    O     O_R   0.680360 0.499990 0.394190 -0.589602
O7    O     O_R   0.319650 0.500010 0.394190 -0.562673
O8    O     O_R   0.680350 0.499990 0.605810 -0.562521
H17   H     H_    0.263672 0.735940 0.967076 0.129068
H18   H     H_    0.735372 0.264999 0.032864 0.129257
H19   H     H_    0.456992 0.880244 0.301660 0.153428
H20   H     H_    0.543061 0.119758 0.698329 0.153500
H21   H     H_    0.178865 0.262168 0.132790 0.120847
H22   H     H_    0.821401 0.739272 0.868053 0.120661
H23   H     H_    0.250436 0.174906 0.338085 0.106165
H24   H     H_    0.749943 0.826194 0.662533 0.106353

loop_
_geom_bond_atom_site_label_1
_geom_bond_atom_site_label_2
_ccdc_geom_bond_type
C30   C32   A    
C5    C42   A    
C35   H9    S    
C23   O7    A    
C15   H3    S    
C42   H14   S    
C10   H24   S    
Cu1   O1    S    
C14   H2    S    
C29   H5    S    
Cu2   O2    S    
C19   C21   A    
C20   C25   A    
C8    H22   S    
C7    C9    A    
C23   O5    A    
C19   C26   A    
C32   H8    S    
C27   N1    T    
C7    C17   A    
C6    C41   A    
C1    O3    A    
C31   C33   A    
C30   H6    S    
C1    C22   S    
C16   H4    S    
Cu2   O3    S    
C1    O1    A    
C2    O2    A    
C24   O8    A    
C19   H19   S    
C4    C6    A    
C4    C23   S    
C7    H21   S    
C11   C26   S    
C3    C5    A    
C8    C18   A    
C32   C34   A    
Cu1   Cu2   S    
C30   C40   A    
C29   C31   A    
C5    C34   S    
C29   C39   A    
C2    C21   S    
C20   H20   S    
Cu2   O7    S    
C9    H23   S    
C9    C11   A    
C10   C12   A    
C17   H15   S    
C16   C18   A    
C3    C24   S    
C20   C22   A    
Cu1   O8    S    
C13   C15   A    
C14   C16   A    
Cu2   O6    S    
C13   H1    S    
C18   H16   S    
C15   C17   A    
C21   C25   A    
C3    C41   A    
C40   H18   S    
C35   C37   A    
C8    C10   A    
C31   H7    S    
C2    O4    A    
Cu2   N1    S    
C6    C33   S    
C12   C25   S    
C36   C38   A    
C12   C14   A    
C41   H13   S    
C37   C39   A    
C38   C40   A    
C11   C13   A    
C4    C42   A    
Cu1   O4    S    
C33   C35   A    
C34   C36   A    
C36   H10   S    
C24   O6    A    
C37   H11   S    
C38   H12   S    
Cu1   O5    S    
C22   C26   A    
C27   C28   S    
C39   H17   S    
Cu1   N2    S    
C28   N2    T    
