data_mof_unit_17216.cif
_audit_creation_date              2012-12-11T16:28:13-0500
_audit_creation_method            fapswitch 2.2
_symmetry_space_group_name_H-M    P1
_symmetry_Int_Tables_number       1
_space_group_crystal_system       triclinic
_cell_length_a                    30.159143
_cell_length_b                    22.519383
_cell_length_c                    18.030262
_cell_angle_alpha                 89.956492
_cell_angle_beta                  122.700189
_cell_angle_gamma                 90.100747
_cell_volume                      10304.7059594

loop_
_atom_site_label
_atom_site_type_symbol
_atom_type_description
_atom_site_fract_x
_atom_site_fract_y
_atom_site_fract_z
_atom_type_partial_charge
C1    C     C_R   0.535733 0.603163 0.717199 0.451628
C2    C     C_R   0.456843 0.419308 0.258223 0.439262
C3    C     C_R   0.464330 0.604076 0.283715 0.470908
C4    C     C_R   0.540389 0.405474 0.730631 0.409489
C5    C     C_R   0.039432 0.097639 0.726932 0.413770
C6    C     C_R   0.956417 0.918570 0.258058 0.421978
C7    C     C_R   0.958986 0.087979 0.264002 0.460671
C8    C     C_R   0.043234 0.918997 0.741764 0.413896
C9    C     C_R   0.316823 0.637577 0.582115 -0.136002
C10   C     C_R   0.698850 0.399966 0.434015 -0.141110
C11   C     C_R   0.684264 0.634375 0.417581 -0.140527
C12   C     C_R   0.368633 0.280816 0.579089 -0.142818
C13   C     C_R   0.889152 0.237476 0.569236 -0.138831
C14   C     C_R   0.129920 0.780463 0.420187 -0.148371
C15   C     C_R   0.182820 0.139276 0.418218 -0.136131
C16   C     C_R   0.869814 0.780293 0.580073 -0.132089
C17   C     C_R   0.274141 0.659352 0.583003 -0.132171
C18   C     C_R   0.743252 0.380159 0.436090 -0.155293
C19   C     C_R   0.727038 0.656413 0.417016 -0.131315
C20   C     C_R   0.344754 0.228070 0.578474 -0.114859
C21   C     C_R   0.865401 0.290330 0.569619 -0.153245
C22   C     C_R   0.154728 0.728479 0.421074 -0.119723
C23   C     C_R   0.225646 0.159921 0.416760 -0.130929
C24   C     C_R   0.845330 0.727934 0.579364 -0.112456
C25   C     C_R   0.222939 0.653362 0.508304 0.083605
C26   C     C_R   0.780843 0.345009 0.506630 0.076742
C27   C     C_R   0.778077 0.651506 0.492413 0.094499
C28   C     C_R   0.317973 0.193567 0.501593 0.088865
C29   C     C_R   0.815991 0.306066 0.496096 0.101613
C30   C     C_R   0.182029 0.694146 0.498069 0.089286
C31   C     C_R   0.276880 0.152838 0.490880 0.092200
C32   C     C_R   0.818692 0.693087 0.502760 0.088172
C33   C     C_R   0.403041 0.695827 0.214242 0.158904
C34   C     C_R   0.605468 0.320934 0.815241 0.165760
C35   C     C_R   0.595862 0.695685 0.786509 0.153125
C36   C     C_R   0.376282 0.376136 0.119024 0.153650
C37   C     C_R   0.883175 0.142207 0.135098 0.163103
C38   C     C_R   0.122831 0.873585 0.879215 0.155782
C39   C     C_R   0.101724 0.187038 0.803447 0.158278
C40   C     C_R   0.875009 0.875802 0.118871 0.151838
C41   C     C_R   0.420293 0.789300 0.166765 -0.070409
C42   C     C_R   0.588099 0.222398 0.848217 -0.076099
C43   C     C_R   0.578965 0.783801 0.845198 -0.067256
C44   C     C_R   0.376617 0.319895 0.004707 -0.059667
C45   C     C_R   0.889138 0.214641 0.041687 -0.059165
C46   C     C_R   0.120824 0.813810 0.989181 -0.078215
C47   C     C_R   0.083507 0.277513 0.855709 -0.074223
C48   C     C_R   0.873719 0.821945 0.001401 -0.058140
C49   C     C_R   0.437864 0.734331 0.208989 -0.141234
C50   C     C_R   0.570370 0.279377 0.813843 -0.156121
C51   C     C_R   0.561610 0.730428 0.798471 -0.139646
C52   C     C_R   0.403577 0.347001 0.086854 -0.120968
C53   C     C_R   0.913000 0.180757 0.117794 -0.125080
C54   C     C_R   0.094760 0.842166 0.908059 -0.121254
C55   C     C_R   0.067269 0.222134 0.814418 -0.163102
C56   C     C_R   0.901413 0.846485 0.085272 -0.120612
C57   C     C_R   0.351906 0.715176 0.182170 -0.194384
C58   C     C_R   0.657683 0.305378 0.852115 -0.203526
C59   C     C_R   0.645255 0.718820 0.813284 -0.191992
C60   C     C_R   0.321256 0.377700 0.067202 -0.179328
C61   C     C_R   0.829067 0.137635 0.075130 -0.179407
C62   C     C_R   0.177780 0.876098 0.933147 -0.183936
C63   C     C_R   0.151076 0.209849 0.829823 -0.191098
C64   C     C_R   0.819974 0.878631 0.067592 -0.182830
C65   C     C_R   0.335171 0.772264 0.147819 0.067818
C66   C     C_R   0.674304 0.246906 0.875496 0.072551
C67   C     C_R   0.661576 0.774763 0.852965 0.074977
C68   C     C_R   0.292922 0.346502 0.987029 0.075526
C69   C     C_R   0.803393 0.174837 0.001043 0.075330
C70   C     C_R   0.205393 0.844467 0.013122 0.084275
C71   C     C_R   0.166036 0.267476 0.863072 0.072008
C72   C     C_R   0.790692 0.849357 0.985803 0.077739
C73   C     C_R   0.368172 0.808343 0.133107 -0.055784
C74   C     C_R   0.640332 0.205116 0.879043 -0.050320
C75   C     C_R   0.630250 0.805132 0.877278 -0.060869
C76   C     C_R   0.321329 0.317028 0.955262 -0.071570
C77   C     C_R   0.834105 0.214469 0.984440 -0.064726
C78   C     C_R   0.176126 0.812557 0.041363 -0.061582
C79   C     C_R   0.133672 0.300404 0.882751 -0.053502
C80   C     C_R   0.818367 0.821367 0.951497 -0.071713
C81   C     C_R   0.284264 0.791603 0.121453 0.019661
C82   C     C_R   0.725438 0.230707 0.899920 0.018575
C83   C     C_R   0.711110 0.797573 0.876513 0.013739
C84   C     C_R   0.237787 0.337436 0.944092 0.021472
C85   C     C_R   0.747831 0.179461 0.950792 0.023156
C86   C     C_R   0.261008 0.838074 0.060055 0.018835
C87   C     C_R   0.214879 0.290499 0.883503 0.012708
C88   C     C_R   0.735318 0.841130 0.942744 0.017478
C89   C     C_R   0.645030 0.579672 0.571730 -0.110222
C90   C     C_R   0.373106 0.391882 0.426671 -0.103883
C91   C     C_R   0.355248 0.580351 0.428289 -0.112626
C92   C     C_R   0.643742 0.417062 0.573161 -0.129970
C93   C     C_R   0.144474 0.081442 0.572011 -0.107128
C94   C     C_R   0.873937 0.891170 0.427295 -0.094780
C95   C     C_R   0.872197 0.106869 0.425370 -0.093278
C96   C     C_R   0.126079 0.891334 0.572895 -0.110181
C97   C     C_R   0.754894 0.264957 0.875808 -0.341236
C98   C     C_R   0.256119 0.765372 0.154905 -0.311025
C99   C     C_R   0.205396 0.370922 0.962876 -0.330784
C100  C     C_R   0.737216 0.777127 0.836111 -0.325614
C101  C     C_R   0.293856 0.874321 0.045356 -0.332387
C102  C     C_R   0.714132 0.136918 0.953207 -0.328522
C103  C     C_R   0.704045 0.871374 0.967306 -0.307838
C104  C     C_R   0.241565 0.267266 0.845589 -0.328290
C105  C     C_R   0.808693 0.255956 0.915212 0.549357
C106  C     C_R   0.202910 0.777156 0.117943 0.456209
C107  C     C_R   0.153043 0.354330 0.929873 0.528693
C108  C     C_R   0.790045 0.790106 0.871084 0.550845
C109  C     C_R   0.347527 0.861407 0.084163 0.528962
C110  C     C_R   0.660140 0.148058 0.913759 0.511388
C111  C     C_R   0.651701 0.854690 0.934131 0.526700
C112  C     C_R   0.293857 0.281976 0.878351 0.553336
C113  C     C_R   0.596443 0.578908 0.426044 -0.080141
C114  C     C_R   0.422346 0.391455 0.573458 -0.110534
C115  C     C_R   0.404016 0.580088 0.574081 -0.080340
C116  C     C_R   0.595515 0.416515 0.426726 -0.093472
C117  C     C_R   0.095596 0.081740 0.426087 -0.082809
C118  C     C_R   0.924321 0.890471 0.574289 -0.076558
C119  C     C_R   0.921582 0.109120 0.571886 -0.092308
C120  C     C_R   0.075603 0.890383 0.425956 -0.090016
C121  C     C_R   0.392790 0.607363 0.291483 -0.190032
C122  C     C_R   0.611704 0.400072 0.722397 -0.184639
C123  C     C_R   0.607092 0.607562 0.708754 -0.183076
C124  C     C_R   0.383249 0.415468 0.258817 -0.209180
C125  C     C_R   0.884602 0.089207 0.262352 -0.215453
C126  C     C_R   0.116699 0.915149 0.741018 -0.208698
C127  C     C_R   0.110136 0.103266 0.717040 -0.184085
C128  C     C_R   0.883091 0.915279 0.259254 -0.217152
C129  C     C_R   0.580347 0.637337 0.741129 -0.053881
C130  C     C_R   0.404821 0.400250 0.209686 -0.052136
C131  C     C_R   0.419394 0.637563 0.259408 -0.061054
C132  C     C_R   0.587601 0.375564 0.762857 -0.037530
C133  C     C_R   0.085397 0.130049 0.754998 -0.046453
C134  C     C_R   0.904300 0.899565 0.209863 -0.053959
C135  C     C_R   0.908234 0.109721 0.218769 -0.067210
C136  C     C_R   0.094997 0.899462 0.789773 -0.053998
C137  C     C_R   0.645765 0.592704 0.497598 0.011783
C138  C     C_R   0.385679 0.359029 0.500635 0.017130
C139  C     C_R   0.354853 0.594305 0.502461 0.011819
C140  C     C_R   0.644301 0.401340 0.500022 0.018007
C141  C     C_R   0.144689 0.096173 0.497880 0.008329
C142  C     C_R   0.887510 0.857905 0.501625 0.004520
C143  C     C_R   0.884464 0.140750 0.497718 0.003438
C144  C     C_R   0.112443 0.857995 0.498688 0.007194
C145  C     C_R   0.214691 0.619754 0.436334 -0.123833
C146  C     C_R   0.775950 0.334711 0.578618 -0.104273
C147  C     C_R   0.786159 0.618272 0.564646 -0.137353
C148  C     C_R   0.320651 0.209200 0.428723 -0.153301
C149  C     C_R   0.793984 0.272335 0.418708 -0.143182
C150  C     C_R   0.179263 0.709304 0.570994 -0.154968
C151  C     C_R   0.284920 0.119048 0.562588 -0.133630
C152  C     C_R   0.821736 0.708311 0.430080 -0.159427
C153  C     C_R   0.257560 0.598166 0.435256 -0.092756
C154  C     C_R   0.731759 0.354261 0.576369 -0.114640
C155  C     C_R   0.743179 0.596366 0.565359 -0.103096
C156  C     C_R   0.344504 0.262311 0.429234 -0.140180
C157  C     C_R   0.817561 0.219700 0.418309 -0.144759
C158  C     C_R   0.154570 0.761698 0.570257 -0.145873
C159  C     C_R   0.241900 0.098493 0.564182 -0.096529
C160  C     C_R   0.846053 0.761098 0.430609 -0.140260
C161  C     C_R   0.309014 0.609345 0.506691 0.109781
C162  C     C_R   0.692052 0.385047 0.502800 0.098053
C163  C     C_R   0.691806 0.606931 0.493364 0.112497
C164  C     C_R   0.366389 0.299771 0.503018 0.118624
C165  C     C_R   0.863815 0.200214 0.495066 0.136863
C166  C     C_R   0.131902 0.798932 0.496187 0.123407
C167  C     C_R   0.190533 0.110924 0.493517 0.117826
C168  C     C_R   0.868137 0.798685 0.504269 0.118161
H1    H     H_    0.685278 0.339568 0.860726 0.133511
H2    H     H_    0.323935 0.684333 0.180233 0.129864
H3    H     H_    0.300998 0.399194 0.093773 0.120563
H4    H     H_    0.672653 0.691532 0.807924 0.126029
H5    H     H_    0.198562 0.899190 0.908609 0.121648
H6    H     H_    0.807123 0.108454 0.091286 0.121127
H7    H     H_    0.800523 0.900280 0.095334 0.118913
H8    H     H_    0.178964 0.181534 0.827238 0.128929
H9    H     H_    0.529155 0.290121 0.784035 0.157924
H10   H     H_    0.478640 0.722547 0.237367 0.176682
H11   H     H_    0.445895 0.342243 0.126632 0.175844
H12   H     H_    0.521501 0.716833 0.772527 0.176704
H13   H     H_    0.052526 0.836768 0.866318 0.169684
H14   H     H_    0.954708 0.187011 0.164983 0.164949
H15   H     H_    0.943525 0.839965 0.124732 0.177434
H16   H     H_    0.027664 0.207437 0.790806 0.163399
H17   H     H_    0.447970 0.816240 0.161056 0.202589
H18   H     H_    0.560335 0.192218 0.848556 0.199355
H19   H     H_    0.551785 0.807713 0.855668 0.199048
H20   H     H_    0.399828 0.297214 0.984271 0.206172
H21   H     H_    0.914048 0.244219 0.032585 0.203893
H22   H     H_    0.097029 0.789343 0.006893 0.212809
H23   H     H_    0.056292 0.301797 0.865688 0.199553
H24   H     H_    0.896305 0.799577 0.979458 0.207082
H25   H     H_    0.736047 0.298953 0.825815 0.179612
H26   H     H_    0.275728 0.735950 0.211121 0.183875
H27   H     H_    0.219863 0.411224 0.001041 0.189387
H28   H     H_    0.716400 0.750830 0.776572 0.187711
H29   H     H_    0.278661 0.914096 0.006151 0.189733
H30   H     H_    0.729032 0.093958 0.982822 0.186939
H31   H     H_    0.719361 0.908933 0.011199 0.190586
H32   H     H_    0.221566 0.237754 0.789502 0.185632
H33   H     H_    0.678882 0.576238 0.638419 0.106034
H34   H     H_    0.345314 0.380035 0.358801 0.105407
H35   H     H_    0.321300 0.577027 0.361667 0.110318
H36   H     H_    0.677685 0.420949 0.639772 0.113561
H37   H     H_    0.178413 0.078306 0.638649 0.108275
H38   H     H_    0.845990 0.879055 0.359606 0.108139
H39   H     H_    0.844458 0.117456 0.357244 0.100763
H40   H     H_    0.154050 0.879417 0.640645 0.106517
H41   H     H_    0.588357 0.570482 0.361103 0.180088
H42   H     H_    0.439971 0.378015 0.640434 0.154625
H43   H     H_    0.412246 0.572748 0.639320 0.182440
H44   H     H_    0.585922 0.418068 0.359942 0.167935
H45   H     H_    0.087356 0.075938 0.360736 0.185039
H46   H     H_    0.944166 0.876486 0.641856 0.141942
H47   H     H_    0.937522 0.122774 0.638373 0.159203
H48   H     H_    0.055676 0.876055 0.358622 0.148179
H49   H     H_    0.356650 0.619734 0.286072 0.133008
H50   H     H_    0.649536 0.389202 0.732862 0.127519
H51   H     H_    0.643297 0.620030 0.714376 0.131164
H52   H     H_    0.342047 0.415438 0.236445 0.129768
H53   H     H_    0.843105 0.090408 0.237987 0.131756
H54   H     H_    0.157939 0.914799 0.763544 0.129767
H55   H     H_    0.147184 0.114703 0.724949 0.130138
H56   H     H_    0.841976 0.915475 0.237393 0.132860
H57   H     H_    0.175407 0.613935 0.378478 0.143817
H58   H     H_    0.803656 0.306709 0.633027 0.160771
H59   H     H_    0.825333 0.613146 0.622997 0.129675
H60   H     H_    0.300781 0.182702 0.369142 0.132276
H61   H     H_    0.755655 0.283038 0.361321 0.132244
H62   H     H_    0.199462 0.682926 0.630651 0.131537
H63   H     H_    0.324231 0.112520 0.620028 0.133042
H64   H     H_    0.802076 0.681585 0.370726 0.129058
H65   H     H_    0.250325 0.574781 0.377330 0.130929
H66   H     H_    0.727192 0.342177 0.629994 0.158807
H67   H     H_    0.750226 0.573469 0.623537 0.124022
H68   H     H_    0.343955 0.274998 0.370830 0.121882
H69   H     H_    0.797207 0.192623 0.359544 0.122274
H70   H     H_    0.155087 0.774094 0.628712 0.120689
H71   H     H_    0.248997 0.074881 0.621886 0.125706
H72   H     H_    0.845782 0.773447 0.372333 0.120141
H73   H     H_    0.356089 0.646594 0.638251 0.147671
H74   H     H_    0.669427 0.425393 0.377827 0.135845
H75   H     H_    0.645086 0.642845 0.360930 0.152533
H76   H     H_    0.385415 0.308439 0.637265 0.156305
H77   H     H_    0.925999 0.224789 0.628201 0.117539
H78   H     H_    0.112643 0.808075 0.361923 0.150450
H79   H     H_    0.143621 0.149185 0.362628 0.142006
H80   H     H_    0.886662 0.808186 0.638020 0.156108
H81   H     H_    0.883337 0.316298 0.629664 0.136363
H82   H     H_    0.156780 0.718510 0.364242 0.180170
H83   H     H_    0.218114 0.186541 0.361054 0.133680
H84   H     H_    0.843049 0.717959 0.635992 0.165549
H85   H     H_    0.281872 0.685775 0.638962 0.133596
H86   H     H_    0.746518 0.388789 0.380110 0.131854
H87   H     H_    0.719392 0.682401 0.360722 0.136429
H88   H     H_    0.342759 0.217675 0.635274 0.170075
N1    N     N_R   0.532910 0.558440 0.665240 -0.076844
N2    N     N_R   0.467090 0.441560 0.334760 -0.081546
N3    N     N_R   0.467090 0.558440 0.334760 -0.077396
N4    N     N_R   0.532910 0.441560 0.665240 -0.080597
N5    N     N_R   0.032910 0.058440 0.665240 -0.078496
N6    N     N_R   0.967090 0.941560 0.334760 -0.085348
N7    N     N_R   0.967090 0.058440 0.334760 -0.083941
N8    N     N_R   0.032910 0.941560 0.665240 -0.085784
N9    N     N_R   0.597030 0.558910 0.545540 -0.049430
N10   N     N_R   0.402970 0.441090 0.454460 -0.045292
N11   N     N_R   0.402970 0.558910 0.454460 -0.049349
N12   N     N_R   0.597030 0.441090 0.545540 -0.044160
N13   N     N_R   0.097030 0.058910 0.545540 -0.050151
N14   N     N_R   0.902970 0.941090 0.454460 -0.046648
N15   N     N_R   0.902970 0.058910 0.454460 -0.045690
N16   N     N_R   0.097030 0.941090 0.545540 -0.046436
N17   N     N_R   0.566200 0.559270 0.454460 -0.051642
N18   N     N_R   0.433800 0.440730 0.545540 -0.042852
N19   N     N_R   0.433800 0.559270 0.545540 -0.053306
N20   N     N_R   0.566200 0.440730 0.454460 -0.045999
N21   N     N_R   0.066200 0.059270 0.454460 -0.048180
N22   N     N_R   0.933800 0.940730 0.545540 -0.037748
N23   N     N_R   0.933800 0.059270 0.545540 -0.039601
N24   N     N_R   0.066200 0.940730 0.454460 -0.038417
N25   N     N_R   0.421050 0.559750 0.334770 -0.062924
N26   N     N_R   0.578950 0.440250 0.665230 -0.061049
N27   N     N_R   0.578950 0.559750 0.665230 -0.062424
N28   N     N_R   0.421050 0.440250 0.334770 -0.062582
N29   N     N_R   0.921050 0.059750 0.334770 -0.063900
N30   N     N_R   0.078950 0.940250 0.665230 -0.063800
N31   N     N_R   0.078950 0.059750 0.665230 -0.063328
N32   N     N_R   0.921050 0.940250 0.334770 -0.064119
Ni1   Ni    Ni4+2 0.483090 0.500000 0.604440 0.300017
Ni2   Ni    Ni4+2 0.516910 0.500000 0.395560 0.286701
Ni3   Ni    Ni4+2 0.983090 0.000000 0.604440 0.321262
Ni4   Ni    Ni4+2 0.016910 0.000000 0.395560 0.297405
Ni5   Ni    Ni4+2 0.586780 0.500000 0.604440 0.214623
Ni6   Ni    Ni4+2 0.413220 0.500000 0.395560 0.214176
Ni7   Ni    Ni4+2 0.086780 0.000000 0.604440 0.211703
Ni8   Ni    Ni4+2 0.913220 0.000000 0.395560 0.219869
Cl1   Cl    Cl    0.503242 0.602389 0.773800 -0.635220
Cl2   Cl    Cl    0.493321 0.440926 0.212774 -0.636425
Cl3   Cl    Cl    0.498825 0.607401 0.230650 -0.630881
Cl4   Cl    Cl    0.511193 0.416384 0.791758 -0.596788
Cl5   Cl    Cl    0.011161 0.088911 0.789960 -0.569466
Cl6   Cl    Cl    0.994526 0.935168 0.213528 -0.598463
Cl7   Cl    Cl    0.996818 0.078774 0.217473 -0.610577
Cl8   Cl    Cl    0.006072 0.938342 0.787025 -0.575649
S1    S     S_3+6 0.843203 0.301520 0.882297 -0.050104
O1    O     O_2   0.805391 0.334265 0.798771 -0.330412
O2    O     O_2   0.876068 0.345777 0.953940 -0.281354
O3    O     O_3   0.882756 0.258900 0.865548 -0.522958
H89   H     H_    0.900408 0.286909 0.847119 0.378195
S2    S     S_3+6 0.170893 0.743082 0.165678 -0.039532
O4    O     O_2   0.136907 0.693114 0.107238 -0.235499
O5    O     O_2   0.210339 0.718550 0.255474 -0.312896
O6    O     O_3   0.132584 0.792873 0.174772 -0.507586
H90   H     H_    0.157052 0.824656 0.212993 0.347109
S3    S     S_3+6 0.114545 0.399883 0.954158 -0.030243
O7    O     O_2   0.144484 0.454685 0.003574 -0.262090
O8    O     O_2   0.065093 0.417862 0.869486 -0.288081
O9    O     O_3   0.098431 0.361100 0.016069 -0.532731
H91   H     H_    0.073927 0.387127 0.021618 0.388950
S4    S     S_3+6 0.819772 0.762613 0.815678 -0.052971
O10   O     O_2   0.778556 0.741736 0.724451 -0.304751
O11   O     O_2   0.852015 0.810931 0.809275 -0.273744
O12   O     O_3   0.859267 0.705350 0.873285 -0.540068
H92   H     H_    0.875105 0.692811 0.839907 0.375902
S5    S     S_3+6 0.386371 0.910422 0.064887 -0.025810
O13   O     O_2   0.354695 0.963207 0.011511 -0.263526
O14   O     O_2   0.432513 0.931468 0.151815 -0.276445
O15   O     O_3   0.408537 0.873879 0.009858 -0.531245
H93   H     H_    0.432831 0.902042 0.006975 0.389092
S6    S     S_3+6 0.619569 0.090287 0.911670 -0.001454
O16   O     O_2   0.648956 0.032426 0.937830 -0.229271
O17   O     O_2   0.603222 0.104897 0.974888 -0.261259
O18   O     O_3   0.565631 0.083720 0.809344 -0.536808
H94   H     H_    0.544157 0.052397 0.814005 0.398956
S7    S     S_3+6 0.616615 0.892441 0.973298 -0.000459
O19   O     O_2   0.651524 0.936293 0.044127 -0.227987
O20   O     O_2   0.570739 0.924609 0.897784 -0.263659
O21   O     O_3   0.594142 0.842784 0.015194 -0.537416
H95   H     H_    0.571612 0.866016 0.028984 0.387575
S8    S     S_3+6 0.324234 0.251568 0.825665 -0.053658
O22   O     O_2   0.283607 0.225912 0.737343 -0.311252
O23   O     O_2   0.354462 0.299373 0.813114 -0.284078
O24   O     O_3   0.365959 0.197545 0.889533 -0.525998
H96   H     H_    0.382543 0.183736 0.857896 0.379966

loop_
_geom_bond_atom_site_label_1
_geom_bond_atom_site_label_2
_ccdc_geom_bond_type
C124  H52   S    
N14   Ni8   S    
C119  C143  A    
C120  C144  A    
C128  H56   S    
C8    Cl8   S    
N21   Ni4   S    
O18   H94   S    
N22   Ni3   S    
N11   N19   A    
C3    C131  A    
C121  C131  A    
C1    C129  A    
C119  N23   A    
C120  N24   A    
C99   H27   S    
C62   C70   A    
C97   H25   S    
C116  N20   A    
N4    Ni1   S    
C37   C135  S    
C38   C136  S    
C8    N8    A    
C147  C155  A    
C81   C86   A    
C97   C105  A    
C125  C135  A    
N15   N23   A    
C83   C88   A    
C126  C136  A    
C4    N4    A    
C5    N5    A    
C91   N11   A    
C41   C49   A    
C116  C140  A    
C100  H28   S    
C43   C75   A    
C79   C107  A    
C125  N29   A    
C34   C50   A    
S6    O16   D    
O12   H92   S    
S4    O12   S    
C127  N31   A    
N3    N25   A    
S8    O22   D    
C128  N32   A    
S7    O20   D    
C20   C28   A    
C21   C29   A    
C153  C161  A    
C23   C31   A    
N11   Ni6   S    
C24   C32   A    
C36   C130  S    
C66   C82   A    
C146  C154  A    
C43   H19   S    
C12   C20   A    
C13   C21   A    
C117  H45   S    
C3    Cl3   S    
C158  H70   S    
C19   H87   S    
C63   C71   A    
C83   C100  A    
C35   C51   A    
C113  C137  A    
C25   C145  A    
C113  N17   A    
C137  C163  S    
C150  H62   S    
C74   C110  A    
N26   Ni5   S    
C82   C85   A    
C98   C106  A    
C78   C106  A    
N8    N30   A    
C17   C25   A    
C10   C18   A    
C3    N3    A    
C90   H34   S    
N31   Ni7   S    
N32   Ni8   S    
N13   Ni7   S    
C96   H40   S    
N16   Ni7   S    
C142  C168  S    
S7    O19   D    
C92   N12   A    
C107  S3    S    
C93   N13   A    
C34   C58   A    
C4    Cl4   S    
C33   C49   A    
C151  C159  A    
N5    N31   A    
C7    Cl7   S    
N6    N32   A    
C67   C83   A    
N7    N29   A    
C11   H75   S    
C69   C77   A    
C148  H60   S    
S8    O24   S    
C9    H73   S    
C71   C79   A    
N1    Ni1   S    
C4    C132  A    
C18   H86   S    
C5    C133  A    
C103  C111  A    
C22   H82   S    
C101  H29   S    
C140  C162  S    
C66   C74   A    
S5    O14   D    
C59   C67   A    
C151  H63   S    
C159  C167  A    
C12   H76   S    
C55   H16   S    
C7    N7    A    
C14   C166  A    
C36   C52   A    
C37   C53   A    
C44   C52   A    
C160  C168  A    
C45   C53   A    
N16   N24   A    
C104  H32   S    
C15   C167  A    
C121  N25   A    
N9    Ni5   S    
C90   C138  A    
C124  N28   A    
C100  C108  A    
C94   C142  A    
C58   H1    S    
C157  C165  A    
C104  C112  A    
C147  H59   S    
C155  C163  A    
C62   H5    S    
C40   C134  S    
S4    O11   D    
C128  C134  A    
C31   C151  A    
C32   C152  A    
N28   Ni6   S    
N12   N20   A    
C11   C163  A    
C54   H13   S    
N13   N21   A    
C6    N6    A    
C9    C161  A    
C42   C50   A    
N9    N17   A    
C126  N30   A    
C67   C75   A    
C69   C85   A    
C2    Cl2   S    
C57   H2    S    
C9    C17   A    
C123  H51   S    
S3    O9    S    
C22   C30   A    
C60   H3    S    
C121  H49   S    
C154  C162  A    
C61   H6    S    
O15   H93   S    
C125  H53   S    
C68   C76   A    
C80   C108  A    
C115  H43   S    
C149  H61   S    
C14   C22   A    
C52   H11   S    
C113  H41   S    
C72   C80   A    
C53   H14   S    
C5    Cl5   S    
N27   Ni5   S    
C89   N9    A    
C114  C138  A    
C41   C73   A    
C10   C162  A    
N1    N27   A    
N2    N28   A    
C38   C62   A    
C85   C102  A    
C152  H64   S    
C13   H77   S    
C95   C143  A    
C8    C136  A    
C18   C26   A    
C63   H8    S    
C11   C19   A    
S6    O17   D    
C1    Cl1   S    
S8    O23   D    
C30   C150  A    
C81   C98   A    
C101  C109  A    
C94   N14   A    
C98   H26   S    
C35   C59   A    
C143  C165  S    
C23   H83   S    
C6    Cl6   S    
C39   C55   A    
C40   C56   A    
S6    O18   S    
C94   H38   S    
C122  H50   S    
C109  S5    S    
C92   H36   S    
N2    Ni2   S    
C16   H80   S    
S3    O7    D    
C112  S8    S    
C20   H88   S    
C1    N1    A    
C95   H39   S    
C28   C148  A    
C141  C167  S    
C68   C84   A    
C111  S7    S    
C24   H84   S    
C50   H9    S    
C46   C78   A    
C106  S2    S    
C146  H58   S    
N3    Ni2   S    
C36   C60   A    
C144  C166  S    
N8    Ni3   S    
C117  C141  A    
C12   C164  A    
C65   C81   A    
C38   C54   A    
C139  C161  S    
C46   C54   A    
C153  H65   S    
C118  H46   S    
C122  N26   A    
C91   C139  A    
C157  H69   S    
C15   H79   S    
C89   C137  A    
C82   C97   A    
C102  C110  A    
C96   N16   A    
N17   Ni2   S    
C59   H4    S    
C92   C140  A    
C93   C141  A    
C114  N18   A    
C118  N22   A    
C49   H10   S    
C39   C133  S    
C25   C30   S    
S2    O4    D    
C150  C158  A    
C27   C32   S    
C84   C99   A    
C28   C31   S    
C127  C133  A    
C57   C65   A    
S7    O21   S    
C95   N15   A    
C56   H15   S    
C99   C107  A    
C75   C111  A    
N10   Ni6   S    
N14   N22   A    
C77   C105  A    
C116  H44   S    
C43   C51   A    
O6    H90   S    
C145  H57   S    
N10   N18   A    
N5    Ni3   S    
N29   Ni8   S    
C2    C130  A    
N6    Ni4   S    
N30   Ni7   S    
C73   C109  A    
C47   H23   S    
S5    O13   D    
C48   H24   S    
C87   C104  A    
C60   C68   A    
S1    O1    D    
C159  H71   S    
C148  C156  A    
C149  C157  A    
C91   H35   S    
S2    O6    S    
C89   H33   S    
O24   H96   S    
C152  C160  A    
C119  H47   S    
C70   C78   A    
N7    Ni4   S    
C10   H74   S    
C84   C87   A    
C47   C79   A    
C110  S6    S    
C93   H37   S    
C114  H42   S    
C17   H85   S    
N24   Ni4   S    
C90   N10   A    
C156  H68   S    
C102  H30   S    
C21   H81   S    
C96   C144  A    
C65   C73   A    
C26   C146  A    
N12   Ni5   S    
C117  N21   A    
C13   C165  A    
C58   C66   A    
C19   C27   A    
C35   C129  S    
C127  H55   S    
N20   Ni2   S    
N4    N26   A    
C33   C131  S    
C15   C23   A    
C34   C132  S    
C16   C24   A    
C123  C129  A    
C154  H66   S    
C46   H22   S    
C122  C132  A    
C72   C88   A    
S3    O8    D    
C124  C130  A    
N19   Ni1   S    
S1    O2    D    
S5    O15   S    
C7    C135  A    
O9    H91   S    
N25   Ni6   S    
C155  H67   S    
C76   C112  A    
S1    O3    S    
C41   H17   S    
C103  H31   S    
C64   H7    S    
C44   C76   A    
C42   C74   A    
C44   H20   S    
C45   H21   S    
C2    N2    A    
N23   Ni3   S    
C71   C87   A    
C51   H12   S    
C70   C86   A    
S2    O5    D    
C88   C103  A    
O3    H89   S    
C47   C55   A    
C61   C69   A    
C48   C56   A    
C108  S4    S    
C33   C57   A    
C160  H72   S    
C115  C139  A    
C118  C142  A    
C37   C61   A    
C126  H54   S    
C120  H48   S    
C39   C63   A    
C40   C64   A    
S4    O10   D    
C48   C80   A    
C145  C153  A    
C6    C134  A    
C123  N27   A    
C42   H18   S    
C16   C168  A    
C64   C72   A    
N18   Ni1   S    
N15   Ni8   S    
C29   C149  A    
C158  C166  A    
C115  N19   A    
C156  C164  A    
C26   C29   S    
C27   C147  A    
O21   H95   S    
C138  C164  S    
C45   C77   A    
C86   C101  A    
C105  S1    S    
C14   H78   S    
