data_mof_unit_5459.cif
_audit_creation_date              2012-12-11T14:42:26-0500
_audit_creation_method            fapswitch 2.2
_symmetry_space_group_name_H-M    P1
_symmetry_Int_Tables_number       1
_space_group_crystal_system       triclinic
_cell_length_a                    18.979171
_cell_length_b                    10.964697
_cell_length_c                    18.799072
_cell_angle_alpha                 90.319582
_cell_angle_beta                  90.262894
_cell_angle_gamma                 89.930416
_cell_volume                      3911.99823737

loop_
_atom_site_label
_atom_site_type_symbol
_atom_type_description
_atom_site_fract_x
_atom_site_fract_y
_atom_site_fract_z
_atom_type_partial_charge
C1    C     C_R   0.727413 0.955857 0.853375 0.571467
C2    C     C_R   0.272395 0.955193 0.146833 0.560208
C3    C     C_R   0.227413 0.455857 0.853375 0.571470
C4    C     C_R   0.772395 0.455193 0.146833 0.560210
C5    C     C_R   0.698486 0.476943 0.038955 -0.137244
C6    C     C_R   0.301545 0.476283 0.961581 -0.138210
C7    C     C_R   0.198486 0.976942 0.038956 -0.137243
C8    C     C_R   0.801545 0.976284 0.961581 -0.138211
C9    C     C_R   0.752664 0.416654 0.075775 -0.002303
C10   C     C_R   0.246384 0.418462 0.924745 -0.001347
C11   C     C_R   0.252664 0.916654 0.075775 -0.002303
C12   C     C_R   0.746385 0.918461 0.924745 -0.001348
C13   C     C_R   0.799130 0.341403 0.039520 -0.114275
C14   C     C_R   0.198597 0.346464 0.961136 -0.114933
C15   C     C_R   0.299129 0.841402 0.039521 -0.114276
C16   C     C_R   0.698598 0.846462 0.961136 -0.114931
C17   C     C_R   0.797609 0.336627 0.966932 -0.123115
C18   C     C_R   0.200562 0.341531 0.033702 -0.127623
C19   C     C_R   0.297609 0.836625 0.966932 -0.123112
C20   C     C_R   0.700563 0.841529 0.033701 -0.127626
C21   C     C_R   0.745240 0.398872 0.928168 0.008304
C22   C     C_R   0.254389 0.400284 0.072389 0.006781
C23   C     C_R   0.245240 0.898870 0.928168 0.008304
C24   C     C_R   0.754390 0.900284 0.072389 0.006780
C25   C     C_R   0.478122 0.277858 0.541824 0.171412
C26   C     C_R   0.494914 0.285025 0.469735 0.169476
C27   C     C_R   0.978099 0.777860 0.541836 0.171436
C28   C     C_R   0.994893 0.785018 0.469747 0.169440
C29   C     C_R   0.499023 0.174771 0.429019 -0.114737
C30   C     C_R   0.491181 0.166482 0.576839 -0.071341
C31   C     C_R   0.999004 0.674760 0.429033 -0.114789
C32   C     C_R   0.991152 0.666488 0.576854 -0.071275
C33   C     C_R   0.506676 0.061593 0.463499 -0.031337
C34   C     C_R   0.498087 0.056282 0.537733 -0.019969
C35   C     C_R   0.006642 0.561579 0.463521 -0.031345
C36   C     C_R   0.998034 0.556280 0.537755 -0.019936
C37   C     C_R   0.783150 0.284146 0.524791 -0.124249
C38   C     C_R   0.279136 0.259584 0.488443 -0.140004
C39   C     C_R   0.283145 0.784144 0.524793 -0.124217
C40   C     C_R   0.779140 0.759586 0.488444 -0.140043
C41   C     C_R   0.791523 0.306801 0.453107 0.019601
C42   C     C_R   0.267458 0.288994 0.560434 0.075308
C43   C     C_R   0.291525 0.806803 0.453111 0.019614
C44   C     C_R   0.767463 0.788997 0.560435 0.075360
C45   C     C_R   0.528609 0.177640 0.850271 0.562933
C46   C     C_R   0.471282 0.177078 0.149611 0.556945
C47   C     C_R   0.028609 0.677639 0.850271 0.562923
C48   C     C_R   0.971282 0.677078 0.149611 0.556942
C49   C     C_R   0.751115 0.401109 0.420556 -0.029841
C50   C     C_R   0.246834 0.410069 0.577502 0.081713
C51   C     C_R   0.251116 0.901106 0.420556 -0.029844
C52   C     C_R   0.746834 0.910071 0.577502 0.081735
C53   C     C_R   0.700584 0.463529 0.461047 -0.139136
C54   C     C_R   0.234558 0.494444 0.523244 -0.094008
C55   C     C_R   0.200580 0.963521 0.461046 -0.139137
C56   C     C_R   0.734555 0.994444 0.523243 -0.094065
C57   C     C_R   0.690540 0.434758 0.532174 -0.081030
C58   C     C_R   0.246825 0.464249 0.452814 -0.009071
C59   C     C_R   0.190534 0.934751 0.532173 -0.081017
C60   C     C_R   0.746826 0.964248 0.452814 -0.009032
C61   C     C_R   0.733046 0.346420 0.564359 0.009288
C62   C     C_R   0.268175 0.346470 0.435219 0.050878
C63   C     C_R   0.233041 0.846415 0.564359 0.009302
C64   C     C_R   0.768176 0.846470 0.435219 0.050876
C65   C     C_R   0.737665 0.362275 0.853835 0.577173
C66   C     C_R   0.262293 0.362214 0.146302 0.579443
C67   C     C_R   0.237665 0.862274 0.853836 0.577172
C68   C     C_R   0.762293 0.862214 0.146302 0.579449
C69   C     C_R   0.728781 0.951569 0.648859 0.607181
C70   C     C_R   0.271879 0.952907 0.351999 0.542503
C71   C     C_R   0.228782 0.451568 0.648860 0.607153
C72   C     C_R   0.771878 0.452907 0.351999 0.542493
C73   C     C_R   0.527116 0.175726 0.645909 0.531633
C74   C     C_R   0.471159 0.177361 0.355807 0.540541
C75   C     C_R   0.027111 0.675727 0.645912 0.531612
C76   C     C_R   0.971155 0.677359 0.355812 0.540552
C77   C     C_R   0.726300 0.314931 0.638857 0.545020
C78   C     C_R   0.274700 0.311448 0.360961 0.534423
C79   C     C_R   0.226299 0.814929 0.638857 0.545027
C80   C     C_R   0.774701 0.811447 0.360961 0.534435
C81   C     C_2   0.496461 0.169552 0.921377 -0.134952
C82   C     C_2   0.503142 0.167869 0.078344 -0.135036
C83   C     C_2   0.996461 0.669551 0.921377 -0.134950
C84   C     C_2   0.003142 0.667870 0.078344 -0.135040
C85   C     C_2   0.501426 0.063075 0.039318 -0.008604
C86   C     C_2   0.496116 0.064087 0.959078 -0.008670
C87   C     C_2   0.001427 0.563076 0.039318 -0.008604
C88   C     C_2   0.996116 0.564087 0.959078 -0.008669
C89   C     C_R   0.694009 0.468912 0.964940 0.027162
C90   C     C_R   0.306409 0.467920 0.035580 0.026797
C91   C     C_R   0.194009 0.968911 0.964940 0.027163
C92   C     C_R   0.806409 0.967921 0.035580 0.026798
Cr1   Cr    Cr6+3 0.769270 0.163730 0.750710 1.095024
Cr2   Cr    Cr6+3 0.230730 0.163730 0.249290 1.074368
Cr3   Cr    Cr6+3 0.269270 0.663730 0.750710 1.095047
Cr4   Cr    Cr6+3 0.730730 0.663730 0.249290 1.074409
Cr5   Cr    Cr6+3 0.612620 0.009790 0.748780 1.120345
Cr6   Cr    Cr6+3 0.387380 0.009790 0.251220 1.127412
Cr7   Cr    Cr6+3 0.112620 0.509790 0.748780 1.120345
Cr8   Cr    Cr6+3 0.887380 0.509790 0.251220 1.127436
Cr9   Cr    Cr6+3 0.614160 0.322500 0.747710 1.129724
Cr10  Cr    Cr6+3 0.385840 0.322500 0.252290 1.164422
Cr11  Cr    Cr6+3 0.114160 0.822500 0.747710 1.129698
Cr12  Cr    Cr6+3 0.885840 0.822500 0.252290 1.164416
H1    H     H_    0.671654 0.539544 0.438825 0.209880
H2    H     H_    0.212180 0.582658 0.535517 0.069939
H3    H     H_    0.171648 0.039532 0.438822 0.209878
H4    H     H_    0.712178 0.082658 0.535516 0.069945
H5    H     H_    0.652308 0.485788 0.562813 0.211780
H6    H     H_    0.236109 0.530709 0.411724 0.158644
H7    H     H_    0.152301 0.985778 0.562810 0.211780
H8    H     H_    0.736109 0.030708 0.411724 0.158738
H9    H     H_    0.513153 0.255070 0.053913 0.125847
H10   H     H_    0.487854 0.256937 0.946752 0.128066
H11   H     H_    0.013152 0.755071 0.053912 0.125848
H12   H     H_    0.987854 0.756936 0.946752 0.128064
H13   H     H_    0.662058 0.535686 0.067328 0.160166
H14   H     H_    0.338754 0.532834 0.933218 0.159531
H15   H     H_    0.162058 0.035686 0.067328 0.160166
H16   H     H_    0.838753 0.032837 0.933218 0.159530
H17   H     H_    0.839815 0.291687 0.067077 0.219207
H18   H     H_    0.156774 0.298922 0.933779 0.223295
H19   H     H_    0.339814 0.791686 0.067078 0.219205
H20   H     H_    0.656776 0.798918 0.933778 0.223296
H21   H     H_    0.836715 0.278910 0.941781 0.183144
H22   H     H_    0.160721 0.286007 0.058853 0.186138
H23   H     H_    0.336713 0.778907 0.941782 0.183145
H24   H     H_    0.660722 0.786003 0.058853 0.186134
H25   H     H_    0.815738 0.215306 0.550117 0.193456
H26   H     H_    0.295467 0.168372 0.473303 0.117295
H27   H     H_    0.315732 0.715304 0.550123 0.193464
H28   H     H_    0.795473 0.668374 0.473305 0.117274
O1    O     O_R   0.784320 0.290430 0.830510 -0.505189
O2    O     O_R   0.215680 0.290430 0.169490 -0.508205
O3    O     O_R   0.284320 0.790430 0.830510 -0.505182
O4    O     O_R   0.715680 0.790430 0.169490 -0.508201
O5    O     O_R   0.554640 0.080370 0.673500 -0.486182
O6    O     O_R   0.445360 0.080370 0.326500 -0.461013
O7    O     O_R   0.054640 0.580370 0.673500 -0.486149
O8    O     O_R   0.945360 0.580370 0.326500 -0.460947
O9    O     O_R   0.543920 0.282180 0.666790 -0.465888
O10   O     O_R   0.456080 0.282180 0.333210 -0.432381
O11   O     O_R   0.043920 0.782180 0.666790 -0.465968
O12   O     O_R   0.956080 0.782180 0.333210 -0.432384
O13   O     O_R   0.679040 0.374160 0.674430 -0.481280
O14   O     O_R   0.320960 0.374160 0.325570 -0.441992
O15   O     O_R   0.179040 0.874160 0.674430 -0.481273
O16   O     O_R   0.820960 0.874160 0.325570 -0.441993
O17   O     O_3   0.665350 0.165340 0.749070 -0.326226
O18   O     O_3   0.334650 0.165340 0.250930 -0.326532
O19   O     O_3   0.165350 0.665340 0.749070 -0.326224
O20   O     O_3   0.834650 0.665340 0.250930 -0.326550
O21   O     O_R   0.762640 0.040960 0.825200 -0.508777
O22   O     O_R   0.237360 0.040960 0.174800 -0.512982
O23   O     O_R   0.262640 0.540960 0.825200 -0.508776
O24   O     O_R   0.737360 0.540960 0.174800 -0.512984
O25   O     O_R   0.667400 0.923970 0.829950 -0.480332
O26   O     O_R   0.332600 0.923970 0.170050 -0.479924
O27   O     O_R   0.167400 0.423970 0.829950 -0.480333
O28   O     O_R   0.832600 0.423970 0.170050 -0.479918
O29   O     O_R   0.553960 0.081340 0.821780 -0.469574
O30   O     O_R   0.446040 0.081340 0.178220 -0.469045
O31   O     O_R   0.053960 0.581340 0.821780 -0.469565
O32   O     O_R   0.946040 0.581340 0.178220 -0.469035
O33   O     O_R   0.543180 0.283240 0.826740 -0.488750
O34   O     O_R   0.456820 0.283240 0.173260 -0.492391
O35   O     O_R   0.043180 0.783240 0.826740 -0.488771
O36   O     O_R   0.956820 0.783240 0.173260 -0.492396
O37   O     O_R   0.678360 0.375140 0.822710 -0.460740
O38   O     O_R   0.321640 0.375140 0.177290 -0.456186
O39   O     O_R   0.178360 0.875140 0.822710 -0.460739
O40   O     O_R   0.821640 0.875140 0.177290 -0.456186
O41   O     O_R   0.785050 0.289380 0.670560 -0.471112
O42   O     O_R   0.214950 0.289380 0.329440 -0.473425
O43   O     O_R   0.285050 0.789380 0.670560 -0.471052
O44   O     O_R   0.714950 0.789380 0.329440 -0.473324
O45   O     O_R   0.763320 0.039990 0.676930 -0.484775
O46   O     O_R   0.236680 0.039990 0.323070 -0.512681
O47   O     O_R   0.263320 0.539990 0.676930 -0.484798
O48   O     O_R   0.736680 0.539990 0.323070 -0.512680
O49   O     O_R   0.668130 0.922920 0.670000 -0.464298
O50   O     O_R   0.331870 0.922920 0.330000 -0.450305
O51   O     O_R   0.168130 0.422920 0.670000 -0.464320
O52   O     O_R   0.831870 0.422920 0.330000 -0.450344
C93   C     C_2   0.509281 0.944423 0.076869 0.643436
O53   O     O_2   0.554214 0.933498 0.123308 -0.505252
O54   O     O_R   0.465267 0.846543 0.060343 -0.679706
H29   H     H_    0.475157 0.773031 0.091210 0.344221
C94   C     C_2   0.486222 0.946947 0.919773 0.645958
O55   O     O_2   0.439920 0.938824 0.874478 -0.499950
O56   O     O_R   0.530322 0.847786 0.932855 -0.679673
H30   H     H_    0.519512 0.776188 0.900358 0.341473
C95   C     C_2   0.009283 0.444425 0.076870 0.643443
O57   O     O_2   0.054219 0.433501 0.123306 -0.505258
O58   O     O_R   0.965267 0.346546 0.060349 -0.679703
H31   H     H_    0.975158 0.273036 0.091217 0.344221
C96   C     C_2   0.986222 0.446947 0.919774 0.645950
O59   O     O_2   0.939923 0.438825 0.874476 -0.499953
O60   O     O_R   0.030317 0.347782 0.932859 -0.679676
H32   H     H_    0.019507 0.276184 0.900363 0.341472
C97   C     C_2   0.848663 0.237501 0.418316 0.629634
O61   O     O_2   0.839724 0.189422 0.360118 -0.463840
O62   O     O_R   0.913058 0.226673 0.454016 -0.589694
H33   H     H_    0.951446 0.191584 0.423123 0.406938
C98   C     C_2   0.277059 0.192298 0.615092 0.563181
O63   O     O_2   0.310016 0.099690 0.600311 -0.503492
O64   O     O_R   0.249317 0.206088 0.683434 -0.658211
H34   H     H_    0.259747 0.133658 0.715115 0.363073
C99   C     C_2   0.348676 0.737508 0.418334 0.629676
O65   O     O_2   0.339762 0.689454 0.360126 -0.463798
O66   O     O_R   0.413050 0.726634 0.454070 -0.589777
H35   H     H_    0.451451 0.691537 0.423198 0.406981
C100  C     C_2   0.777069 0.692307 0.615095 0.563280
O67   O     O_2   0.810040 0.599711 0.600318 -0.503484
O68   O     O_R   0.749307 0.706078 0.683427 -0.658200
H36   H     H_    0.759735 0.633644 0.715106 0.363072
C101  C     C_2   0.635300 0.533561 0.929222 0.567223
O69   O     O_2   0.645330 0.589750 0.874182 -0.505832
O70   O     O_R   0.568204 0.530740 0.959396 -0.688498
H37   H     H_    0.531308 0.571461 0.928513 0.355312
C102  C     C_2   0.366485 0.529398 0.071204 0.564928
O71   O     O_2   0.357766 0.586674 0.126477 -0.499053
O72   O     O_R   0.433358 0.522422 0.040695 -0.689043
H38   H     H_    0.471041 0.561762 0.071450 0.354701
C103  C     C_2   0.135300 0.033560 0.929222 0.567226
O73   O     O_2   0.145330 0.089751 0.874183 -0.505830
O74   O     O_R   0.068204 0.030736 0.959395 -0.688497
H39   H     H_    0.031307 0.071456 0.928512 0.355310
C104  C     C_2   0.866484 0.029401 0.071205 0.564927
O75   O     O_2   0.857764 0.086676 0.126478 -0.499046
O76   O     O_R   0.933356 0.022429 0.040695 -0.689044
H40   H     H_    0.971039 0.061770 0.071450 0.354701
S1    S     S_3+6 0.442117 0.407747 0.588788 0.091127
O77   O     O_2   0.500395 0.490644 0.613579 -0.177872
O78   O     O_2   0.394697 0.478778 0.540209 -0.232351
O79   O     O_3   0.395592 0.367568 0.661079 -0.501889
H41   H     H_    0.401056 0.278517 0.666256 0.338710
S2    S     S_3+6 0.513340 0.430998 0.430939 0.063818
O80   O     O_2   0.445281 0.481273 0.402513 -0.195171
O81   O     O_2   0.543393 0.520568 0.483338 -0.236871
O82   O     O_3   0.570211 0.416146 0.362891 -0.504923
H42   H     H_    0.600395 0.345570 0.375210 0.316208
S3    S     S_3+6 0.942099 0.907755 0.588798 0.091137
O83   O     O_2   0.000380 0.990633 0.613604 -0.177872
O84   O     O_2   0.894696 0.978806 0.540212 -0.232296
O85   O     O_3   0.895550 0.867584 0.661075 -0.501961
H43   H     H_    0.901091 0.778562 0.666321 0.338743
S4    S     S_3+6 0.013329 0.930989 0.430952 0.063838
O86   O     O_2   0.945275 0.981276 0.402521 -0.195155
O87   O     O_2   0.043381 0.020554 0.483354 -0.236797
O88   O     O_3   0.070205 0.916131 0.362908 -0.504943
H44   H     H_    0.100384 0.845549 0.375229 0.316197
C105  C     C_2   0.536015 0.955233 0.424051 0.640389
O89   O     O_2   0.597087 0.925485 0.434723 -0.503249
O90   O     O_R   0.495129 0.888181 0.376043 -0.630561
H45   H     H_    0.523049 0.821745 0.351110 0.345168
C106  C     C_2   0.490438 0.936749 0.574706 0.654932
O91   O     O_2   0.524949 0.847695 0.556643 -0.420088
O92   O     O_R   0.442953 0.927105 0.631086 -0.629077
H46   H     H_    0.441785 0.842161 0.652084 0.360876
C107  C     C_2   0.036022 0.455219 0.424098 0.640358
O93   O     O_2   0.097061 0.425386 0.434898 -0.503214
O94   O     O_R   0.995209 0.388237 0.375990 -0.630575
H47   H     H_    0.023156 0.321779 0.351107 0.345162
C108  C     C_2   0.990328 0.436764 0.574740 0.654888
O95   O     O_2   0.024736 0.347611 0.556635 -0.419883
O96   O     O_R   0.942897 0.427244 0.631177 -0.629108
H48   H     H_    0.941682 0.342304 0.652178 0.360864

loop_
_geom_bond_atom_site_label_1
_geom_bond_atom_site_label_2
_ccdc_geom_bond_type
Cr10  O38   S    
Cr11  O39   S    
C87   C88   S    
C58   C62   A    
C14   H18   S    
C55   C59   A    
C97   O62   S    
C36   C108  S    
C14   C18   A    
Cr1   O17   S    
C35   C36   A    
C42   C50   A    
C84   C87   D    
O68   H36   S    
C43   C51   A    
C32   C75   S    
C48   O32   A    
C31   C76   S    
Cr11  O15   S    
O94   H47   S    
Cr4   O4    S    
C21   C89   A    
C98   O63   D    
Cr8   O20   S    
C15   C19   A    
C74   O6    A    
S2    O82   S    
Cr9   O13   S    
C50   C54   A    
C15   H19   S    
Cr6   O6    S    
C37   C41   A    
C32   C36   A    
C103  O73   D    
C38   C42   A    
Cr7   O27   S    
Cr2   O46   S    
C107  O93   D    
C93   O54   S    
C23   C67   S    
S3    O83   D    
Cr4   O20   S    
C29   C33   A    
O90   H45   S    
C45   O29   A    
O79   H41   S    
C42   C98   S    
C94   O56   S    
O82   H42   S    
C28   S4    S    
C71   O47   A    
C57   C61   A    
C96   O60   S    
Cr3   O43   S    
C22   C66   S    
C9    C13   A    
C52   C69   S    
Cr8   O8    S    
C67   O3    A    
C103  O74   S    
C66   O2    A    
C11   C15   A    
C70   O50   A    
C57   H5    S    
Cr6   O26   S    
C61   C77   S    
C95   O58   S    
C49   C72   S    
C81   H10   S    
Cr8   O52   S    
C59   H7    S    
Cr12  O12   S    
Cr9   O37   S    
C105  O89   D    
C8    C92   A    
C51   C70   S    
C47   C83   S    
C18   C22   A    
Cr4   O44   S    
C108  O95   D    
O85   H43   S    
C40   C44   A    
Cr7   O51   S    
C81   C86   D    
S4    O88   S    
C16   C20   A    
Cr12  O40   S    
C47   O31   A    
C44   C52   A    
C98   O64   S    
C83   C88   D    
C74   O10   A    
C25   S1    S    
O60   H32   S    
Cr10  O34   S    
C46   C82   S    
C91   C103  S    
C3    O27   A    
C65   O1    A    
C64   C80   S    
Cr7   O7    S    
C96   O59   D    
C1    C12   S    
Cr9   O9    S    
C12   C16   A    
C2    C11   S    
C24   C92   A    
Cr5   O5    S    
C69   O49   A    
Cr6   O30   S    
S4    O87   D    
C33   C34   A    
C100  O68   S    
C85   C93   S    
C62   C78   S    
S2    O81   D    
C65   O37   A    
C30   C34   A    
Cr9   O17   S    
O56   H30   S    
C20   H24   S    
C7    H15   S    
C68   O4    A    
C78   O42   A    
C87   C95   S    
C90   C102  S    
O88   H44   S    
C10   C14   A    
O70   H37   S    
C107  O94   S    
C30   C73   S    
C54   H2    S    
C19   C23   A    
C70   O46   A    
C73   O9    A    
C29   C74   S    
C51   C55   A    
S3    O84   D    
C101  O69   D    
C6    C90   A    
C24   C68   S    
Cr7   O19   S    
Cr1   O21   S    
C17   C21   A    
O72   H38   S    
O64   H34   S    
C34   C106  S    
C55   H3    S    
C106  O92   S    
Cr5   O25   S    
C88   C96   S    
Cr6   O50   S    
C7    C11   A    
C50   C71   S    
O66   H35   S    
C5    C9    A    
C104  O75   D    
C60   H8    S    
C79   O43   A    
Cr12  O36   S    
C102  O71   D    
C13   H17   S    
C26   S2    S    
C37   C61   A    
O74   H39   S    
C48   O36   A    
C47   O35   A    
C100  O67   D    
C8    C12   A    
S3    O85   S    
C7    C91   A    
Cr3   O3    S    
C99   O65   D    
C22   C90   A    
C1    O25   A    
Cr8   O32   S    
Cr11  O35   S    
Cr4   O48   S    
Cr9   O33   S    
S1    O78   D    
C80   O44   A    
C85   C86   S    
C75   O11   A    
Cr2   O42   S    
Cr7   O31   S    
C76   O12   A    
Cr3   O47   S    
C4    O24   A    
Cr10  O18   S    
C84   H11   S    
Cr5   O29   S    
C54   C58   A    
Cr10  O10   S    
C23   C91   A    
C59   C63   A    
Cr3   O19   S    
C3    O23   A    
Cr4   O24   S    
C76   O8    A    
C41   C97   S    
O92   H46   S    
C82   C85   D    
C38   H26   S    
C106  O91   D    
O76   H40   S    
S4    O86   D    
C8    H16   S    
C105  O90   S    
Cr6   O18   S    
C25   C30   A    
Cr5   O17   S    
S2    O80   D    
C99   O66   S    
C86   C94   S    
C77   O41   A    
C46   O34   A    
C21   C65   S    
C27   C32   A    
C58   H6    S    
C72   O52   A    
Cr11  O11   S    
C83   H12   S    
C66   O38   A    
C28   C31   A    
C45   C81   S    
Cr12  O20   S    
C53   H1    S    
C82   H9    S    
Cr8   O28   S    
C53   C57   A    
C6    C10   A    
C79   O15   A    
O96   H48   S    
C104  O76   S    
Cr5   O49   S    
C63   C79   S    
Cr11  O19   S    
C101  O70   S    
C41   C49   A    
C39   C63   A    
Cr1   O1    S    
C40   C64   A    
C97   O61   D    
C13   C17   A    
C60   C64   A    
C67   O39   A    
C35   C107  S    
C72   O48   A    
C33   C105  S    
C25   C26   A    
Cr12  O16   S    
C102  O72   S    
C108  O96   S    
C75   O7    A    
C18   H22   S    
C69   O45   A    
Cr2   O22   S    
C68   O40   A    
C17   H21   S    
C93   O53   D    
C4    O28   A    
C77   O13   A    
C73   O5    A    
C92   C104  S    
C49   C53   A    
C31   C35   A    
Cr1   O41   S    
Cr2   O2    S    
C37   H25   S    
C27   S3    S    
Cr3   O23   S    
C44   C100  S    
C40   H28   S    
C94   O55   D    
C43   C99   S    
S1    O79   S    
C5    C89   A    
C39   H27   S    
C1    O21   A    
C78   O14   A    
C89   C101  S    
O58   H31   S    
C48   C84   S    
Cr2   O18   S    
C80   O16   A    
C56   C60   A    
C2    O26   A    
C39   C43   A    
C26   C29   A    
C2    O22   A    
C95   O57   D    
C46   O30   A    
C5    H13   S    
C27   C28   A    
C3    C10   S    
C56   H4    S    
O54   H29   S    
C19   H23   S    
O62   H33   S    
Cr1   O45   S    
C4    C9    S    
C16   H20   S    
C45   O33   A    
C20   C24   A    
Cr10  O14   S    
C52   C56   A    
S1    O77   D    
C6    H14   S    
C38   C62   A    
C71   O51   A    
