data_mof_unit_24471.cif
_audit_creation_date              2012-10-26T20:19:12-0400
_audit_creation_method            fapswitch 2.2
_symmetry_space_group_name_H-M    P1
_symmetry_Int_Tables_number       1
_space_group_crystal_system       triclinic
_cell_length_a                    15.081014
_cell_length_b                    12.955779
_cell_length_c                    11.661603
_cell_angle_alpha                 99.950754
_cell_angle_beta                  93.778843
_cell_angle_gamma                 90.58844
_cell_volume                      2238.81763033

loop_
_atom_site_label
_atom_site_type_symbol
_atom_type_description
_atom_site_fract_x
_atom_site_fract_y
_atom_site_fract_z
_atom_type_partial_charge
C1    C     C_R   0.502624 0.299214 0.478321 0.542547
C2    C     C_R   0.438905 0.872785 0.620415 0.002193
C3    C     C_R   0.468785 0.136860 0.546270 -0.141645
C4    C     C_R   0.531215 0.863140 0.453730 -0.141644
C5    C     C_R   0.475564 0.029699 0.542805 0.023684
C6    C     C_R   0.524436 0.970301 0.457195 0.023684
C7    C     C_R   0.416568 0.400793 0.021355 -0.179489
C8    C     C_R   0.583432 0.599207 0.978645 -0.179489
C9    C     C_R   0.424471 0.410410 0.143679 0.037133
C10   C     C_R   0.575529 0.589590 0.856321 0.037133
C11   C     C_R   0.535960 0.542975 0.157325 0.045767
C12   C     C_R   0.497376 0.700785 0.521679 0.542547
C13   C     C_R   0.464040 0.457025 0.842675 0.045767
C14   C     C_R   0.530286 0.536061 0.034398 0.007547
C15   C     C_R   0.469714 0.463939 0.965602 0.007547
C16   C     C_R   0.328504 0.500041 0.500327 0.546851
C17   C     C_R   0.671496 0.499958 0.499673 0.546852
C18   C     C_R   0.820165 0.512829 0.605580 -0.137413
C19   C     C_R   0.179835 0.487161 0.394420 -0.137413
C20   C     C_R   0.768325 0.499802 0.499405 -0.016148
C21   C     C_R   0.231675 0.500197 0.500595 -0.016149
C22   C     C_R   0.809216 0.486688 0.393406 -0.144951
C23   C     C_R   0.035402 0.473800 0.287604 -0.135492
C24   C     C_R   0.190784 0.513319 0.606592 -0.144952
C25   C     C_R   0.901607 0.486652 0.392901 0.011715
C26   C     C_R   0.098393 0.513351 0.607098 0.011715
C27   C     C_R   0.953515 0.499916 0.499862 0.061573
C28   C     C_R   0.046485 0.500082 0.500138 0.061574
C29   C     C_R   0.912552 0.513028 0.606559 0.011210
C30   C     C_R   0.087448 0.486965 0.393441 0.011210
C31   C     C_R   0.942942 0.473634 0.287336 -0.136097
C32   C     C_R   0.057058 0.526367 0.712663 -0.136097
C33   C     C_3   0.389620 0.818051 0.704171 -0.256303
C34   C     C_R   0.964598 0.526194 0.712396 -0.135492
C35   C     C_3   0.323134 0.884332 0.776961 -0.462381
C36   C     C_3   0.610380 0.181948 0.295828 -0.256301
C37   C     C_3   0.676861 0.115666 0.223032 -0.462380
C38   C     C_R   0.489713 0.814179 0.534310 0.005309
C39   C     C_R   0.510287 0.185821 0.465690 0.005308
C40   C     C_R   0.566381 0.018500 0.376233 -0.105630
C41   C     C_R   0.433618 0.981500 0.623767 -0.105630
C42   C     C_R   0.561094 0.127214 0.379584 0.002193
Cu1   Cu    Cu3+1 0.506660 0.507730 0.615930 0.920207
Cu2   Cu    Cu3+1 0.493340 0.492270 0.384070 0.920207
H1    H     H_    0.788763 0.523111 0.687694 0.125589
H2    H     H_    0.933792 0.536348 0.794865 0.105029
H3    H     H_    0.569377 0.817267 0.388070 0.108245
H4    H     H_    0.430623 0.182733 0.611930 0.108245
H5    H     H_    0.603362 0.970277 0.311597 0.107902
H6    H     H_    0.396637 0.029723 0.688402 0.107902
H7    H     H_    0.417563 0.401868 0.788897 0.112735
H8    H     H_    0.582436 0.598132 0.211103 0.112734
H9    H     H_    0.358129 0.948346 0.839810 0.143931
H10   H     H_    0.273387 0.917325 0.719490 0.154032
H11   H     H_    0.287315 0.834175 0.827792 0.142917
H12   H     H_    0.211237 0.476871 0.312308 0.125588
H13   H     H_    0.351726 0.749433 0.652751 0.162147
H14   H     H_    0.439010 0.789116 0.765446 0.169575
H15   H     H_    0.726610 0.082670 0.280499 0.154031
H16   H     H_    0.641863 0.051653 0.160184 0.143931
H17   H     H_    0.712681 0.165822 0.172200 0.142918
H18   H     H_    0.560989 0.210887 0.234556 0.169577
H19   H     H_    0.648276 0.250564 0.347249 0.162145
H20   H     H_    0.616714 0.638625 0.814232 0.123516
H21   H     H_    0.383286 0.361374 0.185768 0.123514
H22   H     H_    0.369293 0.344415 0.970913 0.081801
H23   H     H_    0.630707 0.655585 0.029087 0.081800
H24   H     H_    0.769290 0.476376 0.311267 0.122816
H25   H     H_    0.230710 0.523640 0.688731 0.122817
H26   H     H_    0.903782 0.463371 0.204688 0.105170
H27   H     H_    0.096218 0.536634 0.795311 0.105171
H28   H     H_    0.066208 0.463642 0.205136 0.105030
N1    N     N_R   0.516670 0.519360 0.790130 -0.230000
N2    N     N_R   0.483330 0.480640 0.209870 -0.230000
O1    O     O_R   0.504720 0.354460 0.582000 -0.501219
O2    O     O_R   0.495280 0.645540 0.418000 -0.501219
O3    O     O_R   0.493480 0.341410 0.386200 -0.516114
O4    O     O_R   0.506520 0.658590 0.613800 -0.516113
O5    O     O_R   0.375880 0.506510 0.597910 -0.514709
O6    O     O_R   0.624120 0.493490 0.402090 -0.514709
O7    O     O_R   0.364640 0.493450 0.402110 -0.503552
O8    O     O_R   0.635360 0.506550 0.597890 -0.503552

loop_
_geom_bond_atom_site_label_1
_geom_bond_atom_site_label_2
_ccdc_geom_bond_type
C19   H12   S    
C25   C31   A    
C26   C32   A    
C33   H14   S    
C35   H9    S    
C1    O3    A    
C36   C42   S    
Cu1   O4    S    
C16   C21   S    
Cu2   O3    S    
C19   C21   A    
C24   C26   A    
C5    C6    A    
C10   N1    A    
C27   C29   A    
C2    C41   A    
Cu1   O5    S    
C40   H5    S    
C3    H4    S    
C17   C20   S    
C17   O8    A    
Cu2   O2    S    
C11   H8    S    
C33   C35   S    
C13   H7    S    
Cu1   N1    S    
C31   H26   S    
C22   C25   A    
C12   O4    A    
C8    C14   A    
C34   H2    S    
C39   C42   A    
C36   H19   S    
C40   C42   A    
C3    C39   A    
C35   H10   S    
C36   H18   S    
C24   H25   S    
C32   H27   S    
Cu1   O1    S    
C35   H11   S    
C1    O1    A    
C23   C30   A    
Cu2   O6    S    
C4    C6    A    
Cu2   O7    S    
C29   C34   A    
C17   O6    A    
C23   C31   A    
Cu1   Cu2   S    
C2    C38   A    
C18   C29   A    
Cu2   N2    S    
C22   H24   S    
C37   H15   S    
C2    C33   S    
C13   N1    A    
C13   C15   A    
C12   O2    A    
C6    C40   A    
C9    N2    A    
C18   H1    S    
C41   H6    S    
C7    C9    A    
C5    C41   A    
C36   C37   S    
C33   H13   S    
C23   H28   S    
C10   H20   S    
C20   C22   A    
C3    C5    A    
C11   N2    A    
C37   H17   S    
C25   C27   A    
C26   C28   A    
C16   O5    A    
C28   C30   A    
C7    H22   S    
C7    C15   A    
C16   O7    A    
C11   C14   A    
C18   C20   A    
C12   C38   S    
C9    H21   S    
C37   H16   S    
C1    C39   S    
C8    H23   S    
C8    C10   A    
C21   C24   A    
C27   C28   A    
Cu1   O8    S    
C14   C15   A    
C4    C38   A    
C19   C30   A    
C32   C34   A    
C4    H3    S    
