data_mof_unit_36000.cif
_audit_creation_date              2012-12-10T18:02:09-0500
_audit_creation_method            fapswitch 2.2
_symmetry_space_group_name_H-M    P1
_symmetry_Int_Tables_number       1
_space_group_crystal_system       triclinic
_cell_length_a                    10.892281
_cell_length_b                    9.499617
_cell_length_c                    23.544816
_cell_angle_alpha                 90.454327
_cell_angle_beta                  89.954684
_cell_angle_gamma                 88.929404
_cell_volume                      2435.73797989

loop_
_atom_site_label
_atom_site_type_symbol
_atom_type_description
_atom_site_fract_x
_atom_site_fract_y
_atom_site_fract_z
_atom_type_partial_charge
C1    C     C_R   0.262074 0.501591 0.501486 0.865910
C2    C     C_R   0.737926 0.498409 0.498513 0.865918
C3    C     C_R   0.545084 0.384623 0.236940 -0.174891
C4    C     C_R   0.454895 0.615370 0.763060 -0.174895
C5    C     C_R   0.548754 0.380797 0.296364 0.229431
C6    C     C_R   0.451227 0.619196 0.703635 0.229446
C7    C     C_R   0.505439 0.499001 0.328158 -0.067875
C8    C     C_R   0.494556 0.500998 0.671842 -0.067872
C9    C     C_R   0.463127 0.619514 0.299237 -0.283844
C10   C     C_R   0.536876 0.380488 0.700763 -0.283845
C11   C     C_R   0.461569 0.622338 0.240084 -0.107914
C12   C     C_R   0.538431 0.377663 0.759916 -0.107914
C13   C     C_R   0.502243 0.504822 0.208789 0.325129
C14   C     C_R   0.497745 0.495174 0.791211 0.325122
C15   C     C_R   0.066315 0.388360 0.525917 0.164149
C16   C     C_R   0.933684 0.611639 0.474080 0.164153
C17   C     C_R   0.938602 0.380675 0.520323 0.150804
C18   C     C_R   0.061398 0.619322 0.479673 0.150806
C19   C     C_R   0.872115 0.495140 0.496552 -0.183537
C20   C     C_R   0.127885 0.504860 0.503446 -0.183540
C21   C     C_R   0.562229 0.072207 0.459326 -0.033361
C22   C     C_R   0.437771 0.927793 0.540674 -0.033367
C23   C     C_R   0.437499 0.076600 0.540652 -0.017870
C24   C     C_R   0.562502 0.923400 0.459348 -0.017870
C25   C     C_R   0.502425 0.499389 0.390856 0.805473
C26   C     C_R   0.497574 0.500610 0.609143 0.805470
C27   C     C_R   0.608590 0.491366 0.880256 0.536936
C28   C     C_R   0.391398 0.508632 0.119744 0.536936
C29   C     C_R   0.389093 0.495456 0.880862 0.536433
C30   C     C_R   0.610895 0.504540 0.119137 0.536433
C31   C     C_R   0.387389 0.498623 0.940431 -0.016325
C32   C     C_R   0.612599 0.501373 0.059569 -0.016325
C33   C     C_R   0.499710 0.498097 0.970031 -0.017829
C34   C     C_R   0.500278 0.501899 0.029969 -0.017829
C35   C     C_R   0.611460 0.493915 0.939836 -0.016800
C36   C     C_R   0.388528 0.506082 0.060164 -0.016800
C37   C     C_R   0.276460 0.502735 0.970954 -0.162130
C38   C     C_R   0.723528 0.497261 0.029045 -0.162131
C39   C     C_R   0.277025 0.506457 0.030204 -0.161809
C40   C     C_R   0.722963 0.493539 0.969796 -0.161809
Cu1   Cu    Cu3+1 0.500000 0.640660 0.500000 0.967472
Cu2   Cu    Cu3+1 0.500000 0.359340 0.500000 0.967475
H1    H     H_    0.188880 0.503233 0.949193 0.188659
H2    H     H_    0.811108 0.496762 0.050807 0.188659
H3    H     H_    0.189871 0.509501 0.052405 0.188937
H4    H     H_    0.810117 0.490496 0.947595 0.188937
H5    H     H_    0.577661 0.294475 0.212380 0.144190
H6    H     H_    0.422309 0.705513 0.787620 0.144194
H7    H     H_    0.429824 0.711518 0.322412 0.173760
H8    H     H_    0.570188 0.288489 0.677588 0.173761
H9    H     H_    0.428737 0.715952 0.218500 0.151368
H10   H     H_    0.571269 0.284052 0.781500 0.151373
H11   H     H_    0.612117 0.126452 0.426913 0.148977
H12   H     H_    0.387883 0.873548 0.573087 0.148983
H13   H     H_    0.387292 0.134290 0.573175 0.136877
H14   H     H_    0.612709 0.865710 0.426825 0.136875
N1    N     N_R   0.498557 0.492626 0.852117 -0.462143
N2    N     N_R   0.501431 0.507370 0.147883 -0.462145
N3    N     N_R   0.500000 0.852070 0.500000 -0.150726
N4    N     N_R   0.500000 0.147930 0.500000 -0.150726
O1    O     O_R   0.319640 0.618740 0.500000 -0.558470
O2    O     O_R   0.680360 0.381260 0.500000 -0.558466
O3    O     O_R   0.680360 0.618740 0.500000 -0.554642
O4    O     O_R   0.319640 0.381260 0.500000 -0.554642
O5    O     O_R   0.499960 0.618810 0.417880 -0.593351
O6    O     O_R   0.500040 0.381190 0.582120 -0.593351
O7    O     O_R   0.500040 0.618810 0.582120 -0.556667
O8    O     O_R   0.499960 0.381190 0.417880 -0.556664
O9    O     O_2   0.714743 0.489401 0.850645 -0.534336
O10   O     O_2   0.285245 0.510598 0.149355 -0.534335
O11   O     O_2   0.282316 0.494781 0.851830 -0.536991
O12   O     O_2   0.717672 0.505212 0.148170 -0.536990
N5    N     N_2   0.599195 0.259239 0.323232 -0.424742
H15   H     H_    0.580275 0.166667 0.302038 0.246484
C41   C     C_3   0.728439 0.269633 0.336461 -0.694463
H16   H     H_    0.763018 0.168366 0.354083 0.204978
H17   H     H_    0.742826 0.353348 0.368722 0.221537
H18   H     H_    0.782044 0.292610 0.297521 0.246096
N6    N     N_2   0.400775 0.740750 0.676767 -0.424721
H19   H     H_    0.419658 0.833333 0.697969 0.246470
C42   C     C_3   0.271545 0.730320 0.663517 -0.694473
H20   H     H_    0.236949 0.831594 0.645907 0.204980
H21   H     H_    0.217918 0.707278 0.702443 0.246095
H22   H     H_    0.257207 0.646635 0.631238 0.221533
N7    N     N_2   0.133382 0.280147 0.555028 -0.414630
H23   H     H_    0.103793 0.178943 0.548771 0.252896
C43   C     C_3   0.159449 0.311696 0.613948 -0.674424
H24   H     H_    0.072674 0.327689 0.638186 0.225143
H25   H     H_    0.215668 0.407431 0.617373 0.221377
H26   H     H_    0.212218 0.222847 0.633012 0.216181
N8    N     N_2   0.866617 0.719850 0.444968 -0.414631
H27   H     H_    0.896211 0.821053 0.451221 0.252895
C44   C     C_3   0.840541 0.688291 0.386050 -0.674423
H28   H     H_    0.927312 0.672290 0.361810 0.225145
H29   H     H_    0.787772 0.777138 0.366985 0.216182
H30   H     H_    0.784318 0.592559 0.382630 0.221371
N9    N     N_2   0.876648 0.258871 0.539474 -0.393654
H31   H     H_    0.904601 0.222164 0.578553 0.254785
C45   C     C_3   0.867607 0.148388 0.496974 -0.671178
H32   H     H_    0.960011 0.109125 0.484042 0.198445
H33   H     H_    0.820137 0.188322 0.458536 0.237397
H34   H     H_    0.814697 0.059682 0.514348 0.224768
N10   N     N_2   0.123354 0.741121 0.460517 -0.393657
H35   H     H_    0.095401 0.777820 0.421437 0.254784
C46   C     C_3   0.132400 0.851613 0.503013 -0.671174
H36   H     H_    0.040000 0.890900 0.515937 0.198440
H37   H     H_    0.185329 0.940302 0.485638 0.224777
H38   H     H_    0.179852 0.811685 0.541456 0.237390

loop_
_geom_bond_atom_site_label_1
_geom_bond_atom_site_label_2
_ccdc_geom_bond_type
C30   C32   A    
C43   H24   S    
C44   H28   S    
C8    C26   S    
N5    H15   S    
Cu1   O1    S    
N9    H31   S    
C22   H12   S    
N7    H23   S    
C40   H4    S    
C46   H37   S    
C26   O7    A    
C16   C19   A    
C33   C35   A    
C30   N2    A    
C15   C17   A    
Cu1   Cu2   S    
N9    C45   S    
C31   C33   A    
C32   C38   A    
Cu2   O2    S    
C18   C20   A    
C3    C13   A    
C39   H3    S    
C44   H29   S    
Cu2   O8    S    
N5    C41   S    
C15   C20   A    
C25   O8    A    
C12   H10   S    
C42   H20   S    
N7    C43   S    
C23   N4    A    
C46   H38   S    
C26   O6    A    
C25   O5    A    
Cu1   O7    S    
C21   N4    A    
C4    C6    A    
C27   N1    A    
Cu2   N4    S    
N8    H27   S    
N6    C42   S    
Cu1   O5    S    
C13   N2    S    
C27   C35   A    
C31   C37   A    
C1    O1    A    
C32   C34   A    
C37   H1    S    
C41   H16   S    
C38   H2    S    
N8    C44   S    
C41   H17   S    
C30   O12   S    
C45   H32   S    
C29   C31   A    
C33   C34   A    
C9    H7    S    
N10   C46   S    
C9    C11   A    
Cu1   N3    S    
C10   C12   A    
C16   C18   A    
C45   H33   S    
C29   N1    A    
C44   H30   S    
C43   H25   S    
C43   H26   S    
Cu1   O3    S    
C10   H8    S    
C1    O4    A    
Cu2   O4    S    
C22   N3    A    
C42   H22   S    
C2    O3    A    
C5    C7    A    
C4    H6    S    
C7    C9    A    
C14   N1    S    
C1    C20   S    
C2    C19   S    
C36   C39   A    
C28   O10   S    
C12   C14   A    
C3    C5    A    
C27   O9    S    
C42   H21   S    
C6    C8    A    
C23   H13   S    
C28   N2    A    
C24   H14   S    
C46   H36   S    
C7    C25   S    
C15   N7    S    
C35   C40   A    
C37   C39   A    
C4    C14   A    
C38   C40   A    
C11   C13   A    
C6    N6    S    
C24   N3    A    
C21   H11   S    
C3    H5    S    
C17   C19   A    
C34   C36   A    
C18   N10   S    
C5    N5    S    
C41   H18   S    
C11   H9    S    
N6    H19   S    
C45   H34   S    
C28   C36   A    
C16   N8    S    
C8    C10   A    
C21   C24   A    
N10   H35   S    
Cu2   O6    S    
C22   C23   A    
C17   N9    S    
C2    O2    A    
C29   O11   S    
