data_mof_unit_61859.cif
_audit_creation_date              2012-12-10T19:53:11-0500
_audit_creation_method            fapswitch 2.2
_symmetry_space_group_name_H-M    P1
_symmetry_Int_Tables_number       1
_space_group_crystal_system       triclinic
_cell_length_a                    18.27174
_cell_length_b                    18.270785
_cell_length_c                    38.74078
_cell_angle_alpha                 89.996456
_cell_angle_beta                  89.976379
_cell_angle_gamma                 90.009739
_cell_volume                      12933.1832266

loop_
_atom_site_label
_atom_site_type_symbol
_atom_type_description
_atom_site_fract_x
_atom_site_fract_y
_atom_site_fract_z
_atom_type_partial_charge
C1    C     C_R   0.500005 0.141149 0.499955 0.926003
C2    C     C_R   0.999943 0.500018 0.215141 0.356955
C3    C     C_3   0.862645 0.472386 0.396546 -0.411413
C4    C     C_3   0.852286 0.389792 0.402096 -0.333851
C5    C     C_3   0.778254 0.372995 0.418513 -0.856766
C6    C     C_3   0.530032 0.862635 0.396994 -0.371544
C7    C     C_3   0.612625 0.848762 0.399671 -0.324694
C8    C     C_3   0.628754 0.777512 0.418749 -0.859180
C9    C     C_3   0.137350 0.527590 0.396486 -0.411683
C10   C     C_3   0.147733 0.610173 0.402052 -0.334011
C11   C     C_3   0.221748 0.626919 0.418468 -0.855906
C12   C     C_3   0.468786 0.863748 0.604322 -0.412353
C13   C     C_R   0.501591 0.001453 0.784766 0.360914
C14   C     C_3   0.386125 0.855195 0.598433 -0.331829
C15   C     C_3   0.368329 0.782220 0.581223 -0.857330
C16   C     C_3   0.862516 0.529447 0.603147 -0.410021
C17   C     C_3   0.853062 0.612096 0.597416 -0.333476
C18   C     C_3   0.779468 0.629442 0.580722 -0.857410
C19   C     C_3   0.529902 0.137410 0.602984 -0.371486
C20   C     C_3   0.612496 0.151333 0.600302 -0.324813
C21   C     C_3   0.628638 0.222563 0.581200 -0.859125
C22   C     C_3   0.136473 0.470855 0.603810 -0.411628
C23   C     C_3   0.146026 0.388201 0.598175 -0.333172
C24   C     C_R   0.997837 0.502810 0.784948 0.316026
C25   C     C_3   0.219490 0.370925 0.581308 -0.856005
C26   C     C_3   0.969925 0.637366 0.897007 -0.371382
C27   C     C_3   0.887319 0.651179 0.899697 -0.324728
C28   C     C_3   0.871116 0.722363 0.918818 -0.859239
C29   C     C_3   0.363523 0.970781 0.896200 -0.411610
C30   C     C_3   0.353989 0.888124 0.901849 -0.333143
C31   C     C_3   0.280545 0.870818 0.918735 -0.856019
C32   C     C_3   0.031443 0.363815 0.895685 -0.412137
C33   C     C_3   0.114127 0.355413 0.901545 -0.331758
C34   C     C_3   0.132033 0.282604 0.918884 -0.857282
C35   C     C_R   0.998373 0.501446 0.715233 0.360943
C36   C     C_3   0.637461 0.029563 0.896846 -0.409999
C37   C     C_3   0.646881 0.112217 0.902580 -0.333485
C38   C     C_3   0.720429 0.129604 0.919314 -0.857368
C39   C     C_3   0.972445 0.362634 0.103494 -0.411594
C40   C     C_3   0.889868 0.352220 0.097949 -0.333775
C41   C     C_3   0.873142 0.278191 0.081530 -0.857105
C42   C     C_3   0.363526 0.029137 0.103861 -0.411638
C43   C     C_3   0.353950 0.111782 0.098201 -0.332828
C44   C     C_3   0.280510 0.129008 0.081326 -0.857172
C45   C     C_3   0.027475 0.637383 0.103474 -0.411629
C46   C     C_R   0.502116 0.002814 0.715051 0.316037
C47   C     C_3   0.110059 0.647799 0.097921 -0.333669
C48   C     C_3   0.126807 0.721830 0.081497 -0.857283
C49   C     C_3   0.637453 0.970386 0.103092 -0.410054
C50   C     C_3   0.646803 0.887713 0.097397 -0.333145
C51   C     C_3   0.720298 0.870253 0.080606 -0.857786
C52   C     C_R   0.999973 0.500030 0.284857 0.356949
C53   C     C_R   0.502253 0.997260 0.284949 0.316007
C54   C     C_R   0.499981 0.000522 0.432811 0.882628
C55   C     C_R   1.000000 0.500002 0.432799 0.885091
C56   C     C_R   0.499954 0.999477 0.567189 0.882637
C57   C     C_R   0.858850 0.499996 0.499994 0.929767
C58   C     C_R   0.999907 0.500005 0.567206 0.884999
C59   C     C_R   0.000046 0.499482 0.932810 0.882642
C60   C     C_R   0.500091 0.000009 0.932794 0.885136
C61   C     C_R   0.999986 0.500002 0.067200 0.885038
C62   C     C_R   0.500090 0.999991 0.067206 0.885127
C63   C     C_1   0.500014 0.217524 0.499982 -0.229548
C64   C     C_1   0.782477 0.499992 0.499992 -0.229665
C65   C     C_1   0.499987 0.782476 0.500017 -0.229482
C66   C     C_1   0.217523 0.499996 0.500035 -0.229863
C67   C     C_1   0.999967 0.717523 0.999968 -0.229468
C68   C     C_R   0.499995 0.858850 0.500044 0.926098
C69   C     C_1   0.282477 0.999987 0.999988 -0.230250
C70   C     C_1   0.000031 0.282478 0.999944 -0.229705
C71   C     C_1   0.717523 0.000015 0.000012 -0.230020
C72   C     C_1   0.500015 0.282251 0.499999 -0.199402
C73   C     C_1   0.717748 0.499998 0.499989 -0.203401
C74   C     C_1   0.499993 0.717749 0.500000 -0.199563
C75   C     C_1   0.282252 0.499986 0.500029 -0.203052
C76   C     C_1   0.999945 0.782252 0.999975 -0.200914
C77   C     C_1   0.217748 0.999989 0.999984 -0.202272
C78   C     C_1   0.000049 0.217748 0.999967 -0.202482
C79   C     C_R   0.141150 0.500003 0.500020 0.930086
C80   C     C_1   0.782252 0.000013 0.000016 -0.202938
C81   C     C_R   0.485981 0.065254 0.376650 0.019263
C82   C     C_R   0.933499 0.488026 0.377064 0.022023
C83   C     C_R   0.514745 0.933404 0.377513 0.061183
C84   C     C_R   0.066484 0.511992 0.377034 0.022132
C85   C     C_R   0.485906 0.934773 0.623360 0.019253
C86   C     C_R   0.932984 0.513180 0.622803 0.023049
C87   C     C_R   0.514605 0.066644 0.622477 0.061162
C88   C     C_R   0.065574 0.487207 0.623131 0.021498
C89   C     C_R   0.985288 0.566620 0.877519 0.061152
C90   C     C_R   0.999998 0.641149 0.000004 0.927097
C91   C     C_R   0.434415 0.987169 0.876874 0.021491
C92   C     C_R   0.014189 0.434801 0.876642 0.019200
C93   C     C_R   0.566994 0.013248 0.877193 0.023035
C94   C     C_R   0.988017 0.433507 0.122955 0.022038
C95   C     C_R   0.434435 0.012820 0.123156 0.021452
C96   C     C_R   0.011880 0.566515 0.122946 0.022037
C97   C     C_R   0.567011 0.986771 0.122776 0.023006
C98   C     C_R   0.487970 0.063835 0.340178 0.080779
C99   C     C_R   0.933841 0.489822 0.340606 0.055198
C100  C     C_R   0.515127 0.932691 0.341249 0.047067
C101  C     C_R   0.358850 0.999995 0.999997 0.929977
C102  C     C_R   0.066128 0.510220 0.340575 0.055201
C103  C     C_R   0.487841 0.936215 0.659832 0.080728
C104  C     C_R   0.932923 0.511803 0.659270 0.054119
C105  C     C_R   0.514954 0.067378 0.658741 0.047048
C106  C     C_R   0.064859 0.489194 0.659591 0.056517
C107  C     C_R   0.984921 0.567350 0.841255 0.047038
C108  C     C_R   0.435122 0.989150 0.840413 0.056533
C109  C     C_R   0.012219 0.436235 0.840171 0.080742
C110  C     C_R   0.567048 0.011873 0.840726 0.054147
C111  C     C_R   0.989795 0.433860 0.159414 0.055230
C112  C     C_R   0.000002 0.358851 0.999958 0.929150
C113  C     C_R   0.435160 0.010868 0.159617 0.056591
C114  C     C_R   0.010076 0.566171 0.159404 0.055214
C115  C     C_R   0.567088 0.988200 0.159242 0.054200
C116  C     C_R   0.501589 0.997727 0.322770 -0.012203
C117  C     C_R   0.999981 0.500027 0.322731 0.019414
C118  C     C_R   0.501428 0.002341 0.677230 -0.012260
C119  C     C_R   0.998711 0.500734 0.677319 0.016130
C120  C     C_R   0.998529 0.502336 0.822769 -0.012251
C121  C     C_R   0.501261 0.000745 0.822681 0.016106
C122  C     C_R   0.999934 0.500016 0.177269 0.019364
C123  C     C_R   0.641150 0.000005 0.000002 0.929287
C124  C     C_R   0.501312 0.999328 0.177319 0.016096
C125  C     C_R   0.358640 0.499990 0.500008 0.940888
C126  C     C_R   0.500008 0.358640 0.500001 0.940414
C127  C     C_R   0.641360 0.500003 0.499995 0.940970
C128  C     C_R   0.500001 0.641360 0.499999 0.940418
C129  C     C_R   0.858640 0.000004 0.000006 0.940973
C130  C     C_R   0.999966 0.858641 0.999996 0.940802
C131  C     C_R   0.141360 0.999996 0.999994 0.940905
C132  C     C_R   0.000028 0.141359 0.999995 0.940841
C133  C     C_R   0.499930 0.999700 0.395090 -0.140600
C134  C     C_R   0.501662 0.998635 0.215234 0.360890
C135  C     C_R   0.999994 0.500007 0.395050 -0.119875
C136  C     C_R   0.499842 0.000325 0.604909 -0.140598
C137  C     C_R   0.999475 0.500058 0.604965 -0.120572
C138  C     C_R   0.000157 0.500329 0.895090 -0.140616
C139  C     C_R   0.500513 0.000071 0.895035 -0.120660
C140  C     C_R   0.999956 0.500009 0.104950 -0.119984
C141  C     C_R   0.500525 0.999929 0.104965 -0.120697
C142  C     C_3   0.468781 0.136247 0.395701 -0.412305
C143  C     C_3   0.386099 0.144730 0.401574 -0.331680
C144  C     C_3   0.368242 0.217571 0.418897 -0.857111
H1    H     H_    0.395048 0.220916 0.444532 0.272444
H2    H     H_    0.772338 0.312955 0.421967 0.246946
H3    H     H_    0.186840 0.727789 0.078039 0.246919
H4    H     H_    0.100251 0.726029 0.055849 0.272646
H5    H     H_    0.139531 0.644240 0.122920 0.215094
H6    H     H_    0.131561 0.603923 0.080902 0.246051
H7    H     H_    0.999081 0.638049 0.078147 0.193623
H8    H     H_    0.004820 0.685179 0.117512 0.197715
H9    H     H_    0.724245 0.896854 0.054949 0.272959
H10   H     H_    0.765987 0.889527 0.097187 0.258560
H11   H     H_    0.725536 0.810170 0.077088 0.246724
H12   H     H_    0.643405 0.858101 0.122369 0.214120
H13   H     H_    0.855896 0.360305 0.377096 0.215211
H14   H     H_    0.602359 0.866779 0.080564 0.246300
H15   H     H_    0.638200 0.998953 0.077804 0.193326
H16   H     H_    0.685692 0.992368 0.117020 0.197461
H17   H     H_    0.425142 0.151529 0.326574 0.189466
H18   H     H_    0.517318 0.166597 0.325428 0.185913
H19   H     H_    0.831860 0.523172 0.326630 0.188647
H20   H     H_    0.843263 0.430463 0.327663 0.191146
H21   H     H_    0.575554 0.874435 0.306801 0.190024
H22   H     H_    0.485759 0.849976 0.309038 0.204299
H23   H     H_    0.156704 0.569583 0.327598 0.191218
H24   H     H_    0.896157 0.368333 0.419117 0.246083
H25   H     H_    0.168101 0.476874 0.326547 0.188389
H26   H     H_    0.425011 0.848491 0.673442 0.189431
H27   H     H_    0.517189 0.833484 0.674603 0.185741
H28   H     H_    0.830235 0.480286 0.673127 0.189054
H29   H     H_    0.843181 0.572794 0.671866 0.189919
H30   H     H_    0.575346 0.125697 0.693162 0.189980
H31   H     H_    0.485539 0.150081 0.690952 0.204301
H32   H     H_    0.167284 0.520790 0.673793 0.187951
H33   H     H_    0.154238 0.428281 0.672758 0.191009
H34   H     H_    0.924448 0.625561 0.806829 0.189983
H35   H     H_    0.861957 0.500794 0.421875 0.193623
H36   H     H_    0.014217 0.650111 0.809040 0.204299
H37   H     H_    0.332676 0.020651 0.826211 0.187947
H38   H     H_    0.345770 0.928156 0.827259 0.191001
H39   H     H_    0.075155 0.348622 0.826546 0.189365
H40   H     H_    0.982997 0.333446 0.825423 0.185748
H41   H     H_    0.656755 0.072945 0.828123 0.189896
H42   H     H_    0.669752 0.980451 0.826867 0.189053
H43   H     H_    0.930518 0.343226 0.172388 0.191077
H44   H     H_    0.023232 0.331910 0.173414 0.188305
H45   H     H_    0.332736 0.979300 0.173875 0.187877
H46   H     H_    0.814836 0.495003 0.382519 0.198046
H47   H     H_    0.345788 0.071804 0.172804 0.190884
H48   H     H_    0.976619 0.668121 0.173400 0.188130
H49   H     H_    0.069335 0.656814 0.172357 0.191030
H50   H     H_    0.656782 0.927157 0.171827 0.189849
H51   H     H_    0.669817 0.019654 0.173028 0.188721
H52   H     H_    0.608064 0.780505 0.445636 0.271401
H53   H     H_    0.602637 0.730559 0.405331 0.263677
H54   H     H_    0.688785 0.768258 0.419561 0.246655
H55   H     H_    0.637021 0.845537 0.373434 0.232352
H56   H     H_    0.639137 0.894727 0.413693 0.234760
H57   H     H_    0.387061 0.263909 0.402587 0.258738
H58   H     H_    0.505765 0.863545 0.423247 0.182534
H59   H     H_    0.503091 0.815966 0.383667 0.215165
H60   H     H_    0.225962 0.600292 0.444105 0.272436
H61   H     H_    0.266886 0.607184 0.401660 0.258936
H62   H     H_    0.227671 0.686949 0.421948 0.247115
H63   H     H_    0.144172 0.639690 0.377058 0.215319
H64   H     H_    0.103847 0.631630 0.419081 0.246078
H65   H     H_    0.138039 0.499146 0.421808 0.193660
H66   H     H_    0.185149 0.504984 0.382431 0.197890
H67   H     H_    0.395314 0.778643 0.555626 0.272455
H68   H     H_    0.308156 0.222264 0.422569 0.246824
H69   H     H_    0.386997 0.736013 0.597643 0.258666
H70   H     H_    0.308264 0.777524 0.577492 0.246817
H71   H     H_    0.356397 0.858203 0.623389 0.214072
H72   H     H_    0.365655 0.900174 0.581787 0.246485
H73   H     H_    0.497767 0.861651 0.579142 0.194028
H74   H     H_    0.489827 0.815775 0.618769 0.196561
H75   H     H_    0.775395 0.602721 0.555101 0.272884
H76   H     H_    0.733882 0.610217 0.597396 0.258676
H77   H     H_    0.774179 0.689506 0.577149 0.246764
H78   H     H_    0.856555 0.641777 0.622364 0.214203
H79   H     H_    0.356459 0.141901 0.376601 0.214092
H80   H     H_    0.897403 0.633028 0.580504 0.246341
H81   H     H_    0.861791 0.500834 0.577871 0.193285
H82   H     H_    0.814314 0.507427 0.617110 0.197774
H83   H     H_    0.608018 0.219505 0.554311 0.271420
H84   H     H_    0.602464 0.269518 0.594595 0.263679
H85   H     H_    0.688667 0.231865 0.580395 0.246650
H86   H     H_    0.636844 0.154615 0.626538 0.232323
H87   H     H_    0.639047 0.105363 0.586296 0.234737
H88   H     H_    0.505677 0.136465 0.576732 0.182562
H89   H     H_    0.502926 0.184070 0.616305 0.215135
H90   H     H_    0.365566 0.099621 0.418136 0.246467
H91   H     H_    0.223225 0.397491 0.555632 0.272421
H92   H     H_    0.265200 0.390382 0.597828 0.259012
H93   H     H_    0.224894 0.310851 0.577814 0.246995
H94   H     H_    0.142856 0.358715 0.623188 0.214729
H95   H     H_    0.101562 0.367057 0.581411 0.246213
H96   H     H_    0.137747 0.499421 0.578521 0.193805
H97   H     H_    0.184404 0.492852 0.617965 0.197335
H98   H     H_    0.891744 0.719293 0.945705 0.271475
H99   H     H_    0.897245 0.769368 0.905433 0.263692
H100  H     H_    0.811079 0.731589 0.919628 0.246624
H101  H     H_    0.497691 0.138338 0.420887 0.194117
H102  H     H_    0.862962 0.654465 0.873463 0.232307
H103  H     H_    0.860812 0.605157 0.913693 0.234761
H104  H     H_    0.994164 0.636456 0.923256 0.182478
H105  H     H_    0.996847 0.684062 0.883681 0.215096
H106  H     H_    0.276828 0.897397 0.944407 0.272407
H107  H     H_    0.234814 0.890239 0.902221 0.259016
H108  H     H_    0.275157 0.810743 0.922241 0.246988
H109  H     H_    0.357139 0.858631 0.876839 0.214700
H110  H     H_    0.398472 0.867007 0.918605 0.246222
H111  H     H_    0.362246 0.999358 0.921484 0.193827
H112  H     H_    0.489837 0.184252 0.381269 0.196528
H113  H     H_    0.315582 0.992743 0.882045 0.197316
H114  H     H_    0.105213 0.279263 0.944527 0.272557
H115  H     H_    0.113262 0.236235 0.902592 0.258741
H116  H     H_    0.192121 0.277965 0.922542 0.246724
H117  H     H_    0.143784 0.358245 0.876565 0.213968
H118  H     H_    0.134606 0.400556 0.918090 0.246443
H119  H     H_    0.002507 0.361681 0.920876 0.194097
H120  H     H_    0.010452 0.315795 0.881255 0.196451
H121  H     H_    0.724445 0.102884 0.944939 0.272873
H122  H     H_    0.766062 0.110406 0.902665 0.258696
H123  H     H_    0.774005 0.399562 0.444162 0.272653
H124  H     H_    0.725696 0.189671 0.922887 0.246754
H125  H     H_    0.643442 0.141897 0.877629 0.214171
H126  H     H_    0.602495 0.133123 0.919467 0.246325
H127  H     H_    0.638203 0.000938 0.922121 0.193317
H128  H     H_    0.685672 0.007589 0.882881 0.197743
H129  H     H_    0.899743 0.273988 0.055882 0.272644
H130  H     H_    0.892916 0.233062 0.098323 0.258575
H131  H     H_    0.813115 0.272239 0.078072 0.246944
H132  H     H_    0.860365 0.355776 0.122952 0.215171
H133  H     H_    0.868390 0.396098 0.080931 0.246006
H134  H     H_    0.733133 0.392758 0.401719 0.258734
H135  H     H_    0.000874 0.361960 0.078164 0.193719
H136  H     H_    0.995078 0.314840 0.117535 0.197790
H137  H     H_    0.276830 0.102403 0.055659 0.272610
H138  H     H_    0.234775 0.109560 0.097852 0.258644
H139  H     H_    0.275091 0.189075 0.077809 0.246839
H140  H     H_    0.357059 0.141295 0.123205 0.214574
H141  H     H_    0.398436 0.132927 0.081432 0.246224
H142  H     H_    0.362252 0.000539 0.078582 0.193838
H143  H     H_    0.315601 0.007150 0.118044 0.197222
H144  H     H_    0.106998 0.766956 0.098288 0.258558
N1    N     N_R   0.549802 0.040342 0.267357 -0.156376
N2    N     N_R   0.549518 0.959195 0.766935 -0.159044
N3    N     N_R   0.950336 0.459662 0.767384 -0.156544
N4    N     N_R   0.453854 0.044292 0.767156 -0.162982
N5    N     N_R   0.045230 0.454755 0.232831 -0.161024
N6    N     N_R   0.549611 0.040900 0.233038 -0.158951
N7    N     N_R   0.954672 0.545288 0.232851 -0.161138
N8    N     N_R   0.453938 0.955780 0.232870 -0.162967
N9    N     N_3   0.475797 0.128910 0.320135 -0.446995
N10   N     N_3   0.867683 0.480188 0.321062 -0.451321
N11   N     N_3   0.531420 0.865608 0.323479 -0.470496
N12   N     N_R   0.045316 0.454832 0.267147 -0.160996
N13   N     N_3   0.132278 0.519865 0.321001 -0.451359
N14   N     N_3   0.475644 0.871148 0.679885 -0.447117
N15   N     N_3   0.866705 0.522760 0.678638 -0.454208
N16   N     N_3   0.531212 0.134480 0.676499 -0.470530
N17   N     N_3   0.130645 0.478438 0.679280 -0.448922
N18   N     N_3   0.968566 0.634425 0.823493 -0.470539
N19   N     N_3   0.369337 0.978330 0.820729 -0.448901
N20   N     N_3   0.024478 0.371184 0.820121 -0.447106
N21   N     N_3   0.633256 0.022891 0.821356 -0.454186
N22   N     N_3   0.980214 0.367696 0.178978 -0.451397
N23   N     N_R   0.454186 0.955164 0.267183 -0.188334
N24   N     N_3   0.369381 0.021655 0.179332 -0.448893
N25   N     N_3   0.019636 0.632340 0.178959 -0.451480
N26   N     N_3   0.633308 0.977228 0.178582 -0.454202
N27   N     N_R   0.954615 0.545221 0.267167 -0.161039
N28   N     N_R   0.549678 0.959748 0.732616 -0.156558
N29   N     N_R   0.046049 0.544368 0.732840 -0.162993
N30   N     N_R   0.454071 0.044903 0.732843 -0.188364
N31   N     N_R   0.950500 0.459109 0.733065 -0.159056
N32   N     N_R   0.045827 0.544981 0.767154 -0.188371
O1    O     O_R   0.560480 0.107240 0.500130 -0.618801
O2    O     O_R   0.392760 0.060480 0.000130 -0.618038
O3    O     O_R   0.939520 0.392760 0.000130 -0.618102
O4    O     O_R   0.607240 0.939520 0.000130 -0.618209
O5    O     O_R   0.060480 0.392760 0.999870 -0.618598
O6    O     O_R   0.392760 0.939520 0.999870 -0.618061
O7    O     O_R   0.939520 0.607240 0.999870 -0.618971
O8    O     O_R   0.607240 0.060480 0.999870 -0.618253
O9    O     O_R   0.560480 0.999920 0.449200 -0.622645
O10   O     O_R   0.000080 0.560480 0.449200 -0.627299
O11   O     O_R   0.439520 0.000080 0.449200 -0.626628
O12   O     O_R   0.892760 0.560480 0.500130 -0.618332
O13   O     O_R   0.999920 0.439520 0.449200 -0.627338
O14   O     O_R   0.560480 0.000080 0.550800 -0.622668
O15   O     O_R   0.000080 0.439520 0.550800 -0.627145
O16   O     O_R   0.439520 0.999920 0.550800 -0.626698
O17   O     O_R   0.999920 0.560480 0.550800 -0.627556
O18   O     O_R   0.060480 0.499920 0.949200 -0.626669
O19   O     O_R   0.500080 0.060480 0.949200 -0.627523
O20   O     O_R   0.939520 0.500080 0.949200 -0.622666
O21   O     O_R   0.499920 0.939520 0.949200 -0.627111
O22   O     O_R   0.060480 0.500080 0.050800 -0.627318
O23   O     O_R   0.439520 0.892760 0.500130 -0.617738
O24   O     O_R   0.500080 0.939520 0.050800 -0.627498
O25   O     O_R   0.939520 0.499920 0.050800 -0.627384
O26   O     O_R   0.499920 0.060480 0.050800 -0.627119
O27   O     O_R   0.392500 0.499870 0.471390 -0.623240
O28   O     O_R   0.500130 0.392500 0.471390 -0.623472
O29   O     O_R   0.607500 0.500130 0.471390 -0.623196
O30   O     O_R   0.499870 0.607500 0.471390 -0.623009
O31   O     O_R   0.392500 0.500130 0.528610 -0.623143
O32   O     O_R   0.500130 0.607500 0.528610 -0.623546
O33   O     O_R   0.607500 0.499870 0.528610 -0.623168
O34   O     O_R   0.107240 0.439520 0.500130 -0.618244
O35   O     O_R   0.499870 0.392500 0.528610 -0.623087
O36   O     O_R   0.892500 0.999870 0.971390 -0.623170
O37   O     O_R   0.000130 0.892500 0.971390 -0.622901
O38   O     O_R   0.107500 0.000130 0.971390 -0.623208
O39   O     O_R   0.999870 0.107500 0.971390 -0.623164
O40   O     O_R   0.892500 0.000130 0.028610 -0.623344
O41   O     O_R   0.000130 0.107500 0.028610 -0.623428
O42   O     O_R   0.107500 0.999870 0.028610 -0.623283
O43   O     O_R   0.999870 0.892500 0.028610 -0.623685
O44   O     O_R   0.560480 0.892760 0.499870 -0.618855
O45   O     O_R   0.892760 0.439520 0.499870 -0.618058
O46   O     O_R   0.439520 0.107240 0.499870 -0.617772
O47   O     O_R   0.107240 0.560480 0.499870 -0.617993
O48   O     O_R   0.060480 0.607240 0.000130 -0.617376
Zn1   Zn    Zn3+2 0.580810 1.000000 0.500000 0.942429
Zn2   Zn    Zn3+2 0.500000 0.500000 0.538260 0.948442
Zn3   Zn    Zn3+2 0.000000 1.000000 0.961740 0.948512
Zn4   Zn    Zn3+2 1.000000 1.000000 0.038260 0.947213
Zn5   Zn    Zn3+2 1.000000 0.580810 0.500000 0.938017
Zn6   Zn    Zn3+2 0.419190 1.000000 0.500000 0.938960
Zn7   Zn    Zn3+2 1.000000 0.419190 0.500000 0.938392
Zn8   Zn    Zn3+2 0.080810 0.500000 0.000000 0.938495
Zn9   Zn    Zn3+2 0.500000 0.080810 0.000000 0.937965
Zn10  Zn    Zn3+2 0.919190 0.500000 0.000000 0.940151
Zn11  Zn    Zn3+2 0.500000 0.919190 0.000000 0.938064
Zn12  Zn    Zn3+2 0.500000 0.500000 0.461740 0.948495

loop_
_geom_bond_atom_site_label_1
_geom_bond_atom_site_label_2
_ccdc_geom_bond_type
C51   H10   S    
H39   N20   S    
C19   C20   S    
H22   N11   S    
C66   C79   S    
C109  N20   S    
C16   H82   S    
C19   C87   S    
H50   N26   S    
C1    O46   A    
H27   N14   S    
C92   C109  A    
C40   H132  S    
O31   Zn2   S    
C143  C144  S    
C19   H89   S    
C94   C111  A    
C128  O30   A    
C32   H120  S    
H45   N24   S    
O38   Zn3   S    
C60   O21   A    
C49   H16   S    
H47   N24   S    
C11   H62   S    
C97   C115  A    
C126  O35   A    
C56   O16   A    
H51   N26   S    
C93   C110  A    
C96   C114  A    
O11   Zn6   S    
C28   H98   S    
O24   Zn11  S    
C87   C136  A    
C12   H74   S    
C26   H104  S    
C45   C47   S    
C21   H83   S    
C24   C120  S    
C61   O22   A    
C42   C95   S    
O34   Zn7   S    
C144  H1    S    
C78   C132  S    
C44   H139  S    
C33   H118  S    
C29   H113  S    
C4    H24   S    
C45   H7    S    
N29   N32   A    
O39   Zn3   S    
C43   C44   S    
C39   C94   S    
C37   C38   S    
C93   C139  A    
C26   H105  S    
C27   H103  S    
C25   H93   S    
C65   C68   S    
C30   H109  S    
C31   H107  S    
O19   Zn9   S    
C53   N1    A    
C42   H142  S    
C70   C112  S    
C40   H133  S    
C5    H123  S    
O27   Zn12  S    
C125  O31   A    
C105  C118  A    
C127  O29   A    
C107  C120  A    
C29   C91   S    
C41   H129  S    
O45   Zn7   S    
H19   N10   S    
O10   Zn5   S    
C1    C63   S    
C6    C83   S    
C2    N7    A    
H48   N25   S    
C4    C5    S    
C6    C7    S    
C69   C101  S    
O5    Zn8   S    
O12   Zn5   S    
C128  O32   A    
O28   Zn12  S    
C6    H59   S    
C32   C92   S    
C113  C124  A    
C61   O25   A    
C11   H60   S    
C29   H111  S    
C134  N8    A    
C24   N3    A    
C49   C97   S    
C20   C21   S    
C31   H106  S    
C89   C138  A    
O25   Zn10  S    
C22   C23   S    
C28   H100  S    
C22   H97   S    
C109  C120  A    
C84   C135  A    
C52   N27   A    
C54   O9    A    
C84   C102  A    
O41   Zn4   S    
C69   C77   T    
O29   Zn12  S    
O18   Zn8   S    
C15   H69   S    
C86   C104  A    
C7    C8    S    
C50   H14   S    
C34   H114  S    
C71   C123  S    
C36   C37   S    
H34   N18   S    
C110  C121  A    
O20   Zn10  S    
O17   Zn5   S    
C123  O8    A    
C82   C135  A    
C142  H112  S    
H40   N20   S    
C18   H77   S    
C10   H64   S    
O40   Zn4   S    
C76   C130  S    
O6    Zn11  S    
C111  N22   S    
C64   C73   T    
C8    H52   S    
C9    C10   S    
C41   H131  S    
C104  C119  A    
C52   C117  S    
C53   N23   A    
C13   N2    A    
C20   H87   S    
C111  C122  A    
C2    N5    A    
O32   Zn2   S    
C37   H125  S    
C56   C136  S    
C107  N18   S    
C88   C137  A    
H36   N18   S    
C34   H116  S    
O23   Zn6   S    
C39   C40   S    
O48   Zn8   S    
C23   H94   S    
C68   O44   A    
C59   C138  S    
C67   C90   S    
C65   C74   T    
O44   Zn1   S    
H43   N22   S    
C134  N6    A    
C29   C30   S    
C99   C117  A    
C13   C121  S    
C79   O34   A    
C4    H13   S    
C87   C105  A    
C47   H6    S    
C90   O48   A    
C9    H66   S    
H23   N13   S    
N8    N23   A    
C44   H138  S    
C17   C18   S    
C36   H128  S    
C14   H72   S    
C101  O2    A    
C100  N11   S    
C102  C117  A    
C81   C142  S    
C131  O42   A    
C55   O13   A    
C3    C4    S    
O3    Zn10  S    
C101  O6    A    
C51   H9    S    
C80   C129  S    
O1    Zn1   S    
C77   C131  S    
C5    H134  S    
O13   Zn7   S    
C85   C103  A    
H21   N11   S    
N3    N31   A    
C61   C140  S    
C81   C133  A    
C83   C100  A    
C124  C134  S    
C52   N12   A    
N5    N12   A    
C125  O27   A    
H44   N22   S    
C10   C11   S    
C85   C136  A    
C144  H57   S    
C112  O5    A    
C59   O20   A    
C13   N4    A    
C49   C50   S    
C14   C15   S    
C49   H15   S    
C11   H61   S    
C98   N9    S    
O30   Zn12  S    
N2    N28   A    
C106  C119  A    
C94   C140  A    
C82   C99   A    
C100  C116  A    
C108  C121  A    
C92   C138  A    
O46   Zn6   S    
O35   Zn2   S    
C114  N25   S    
C26   C27   S    
C58   O15   A    
H42   N21   S    
C143  H90   S    
C38   H121  S    
C30   C31   S    
C81   C98   A    
C48   H3    S    
C33   H117  S    
H38   N19   S    
C46   C118  S    
C7    H56   S    
C115  N26   S    
O7    Zn10  S    
C86   C137  A    
C8    H54   S    
C103  N14   S    
C25   H92   S    
C16   C17   S    
C30   H110  S    
C22   C88   S    
C19   H88   S    
C42   H143  S    
C79   O47   A    
C18   H76   S    
C16   C86   S    
O36   Zn3   S    
N4    N30   A    
C62   O26   A    
C22   H96   S    
C2    C122  S    
C123  O4    A    
C16   H81   S    
C20   H86   S    
C132  O39   A    
C130  O43   A    
H26   N14   S    
C3    H46   S    
C35   N31   A    
C73   C127  S    
C54   C133  S    
C54   O11   A    
C72   C126  S    
C75   C125  S    
C32   H119  S    
C96   C140  A    
C23   H95   S    
H28   N15   S    
C142  H101  S    
C21   H85   S    
C89   C107  A    
H41   N21   S    
C50   C51   S    
C97   C141  A    
H18   N9    S    
C46   N30   A    
C91   C139  A    
C129  O36   A    
C126  O28   A    
C95   C141  A    
C104  N15   S    
O37   Zn3   S    
O26   Zn9   S    
C103  C118  A    
C42   C43   S    
C12   H73   S    
C144  H68   S    
C21   H84   S    
C115  C124  A    
C130  O37   A    
C55   O10   A    
C91   C108  A    
C57   O45   A    
C1    O1    A    
N1    N6    A    
C45   H8    S    
C32   C33   S    
C102  N13   S    
C48   H144  S    
C66   C75   T    
C131  O38   A    
H32   N17   S    
C31   H108  S    
O21   Zn11  S    
H49   N25   S    
O43   Zn4   S    
C9    C84   S    
C43   H140  S    
C39   H135  S    
C63   C72   T    
C17   H80   S    
C142  C143  S    
H25   N13   S    
O33   Zn2   S    
C62   O24   A    
C41   H130  S    
O8    Zn9   S    
C70   C78   T    
C132  O41   A    
C35   C119  S    
H17   N9    S    
C35   N29   A    
C26   C89   S    
C12   C85   S    
C6    H58   S    
C143  H79   S    
H37   N19   S    
O9    Zn1   S    
C38   H124  S    
C3    H35   S    
C17   H78   S    
C46   N28   A    
C74   C128  S    
C47   H5    S    
C108  N19   S    
C50   H12   S    
O15   Zn7   S    
C34   H115  S    
C15   H67   S    
C59   O18   A    
C90   O7    A    
C28   H99   S    
H20   N10   S    
C53   C116  S    
C8    H53   S    
C15   H70   S    
C18   H75   S    
C39   H136  S    
O4    Zn11  S    
C71   C80   T    
O16   Zn6   S    
C113  N24   S    
C51   H11   S    
C27   H102  S    
C9    H65   S    
C68   O23   A    
C110  N21   S    
O42   Zn4   S    
C105  N16   S    
C114  C122  A    
C10   H63   S    
C88   C106  A    
C106  N17   S    
C98   C116  A    
C47   C48   S    
N7    N27   A    
C3    C82   S    
C33   C34   S    
O2    Zn9   S    
C58   C137  S    
C40   C41   S    
C12   C14   S    
H29   N15   S    
C60   O19   A    
H30   N16   S    
C37   H126  S    
C62   C141  S    
C56   O14   A    
C57   O12   A    
C57   C64   S    
C127  O33   A    
C5    H2    S    
C36   C93   S    
C112  O3    A    
H31   N16   S    
O47   Zn5   S    
C38   H122  S    
C24   N32   A    
C99   N10   S    
C129  O40   A    
C95   C113  A    
C55   C135  S    
C44   H137  S    
C48   H4    S    
C36   H127  S    
C14   H71   S    
H33   N17   S    
C23   C25   S    
C7    H55   S    
C83   C133  A    
C60   C139  S    
O14   Zn1   S    
C25   H91   S    
C58   O17   A    
C27   C28   S    
O22   Zn8   S    
C67   C76   T    
C45   C96   S    
C43   H141  S    
