data_mof_unit_39828.cif
_audit_creation_date              2012-12-10T17:50:32-0500
_audit_creation_method            fapswitch 2.2
_symmetry_space_group_name_H-M    P1
_symmetry_Int_Tables_number       1
_space_group_crystal_system       triclinic
_cell_length_a                    15.714741
_cell_length_b                    10.660532
_cell_length_c                    9.941739
_cell_angle_alpha                 91.918759
_cell_angle_beta                  88.841148
_cell_angle_gamma                 93.650297
_cell_volume                      1660.9304392

loop_
_atom_site_label
_atom_site_type_symbol
_atom_type_description
_atom_site_fract_x
_atom_site_fract_y
_atom_site_fract_z
_atom_type_partial_charge
C1    C     C_R   0.506712 0.260945 0.497843 0.948555
C2    C     C_R   0.582547 0.089493 0.847071 0.161470
C3    C     C_R   0.538708 0.972143 0.872628 0.393094
C4    C     C_R   0.338140 0.498534 0.501205 0.896426
C5    C     C_R   0.496919 0.904892 0.766068 0.345594
C6    C     C_R   0.506652 0.946154 0.631143 -0.204691
C7    C     C_R   0.538775 0.068949 0.612293 -0.040912
C8    C     C_R   0.514905 0.127912 0.494762 -0.009051
C9    C     C_R   0.479375 0.058628 0.386077 -0.264759
C10   C     C_R   0.466838 0.930955 0.393650 -0.240855
C11   C     C_R   0.483758 0.873116 0.513166 -0.044224
C12   C     C_3   0.083326 0.492381 0.502574 -0.011570
C13   C     C_R   0.397809 0.322400 0.144808 -0.138566
C14   C     C_R   0.352237 0.223956 0.081676 -0.252799
C15   C     C_R   0.349509 0.217838 0.944171 -0.260202
C16   C     C_R   0.493295 0.739576 0.503634 0.856387
C17   C     C_R   0.390911 0.312382 0.866692 0.485758
C18   C     C_R   0.447757 0.408992 0.928286 0.074439
C19   C     C_R   0.449130 0.411017 0.073083 0.107050
C20   C     C_R   0.549293 0.584322 0.072460 -0.084531
C21   C     C_R   0.549174 0.584411 0.929679 -0.047687
C22   C     C_R   0.662018 0.501592 0.498731 0.923025
C23   C     C_3   0.979726 0.620910 0.519727 -0.463335
C24   C     C_3   0.963655 0.425559 0.595564 -0.276847
C25   C     C_3   0.020719 0.377198 0.477250 -0.347035
C26   C     C_1   0.249261 0.493766 0.504162 -0.193102
C27   C     C_1   0.751158 0.504063 0.495383 -0.164688
C28   C     C_3   0.026935 0.540744 0.617897 0.512781
C29   C     C_3   0.592675 0.941858 0.091511 0.177815
C30   C     C_3   0.679478 0.902679 0.035059 -0.420799
C31   C     C_3   0.743872 0.900378 0.147721 -0.914742
C32   C     C_3   0.353777 0.843178 0.773174 0.179577
C33   C     C_3   0.291941 0.798518 0.885009 -0.403569
C34   C     C_3   0.917469 0.504368 0.495091 0.054392
C35   C     C_3   0.281923 0.655388 0.889321 -0.697056
C36   C     C_3   0.120140 0.748575 0.349972 0.083126
C37   C     C_3   0.191573 0.789723 0.251272 -0.329711
C38   C     C_3   0.241686 0.908391 0.302756 -0.996399
C39   C     C_3   0.995023 0.621055 0.829110 0.074274
C40   C     C_3   0.033284 0.682241 0.957058 -0.312043
C41   C     C_3   0.964121 0.734438 0.048845 -0.898488
C42   C     C_3   0.036570 0.570123 0.404373 0.420053
C43   C     C_3   0.973667 0.456841 0.379671 0.490361
C44   C     C_1   0.173961 0.490904 0.505187 0.013871
C45   C     C_1   0.826596 0.505426 0.493511 0.033651
C46   C     C_R   0.588842 0.131528 0.713543 0.299734
H1    H     H_    0.038686 0.279086 0.458030 0.171600
H2    H     H_    0.460415 0.102883 0.295836 0.182615
H3    H     H_    0.575809 0.880301 0.176947 0.151932
H4    H     H_    0.596775 0.038164 0.137424 0.211859
H5    H     H_    0.672274 0.807931 0.986044 0.200333
H6    H     H_    0.705554 0.969330 0.959112 0.245570
H7    H     H_    0.751843 0.994320 0.199348 0.280246
H8    H     H_    0.806465 0.875647 0.104990 0.265501
H9    H     H_    0.722396 0.829133 0.222252 0.259250
H10   H     H_    0.333322 0.798684 0.675348 0.123097
H11   H     H_    0.348606 0.946876 0.766805 0.058511
H12   H     H_    0.443903 0.877236 0.305746 0.188033
H13   H     H_    0.315150 0.837517 0.983666 0.236541
H14   H     H_    0.228514 0.835007 0.867927 0.163859
H15   H     H_    0.256877 0.614956 0.792515 0.267677
H16   H     H_    0.236353 0.627524 0.971391 0.219163
H17   H     H_    0.344100 0.616698 0.909214 0.277127
H18   H     H_    0.329890 0.239899 0.709397 0.299431
H19   H     H_    0.993933 0.394474 0.199667 0.334594
H20   H     H_    0.149208 0.736345 0.449735 0.142483
H21   H     H_    0.074180 0.823555 0.360960 0.144297
H22   H     H_    0.235909 0.712963 0.236710 0.236892
H23   H     H_    0.590045 0.652840 0.127120 0.144980
H24   H     H_    0.164002 0.808050 0.152341 0.221059
H25   H     H_    0.199117 0.987391 0.315342 0.264669
H26   H     H_    0.293206 0.934928 0.229131 0.264363
H27   H     H_    0.271089 0.891643 0.400739 0.265201
H28   H     H_    0.952454 0.538128 0.857054 0.151835
H29   H     H_    0.956785 0.691168 0.780948 0.138363
H30   H     H_    0.067455 0.611913 0.011660 0.253743
H31   H     H_    0.079730 0.760577 0.929611 0.210980
H32   H     H_    0.928910 0.803406 0.994274 0.238364
H33   H     H_    0.993451 0.783459 0.138159 0.281303
H34   H     H_    0.390114 0.326392 0.250792 0.212854
H35   H     H_    0.918895 0.657162 0.083111 0.291549
H36   H     H_    0.691065 0.240838 0.744775 0.341784
H37   H     H_    0.613014 0.255161 0.926856 0.353136
H38   H     H_    0.315497 0.155026 0.140153 0.164778
H39   H     H_    0.309199 0.142978 0.897805 0.130707
H40   H     H_    0.589247 0.653191 0.876635 0.137449
H41   H     H_    0.931922 0.367803 0.675227 0.159983
H42   H     H_    0.961819 0.719382 0.536186 0.153909
N1    N     N_R   0.499210 0.498800 0.142780 -0.114358
N2    N     N_R   0.499180 0.498720 0.857170 -0.104566
O1    O     O_R   0.500000 0.316780 0.614690 -0.529642
O2    O     O_3   0.437308 0.809370 0.801289 -0.555988
O3    O     O_3   0.368261 0.314024 0.735137 -0.733118
O4    O     O_3   0.942847 0.415638 0.253797 -0.753550
O5    O     O_3   0.077371 0.637054 0.298598 -0.648081
O6    O     O_3   0.061443 0.583273 0.742389 -0.641786
O7    O     O_3   0.644948 0.230679 0.678057 -0.759528
O8    O     O_3   0.611681 0.166199 0.953173 -0.783956
O9    O     O_R   0.499990 0.316750 0.385360 -0.664154
O10   O     O_R   0.376780 0.500000 0.614650 -0.539672
O11   O     O_R   0.376770 0.499980 0.385310 -0.648861
O12   O     O_R   0.500010 0.683250 0.614640 -0.578638
O13   O     O_R   0.500000 0.683220 0.385310 -0.633328
O14   O     O_R   0.623230 0.500020 0.614690 -0.600810
O15   O     O_R   0.623220 0.500000 0.385350 -0.608746
O16   O     O_3   0.524004 0.924395 0.000733 -0.623311
Zn1   Zn    Zn3+2 0.500010 0.500020 0.653130 1.020212
Zn2   Zn    Zn3+2 0.499990 0.499980 0.346870 0.946495

loop_
_geom_bond_atom_site_label_1
_geom_bond_atom_site_label_2
_ccdc_geom_bond_type
C30   H5    S    
C1    C8    S    
C14   H38   S    
C1    O9    A    
C36   H21   S    
C26   C44   T    
C7    C8    A    
C29   H3    S    
C2    C46   A    
O9    Zn2   S    
C29   C30   S    
C23   C42   S    
C12   C28   S    
C36   C37   S    
C10   H12   S    
H18   O3    S    
C30   C31   S    
C36   H20   S    
C37   H22   S    
C43   O4    S    
C22   O14   A    
C18   C19   A    
C39   H28   S    
C12   C42   S    
C38   H25   S    
C8    C9    A    
H37   O8    S    
O13   Zn2   S    
C39   H29   S    
C9    C10   A    
C25   H1    S    
C15   H39   S    
C27   C45   T    
O11   Zn2   S    
C13   H34   S    
C33   H13   S    
C13   C14   A    
C25   C43   S    
C32   H11   S    
C29   H4    S    
C3    O16   S    
O15   Zn2   S    
C38   H26   S    
C13   C19   A    
C42   O5    S    
C18   N2    A    
C7    C46   A    
O1    Zn1   S    
C24   C25   S    
C41   H32   S    
C24   C34   S    
C40   H30   S    
C41   H33   S    
C37   C38   S    
C19   N1    A    
C11   C16   S    
C16   O13   A    
C23   C34   S    
C41   H35   S    
C4    O11   A    
C17   C18   A    
O12   Zn1   S    
C35   H15   S    
C34   C45   S    
C23   C28   S    
C31   H7    S    
C16   O12   A    
C40   C41   S    
C46   O7    S    
C33   H14   S    
C23   H42   S    
C4    O10   A    
C22   C27   S    
H36   O7    S    
C29   O16   S    
C17   O3    S    
C42   C43   S    
C6    C11   A    
C15   C17   A    
C30   H6    S    
C21   H40   S    
H19   O4    S    
O10   Zn1   S    
C14   C15   A    
C34   C43   S    
C24   C28   S    
C3    C5    A    
N2    Zn1   S    
C4    C26   S    
C6    C7    A    
C22   O15   A    
C20   N1    A    
C12   C25   S    
C28   O6    S    
C32   C33   S    
C2    C3    A    
C12   C44   S    
C36   O5    S    
C5    C6    A    
N1    Zn2   S    
C33   C35   S    
C35   H16   S    
C31   H8    S    
C20   H23   S    
C24   H41   S    
C39   O6    S    
C21   N2    A    
C5    O2    S    
C10   C11   A    
C32   O2    S    
C39   C40   S    
C20   C21   A    
C2    O8    S    
C9    H2    S    
C1    O1    A    
C40   H31   S    
C35   H17   S    
C31   H9    S    
C37   H24   S    
C32   H10   S    
O14   Zn1   S    
C38   H27   S    
