data_mof_unit_60342.cif
_audit_creation_date              2012-12-10T19:16:33-0500
_audit_creation_method            fapswitch 2.2
_symmetry_space_group_name_H-M    P1
_symmetry_Int_Tables_number       1
_space_group_crystal_system       triclinic
_cell_length_a                    13.923499
_cell_length_b                    14.775415
_cell_length_c                    16.007701
_cell_angle_alpha                 90.043433
_cell_angle_beta                  89.975335
_cell_angle_gamma                 84.799198
_cell_volume                      3279.63290985

loop_
_atom_site_label
_atom_site_type_symbol
_atom_type_description
_atom_site_fract_x
_atom_site_fract_y
_atom_site_fract_z
_atom_type_partial_charge
C1    C     C_R   0.499977 0.500057 0.659118 0.822769
C2    C     C_R   0.500035 0.499944 0.340881 0.821856
C3    C     C_1   0.500190 0.500185 0.748159 -0.164893
C4    C     C_1   0.500320 0.499791 0.251841 -0.168978
C5    C     C_R   0.447511 0.053072 0.440577 -0.244225
C6    C     C_R   0.552943 0.946888 0.559120 -0.244363
C7    C     C_R   0.500884 0.097049 0.500475 0.006339
C8    C     C_R   0.499664 0.902903 0.499159 0.007097
C9    C     C_R   0.554285 0.042954 0.560226 0.190934
C10   C     C_R   0.446590 0.956970 0.439190 0.190210
C11   C     C_1   0.500308 0.197325 0.500139 0.172797
C12   C     C_1   0.499869 0.802660 0.499743 0.172069
C13   C     C_R   0.683358 0.485407 0.499968 0.818907
C14   C     C_R   0.316641 0.514593 0.500032 0.823666
C15   C     C_1   0.213854 0.523646 0.500091 -0.161576
C16   C     C_1   0.786146 0.476349 0.499907 -0.168748
C17   C     C_2   0.023475 0.537820 0.500224 0.159802
C18   C     C_2   0.976524 0.462168 0.499766 0.159397
C19   C     C_1   0.872706 0.469187 0.499843 -0.003381
C20   C     C_1   0.127293 0.530804 0.500152 0.001382
C21   C     C_R   0.513775 0.416425 0.043002 0.177936
C22   C     C_R   0.488978 0.583634 0.956998 0.177801
C23   C     C_R   0.501289 0.498894 0.087287 0.103801
C24   C     C_R   0.500917 0.501139 0.912713 0.102588
C25   C     C_R   0.488986 0.581728 0.044596 -0.263761
C26   C     C_R   0.513187 0.418303 0.955404 -0.262008
C27   C     C_1   0.500692 0.499468 0.176856 -0.015970
C28   C     C_1   0.500470 0.500519 0.823144 -0.013710
Cu1   Cu    Cu3+1 0.499970 0.410780 0.500000 0.990855
Cu2   Cu    Cu3+1 0.500030 0.589220 0.500000 0.990207
H1    H     H_    0.522403 0.355274 0.920390 0.149862
H2    H     H_    0.479532 0.644747 0.079611 0.146620
H3    H     H_    0.406405 0.093862 0.394468 0.142770
H4    H     H_    0.593930 0.906107 0.605309 0.140448
N1    N     N_1   0.499970 0.723290 0.500020 -0.152224
N2    N     N_1   0.500030 0.276710 0.499980 -0.152097
O1    O     O_R   0.499950 0.424680 0.619690 -0.566595
O2    O     O_R   0.500050 0.575320 0.380310 -0.571908
O3    O     O_R   0.500000 0.575360 0.619690 -0.568548
O4    O     O_R   0.500000 0.424640 0.380310 -0.568304
O5    O     O_R   0.637820 0.414010 0.499980 -0.574894
O6    O     O_R   0.362180 0.585990 0.500020 -0.568179
O7    O     O_R   0.637870 0.564690 0.499980 -0.565908
O8    O     O_R   0.362130 0.435310 0.500020 -0.563289
N3    N     N_3   0.028742 0.373822 0.499189 -0.591316
H5    H     H_    0.007552 0.339218 0.446265 0.219584
H6    H     H_    0.007570 0.338492 0.551654 0.220501
N4    N     N_3   0.971256 0.626167 0.500787 -0.593129
H7    H     H_    0.992427 0.660775 0.553715 0.220911
H8    H     H_    0.992447 0.661493 0.448325 0.221185
N5    N     N_3   0.526078 0.331518 0.087221 -0.577755
H9    H     H_    0.529454 0.277018 0.045291 0.214889
H10   H     H_    0.592920 0.328448 0.117322 0.215919
N6    N     N_3   0.476105 0.668514 0.912779 -0.576283
H11   H     H_    0.463426 0.722580 0.954715 0.214577
H12   H     H_    0.541104 0.677743 0.882600 0.216476
N7    N     N_3   0.391222 0.914074 0.377344 -0.584218
H13   H     H_    0.439888 0.877166 0.337613 0.213102
H14   H     H_    0.352537 0.962984 0.340358 0.216143
N8    N     N_3   0.609224 0.085886 0.622358 -0.585083
H15   H     H_    0.665967 0.113727 0.591701 0.213119
H16   H     H_    0.640660 0.037600 0.664185 0.214824

loop_
_geom_bond_atom_site_label_1
_geom_bond_atom_site_label_2
_ccdc_geom_bond_type
C2    C4    S    
C21   C26   A    
Cu1   Cu2   S    
C23   C27   S    
C24   C28   S    
C2    O2    A    
C14   O8    A    
C17   N4    S    
C1    O1    A    
C8    C12   S    
C9    N8    S    
C7    C9    A    
C4    C27   T    
C25   H2    S    
N4    H8    S    
C17   C18   D    
C26   H1    S    
C22   N6    S    
N3    H5    S    
C12   N1    T    
C7    C11   S    
Cu1   N2    S    
N7    H13   S    
Cu2   N1    S    
C6    C9    A    
C16   C19   T    
Cu1   O4    S    
C13   O5    A    
N4    H7    S    
C24   C26   A    
Cu2   O3    S    
N6    H12   S    
C10   N7    S    
N3    H6    S    
Cu1   O8    S    
N8    H16   S    
C15   C20   T    
C22   C24   A    
Cu2   O7    S    
N7    H14   S    
C21   N5    S    
C1    O3    A    
N5    H10   S    
C5    C10   A    
N5    H9    S    
C18   N3    S    
C2    O4    A    
C13   O7    A    
C17   C20   S    
Cu2   O2    S    
C8    C10   A    
C18   C19   S    
C13   C16   S    
Cu1   O1    S    
C5    C7    A    
C14   C15   S    
C3    C28   T    
C6    C8    A    
Cu1   O5    S    
C23   C25   A    
N6    H11   S    
C14   O6    A    
C21   C23   A    
Cu2   O6    S    
C6    H4    S    
C5    H3    S    
N8    H15   S    
C1    C3    S    
C22   C25   A    
C11   N2    T    
