data_mof_unit_22144.cif
_audit_creation_date              2012-10-26T19:17:54-0400
_audit_creation_method            fapswitch 2.2
_symmetry_space_group_name_H-M    P1
_symmetry_Int_Tables_number       1
_space_group_crystal_system       triclinic
_cell_length_a                    10.872236
_cell_length_b                    12.322588
_cell_length_c                    13.53633
_cell_angle_alpha                 117.514847
_cell_angle_beta                  77.876289
_cell_angle_gamma                 100.508506
_cell_volume                      1564.88241653

loop_
_atom_site_label
_atom_site_type_symbol
_atom_type_description
_atom_site_fract_x
_atom_site_fract_y
_atom_site_fract_z
_atom_type_partial_charge
Br1   Br    Br    0.545949 0.208982 0.112895 -0.630201
Br2   Br    Br    0.258888 0.527528 0.876280 -0.474429
Br3   Br    Br    0.273303 0.633342 0.340436 -0.394333
Br4   Br    Br    0.350684 0.332290 0.591800 -0.387014
Br5   Br    Br    0.231892 0.893761 0.735757 -0.471275
Br6   Br    Br    0.939436 0.655688 0.464256 -0.457279
Br7   Br    Br    0.072626 0.340892 0.499104 -0.392367
C1    C     C_R   0.502738 0.853637 0.289068 0.535511
C2    C     C_R   0.194350 0.237005 0.271925 -0.075704
C3    C     C_R   0.242149 0.144477 0.169750 -0.093412
C4    C     C_R   0.736252 0.000857 0.503554 0.526644
C5    C     C_R   0.258811 0.031585 0.163012 -0.085103
C6    C     C_R   0.221879 0.008439 0.257325 -0.103202
C7    C     C_R   0.165382 0.097746 0.358937 0.063219
C8    C     C_R   0.492356 0.267383 0.021200 0.135546
C9    C     C_R   0.477239 0.229973 0.832181 -0.012291
C10   C     C_R   0.470168 0.812251 0.097268 -0.171538
C11   C     C_R   0.422685 0.735675 0.996448 -0.129237
C12   C     C_R   0.684854 0.773011 0.761875 -0.137664
C13   C     C_R   0.393340 0.609862 0.964994 0.140314
C14   C     C_R   0.425822 0.558831 0.028862 0.039817
C15   C     C_R   0.436720 0.638065 0.142506 0.026206
C16   C     C_R   0.484563 0.146066 0.712153 0.565365
C17   C     C_R   0.443814 0.432676 0.986737 0.014007
C18   C     C_R   0.459955 0.387849 0.062545 0.028338
C19   C     C_R   0.434248 0.462018 0.177996 -0.098481
C20   C     C_R   0.408840 0.582696 0.216879 0.157422
C21   C     C_R   0.457401 0.353092 0.871144 -0.089379
C22   C     C_R   0.495018 0.188171 0.907482 -0.093386
C23   C     C_R   0.041558 0.949373 0.558927 -0.073078
C24   C     C_R   0.470712 0.767015 0.175198 -0.002802
C25   C     C_R   0.708093 0.344316 0.333310 -0.076406
C26   C     C_R   0.344437 0.767729 0.657142 0.340333
C27   C     C_R   0.347227 0.694481 0.708991 -0.084385
C28   C     C_R   0.263203 0.999657 0.497425 0.574118
C29   C     C_R   0.424128 0.599820 0.657531 -0.107107
C30   C     C_R   0.485274 0.566399 0.547296 0.006130
C31   C     C_R   0.499616 0.655680 0.506474 0.166293
C32   C     C_R   0.544287 0.454881 0.482593 -0.002642
C33   C     C_R   0.639725 0.447372 0.391757 0.029275
C34   C     C_R   0.129253 0.002268 0.497706 0.022866
C35   C     C_R   0.664994 0.542519 0.359697 -0.127808
C36   C     C_R   0.595311 0.643901 0.414994 -0.088677
C37   C     C_R   0.507354 0.347368 0.499465 0.297038
C38   C     C_R   0.674641 0.244961 0.359257 0.067877
C39   C     C_R   0.679911 0.897292 0.793807 -0.109421
C40   C     C_R   0.750372 0.952242 0.726634 -0.074358
C41   C     C_R   0.827689 0.882894 0.627000 0.054424
C42   C     C_R   0.833152 0.757125 0.595981 0.190578
C43   C     C_R   0.760757 0.703048 0.663092 -0.066446
C44   C     C_R   0.085653 0.055889 0.440429 0.012635
C45   C     C_R   0.956304 0.053622 0.446138 -0.101336
C46   C     C_R   0.869200 0.000242 0.506487 0.005374
C47   C     C_R   0.912064 0.944956 0.562595 -0.008368
C48   C     C_R   0.154390 0.214347 0.366367 0.204067
Cu1   Cu    Cu3+1 0.529370 0.098270 0.475420 1.033423
Cu2   Cu    Cu3+1 0.470630 0.901730 0.524580 1.034489
H1    H     H_    0.630438 0.730913 0.814109 0.122308
H2    H     H_    0.738242 0.537918 0.290175 0.164103
H3    H     H_    0.785112 0.339580 0.266447 0.155553
H4    H     H_    0.439852 0.556221 0.706122 0.172699
H5    H     H_    0.292566 0.713612 0.790767 0.170852
H6    H     H_    0.623927 0.712797 0.386121 0.185323
H7    H     H_    0.747110 0.049351 0.753517 0.123595
H8    H     H_    0.764247 0.606700 0.639213 0.158198
H9    H     H_    0.073565 0.909422 0.604031 0.210185
H10   H     H_    0.923216 0.089244 0.397565 0.148460
H11   H     H_    0.182907 0.324654 0.276317 0.176633
H12   H     H_    0.266079 0.160210 0.095444 0.164552
H13   H     H_    0.295791 0.960465 0.083262 0.138849
H14   H     H_    0.227470 0.917383 0.248403 0.131449
H15   H     H_    0.514996 0.094550 0.877198 0.147652
H16   H     H_    0.420207 0.423175 0.237256 0.180460
H17   H     H_    0.454640 0.386398 0.810631 0.186909
H18   H     H_    0.494202 0.909056 0.118928 0.168164
H19   H     H_    0.402347 0.775600 0.946117 0.122173
H20   H     H_    0.622991 0.951026 0.871907 0.143451
H21   H     H_    0.727079 0.165065 0.314273 0.138186
N1    N     N_R   0.573890 0.246290 0.438210 -0.232044
N2    N     N_R   0.426890 0.754320 0.561170 -0.209900
O1    O     O_R   0.536940 0.972510 0.318130 -0.509474
O2    O     O_R   0.487330 0.806530 0.359650 -0.506011
O3    O     O_R   0.705160 0.082990 0.479250 -0.511554
O4    O     O_R   0.655550 0.917010 0.520760 -0.533993
O5    O     O_R   0.512670 0.193470 0.640350 -0.479906
O6    O     O_R   0.463060 0.027490 0.681870 -0.484882
O7    O     O_R   0.344450 0.082990 0.479240 -0.455534
O8    O     O_R   0.294840 0.917010 0.520750 -0.438642

loop_
_geom_bond_atom_site_label_1
_geom_bond_atom_site_label_2
_ccdc_geom_bond_type
C9    C21   A    
C25   C38   A    
Br7   C48   S    
C21   H17   S    
C12   C39   A    
C36   H6    S    
Cu1   O1    S    
C46   C47   A    
Cu2   O6    S    
C41   C47   S    
C23   C47   A    
C19   C20   A    
Cu1   N1    S    
C1    O2    A    
C29   C30   A    
C8    C18   A    
C27   H5    S    
C19   H16   S    
Cu1   Cu2   S    
C28   O7    A    
C7    C44   S    
C16   O6    A    
Br5   C26   S    
C23   C34   A    
C38   H21   S    
Br1   C8    S    
C2    C3    A    
C27   C29   A    
C4    C46   S    
C22   H15   S    
C33   C35   A    
C7    C48   A    
C14   C15   A    
Cu2   N2    S    
C8    C22   A    
C12   H1    S    
C15   C24   A    
Br2   C13   S    
C1    O1    A    
C17   C18   A    
C40   H7    S    
Cu1   O7    S    
Br4   C37   S    
C4    O3    A    
C9    C22   A    
C44   C45   A    
C30   C31   A    
C28   O8    A    
C40   C41   A    
C10   C11   A    
Cu2   O4    S    
C38   N1    A    
C13   C14   A    
C23   H9    S    
C45   H10   S    
C3    C5    A    
C2    C48   A    
C41   C42   A    
C9    C16   S    
C15   C20   A    
C10   C24   A    
C35   C36   A    
C25   H3    S    
C29   H4    S    
C32   C33   A    
C45   C46   A    
Cu1   O3    S    
C5    H13   S    
C39   C40   A    
C11   H19   S    
C1    C24   S    
C37   N1    A    
C17   C21   A    
C35   H2    S    
C39   H20   S    
C26   N2    A    
C32   C37   A    
C4    O4    A    
C6    H14   S    
Cu2   O8    S    
Br3   C20   S    
C18   C19   A    
C2    H11   S    
C31   C36   A    
C30   C32   A    
C12   C43   A    
Cu1   O5    S    
C31   N2    A    
C26   C27   A    
C11   C13   A    
C25   C33   A    
Br6   C42   S    
C28   C34   S    
C43   H8    S    
C3    H12   S    
C5    C6    A    
C42   C43   A    
C16   O5    A    
C14   C17   A    
C10   H18   S    
Cu2   O2    S    
C6    C7    A    
C34   C44   A    
