data_mof_unit_5150.cif
_audit_creation_date              2012-10-26T19:17:56-0400
_audit_creation_method            fapswitch 2.2
_symmetry_space_group_name_H-M    P1
_symmetry_Int_Tables_number       1
_space_group_crystal_system       triclinic
_cell_length_a                    10.844586
_cell_length_b                    12.301695
_cell_length_c                    13.196422
_cell_angle_alpha                 116.264779
_cell_angle_beta                  77.979869
_cell_angle_gamma                 101.028006
_cell_volume                      1534.22797849

loop_
_atom_site_label
_atom_site_type_symbol
_atom_type_description
_atom_site_fract_x
_atom_site_fract_y
_atom_site_fract_z
_atom_type_partial_charge
C1    C     C_R   0.511129 0.854695 0.286747 0.544484
C2    C     C_R   0.237866 0.349580 0.404027 -0.116999
C3    C     C_R   0.321587 0.302412 0.303407 -0.103461
C4    C     C_R   0.737024 0.000459 0.502283 0.552791
C5    C     C_R   0.328728 0.177012 0.246863 -0.083491
C6    C     C_R   0.251579 0.097641 0.290328 0.050993
C7    C     C_R   0.172917 0.145788 0.396502 0.037783
C8    C     C_R   0.310462 0.275199 0.009080 -0.012722
C9    C     C_R   0.454906 0.225832 0.833294 0.004747
C10   C     C_R   0.622391 0.808441 0.093821 -0.106941
C11   C     C_R   0.668317 0.724744 0.987282 -0.127070
C12   C     C_R   0.657737 0.748527 0.738213 -0.126580
C13   C     C_R   0.620274 0.602534 0.949565 -0.107625
C14   C     C_R   0.518809 0.561049 0.015900 0.033963
C15   C     C_R   0.465595 0.648742 0.122631 0.023379
C16   C     C_R   0.482041 0.144698 0.712998 0.555983
C17   C     C_R   0.467429 0.435628 0.978401 0.020797
C18   C     C_R   0.363857 0.398970 0.046936 0.015341
C19   C     C_R   0.309387 0.487366 0.147562 -0.144358
C20   C     C_R   0.353569 0.610090 0.181911 -0.008839
C21   C     C_R   0.512050 0.345863 0.871973 -0.109013
C22   C     C_R   0.357984 0.189545 0.903320 -0.117867
C23   C     C_R   0.040693 0.943185 0.556106 -0.123995
C24   C     C_R   0.526204 0.771374 0.164693 0.015419
C25   C     C_R   0.698342 0.343140 0.324480 -0.143647
C26   C     C_R   0.332996 0.761843 0.649159 0.049792
C27   C     C_R   0.302496 0.668502 0.685929 -0.044200
C28   C     C_R   0.262732 0.001791 0.500452 0.562272
C29   C     C_R   0.367938 0.565424 0.631019 -0.154696
C30   C     C_R   0.464410 0.554107 0.537865 -0.028809
C31   C     C_R   0.493897 0.653424 0.505408 0.164038
C32   C     C_R   0.533248 0.448951 0.476682 -0.026267
C33   C     C_R   0.631534 0.446220 0.385638 0.008492
C34   C     C_R   0.129360 0.004774 0.500366 0.024475
C35   C     C_R   0.661591 0.546511 0.357582 -0.063022
C36   C     C_R   0.594546 0.647283 0.417332 -0.092248
C37   C     C_R   0.507206 0.344371 0.500336 0.052158
C38   C     C_R   0.667797 0.244139 0.352298 0.042136
C39   C     C_R   0.657553 0.874870 0.780802 0.005504
C40   C     C_R   0.743306 0.941067 0.726345 0.032281
C41   C     C_R   0.824245 0.877866 0.625524 0.021809
C42   C     C_R   0.825101 0.751631 0.586396 -0.110121
C43   C     C_R   0.743311 0.687819 0.643232 -0.132811
C44   C     C_1   0.248245 0.968456 0.220198 0.227196
C45   C     C_R   0.087959 0.067484 0.447889 -0.023827
C46   C     C_1   0.198997 0.234850 0.071077 0.185257
C47   C     C_1   0.568333 0.934386 0.880122 0.201820
C48   C     C_1   0.264773 0.690687 0.264271 0.256327
C49   C     C_1   0.762775 0.550071 0.267671 0.176534
C50   C     C_1   0.204527 0.679117 0.781051 0.181646
C51   C     C_1   0.750757 0.072836 0.774787 0.203139
C52   C     C_R   0.958852 0.063191 0.450331 -0.136927
C53   C     C_R   0.870347 0.000958 0.505351 0.011053
C54   C     C_R   0.911535 0.941610 0.560834 -0.021325
C55   C     C_R   0.166422 0.272418 0.451938 -0.113314
Cu1   Cu    Cu3+1 0.529370 0.098270 0.475420 0.943768
Cu2   Cu    Cu3+1 0.470630 0.901730 0.524580 0.944614
H1    H     H_    0.591666 0.696731 0.778755 0.126562
H2    H     H_    0.229141 0.446314 0.445504 0.127204
H3    H     H_    0.379536 0.362872 0.268132 0.126133
H4    H     H_    0.587626 0.366607 0.813917 0.128805
H5    H     H_    0.665360 0.543839 0.867521 0.108524
H6    H     H_    0.745842 0.754039 0.935160 0.137018
H7    H     H_    0.718678 0.164778 0.304968 0.129921
H8    H     H_    0.773785 0.337964 0.254905 0.135442
H9    H     H_    0.432991 0.337603 0.566238 0.126353
H10   H     H_    0.341630 0.495893 0.662790 0.109039
H11   H     H_    0.627013 0.720692 0.393256 0.189882
H12   H     H_    0.391050 0.141656 0.166769 0.146761
H13   H     H_    0.888324 0.702257 0.510700 0.133563
H14   H     H_    0.744222 0.590427 0.611967 0.127419
H15   H     H_    0.312654 0.096294 0.871882 0.135856
H16   H     H_    0.225372 0.461954 0.197021 0.131924
H17   H     H_    0.668552 0.901234 0.123762 0.135766
H18   H     H_    0.283323 0.842339 0.692243 0.126985
H19   H     H_    0.071951 0.897778 0.598905 0.132437
H20   H     H_    0.927610 0.109542 0.408390 0.140760
H21   H     H_    0.103891 0.311169 0.531512 0.119791
N1    N     N_R   0.573890 0.246290 0.438210 -0.237332
N2    N     N_R   0.426890 0.754320 0.561170 -0.245847
N3    N     N_1   0.245586 0.865216 0.161724 -0.260749
N4    N     N_1   0.109471 0.202467 0.120197 -0.299905
N5    N     N_1   0.496567 0.981780 0.959603 -0.314825
N6    N     N_1   0.188516 0.750625 0.328307 -0.277590
N7    N     N_1   0.843571 0.553183 0.195920 -0.261369
N8    N     N_1   0.125842 0.687696 0.857529 -0.263261
N9    N     N_1   0.757368 0.178172 0.813537 -0.300038
O1    O     O_R   0.536940 0.972510 0.318130 -0.505809
O2    O     O_R   0.487330 0.806530 0.359650 -0.523910
O3    O     O_R   0.705160 0.082990 0.479250 -0.508617
O4    O     O_R   0.655550 0.917010 0.520760 -0.517635
O5    O     O_R   0.512670 0.193470 0.640350 -0.512388
O6    O     O_R   0.463060 0.027490 0.681870 -0.509543
O7    O     O_R   0.344450 0.082990 0.479240 -0.505858
O8    O     O_R   0.294840 0.917010 0.520750 -0.501286

loop_
_geom_bond_atom_site_label_1
_geom_bond_atom_site_label_2
_ccdc_geom_bond_type
C4    C53   S    
C27   C29   A    
C10   H17   S    
C41   C42   A    
C19   C20   A    
C14   C17   A    
C7    C55   A    
C23   H19   S    
C31   N2    A    
C53   C54   A    
Cu1   O7    S    
C37   N1    A    
C26   C27   A    
Cu1   N1    S    
Cu2   O2    S    
C28   O8    A    
C7    C45   S    
C9    C16   S    
C12   C43   A    
C11   H6    S    
C2    C55   A    
C30   C31   A    
C9    C22   A    
Cu1   O1    S    
C38   N1    A    
C42   H13   S    
Cu1   Cu2   S    
C28   O7    A    
C18   C19   A    
C5    H12   S    
C29   H10   S    
C13   H5    S    
C35   C36   A    
C35   C49   S    
C1    O2    A    
C47   N5    T    
C38   H7    S    
C27   C50   S    
C4    O4    A    
C12   H1    S    
C3    H3    S    
C1    O1    A    
Cu1   O3    S    
C28   C34   S    
Cu2   O6    S    
C13   C14   A    
Cu2   N2    S    
C22   H15   S    
C26   H18   S    
C4    O3    A    
C15   C20   A    
C49   N7    T    
C19   H16   S    
C25   H8    S    
C44   N3    T    
C51   N9    T    
C39   C40   A    
C55   H21   S    
C2    H2    S    
C45   C52   A    
C10   C24   A    
C8    C18   A    
C48   N6    T    
C29   C30   A    
C25   C38   A    
C8    C22   A    
C23   C34   A    
C37   H9    S    
C17   C18   A    
C16   O6    A    
C34   C45   A    
C32   C37   A    
C20   C48   S    
C40   C41   A    
C16   O5    A    
C42   C43   A    
C52   H20   S    
C52   C53   A    
C23   C54   A    
C39   C47   S    
C15   C24   A    
C43   H14   S    
Cu2   O4    S    
C14   C15   A    
C21   H4    S    
C3    C5    A    
C46   N4    T    
C36   H11   S    
C6    C7    A    
C40   C51   S    
C32   C33   A    
C12   C39   A    
C2    C3    A    
C30   C32   A    
C11   C13   A    
C9    C21   A    
C5    C6    A    
C33   C35   A    
C26   N2    A    
C41   C54   S    
C10   C11   A    
C50   N8    T    
Cu1   O5    S    
C1    C24   S    
Cu2   O8    S    
C31   C36   A    
C6    C44   S    
C8    C46   S    
C25   C33   A    
C17   C21   A    
