data_mof_unit_67716.cif
_audit_creation_date              2012-10-26T19:56:16-0400
_audit_creation_method            fapswitch 2.2
_symmetry_space_group_name_H-M    P1
_symmetry_Int_Tables_number       1
_space_group_crystal_system       triclinic
_cell_length_a                    10.879877
_cell_length_b                    10.711129
_cell_length_c                    9.511065
_cell_angle_alpha                 90.521735
_cell_angle_beta                  90.497455
_cell_angle_gamma                 93.152534
_cell_volume                      1106.60920886

loop_
_atom_site_label
_atom_site_type_symbol
_atom_type_description
_atom_site_fract_x
_atom_site_fract_y
_atom_site_fract_z
_atom_type_partial_charge
Br1   Br    Br    0.218613 0.497971 0.898357 -0.445268
Br2   Br    Br    0.781387 0.502030 0.101644 -0.445268
Br3   Br    Br    0.626396 0.758621 0.890957 -0.383794
Br4   Br    Br    0.373607 0.241378 0.109043 -0.383790
Br5   Br    Br    0.023425 0.227092 0.886530 -0.469872
Br6   Br    Br    0.976593 0.772896 0.113473 -0.469876
Br7   Br    Br    0.346519 0.902839 0.776871 -0.383921
Br8   Br    Br    0.653482 0.097161 0.223129 -0.383926
C1    C     C_R   0.503400 0.260101 0.499782 0.558884
C2    C     C_3   0.385048 0.039936 0.499754 -0.155592
C3    C     C_3   0.494961 0.876536 0.499742 -0.009062
C4    C     C_3   0.505040 0.123464 0.500258 -0.009061
C5    C     C_3   0.440947 0.958326 0.614708 0.173581
C6    C     C_3   0.559054 0.041675 0.385292 0.173580
C7    C     C_3   0.444085 0.593787 0.051789 -0.002832
C8    C     C_3   0.555915 0.406213 0.948211 -0.002833
C9    C     C_3   0.389607 0.492942 0.950266 0.247099
C10   C     C_3   0.610393 0.507058 0.049734 0.247098
C11   C     C_3   0.554438 0.600287 0.951803 0.251633
C12   C     C_R   0.496600 0.739899 0.500218 0.558884
C13   C     C_3   0.445562 0.399713 0.048197 0.251633
C14   C     C_R   0.262492 0.491497 0.498667 0.542936
C15   C     C_R   0.737508 0.508502 0.501333 0.542935
C16   C     C_R   0.066358 0.217735 0.081446 0.228646
C17   C     C_R   0.933649 0.782257 0.918560 0.228646
C18   C     C_R   0.067536 0.324647 0.167148 -0.003304
C19   C     C_R   0.932468 0.675346 0.832855 -0.003304
C20   C     C_R   0.092467 0.316924 0.312068 0.012183
C21   C     C_R   0.907533 0.683072 0.687937 0.012185
C22   C     C_R   0.115616 0.200740 0.369930 -0.109259
C23   C     C_R   0.871710 0.508563 0.503322 0.035088
C24   C     C_R   0.884381 0.799256 0.630078 -0.109254
C25   C     C_R   0.116062 0.094152 0.283956 -0.103108
C26   C     C_R   0.883936 0.905843 0.716054 -0.103100
C27   C     C_R   0.092255 0.102834 0.139863 -0.003448
C28   C     C_R   0.907749 0.897158 0.860147 -0.003444
C29   C     C_R   0.924330 0.424830 0.412281 -0.092098
C30   C     C_R   0.075670 0.575170 0.587719 -0.092100
C31   C     C_1   0.628435 0.084566 0.741399 0.284445
C32   C     C_1   0.371567 0.915435 0.258600 0.284448
C33   C     C_R   0.128290 0.491436 0.496678 0.035089
C34   C     C_R   0.948661 0.584046 0.594185 -0.014495
C35   C     C_R   0.051339 0.415952 0.405816 -0.014493
C36   C     C_3   0.559750 0.042676 0.614798 -0.026626
C37   C     C_3   0.440250 0.957324 0.385202 -0.026627
C38   C     C_3   0.614952 0.960064 0.500246 -0.155593
Cu1   Cu    Cu3+1 0.500030 0.499990 0.643150 1.080453
Cu2   Cu    Cu3+1 0.499970 0.500010 0.356850 1.080453
H1    H     H_    0.093487 0.020507 0.073677 0.187884
H2    H     H_    0.868960 0.995921 0.670346 0.144594
H3    H     H_    0.865093 0.362107 0.347956 0.178338
H4    H     H_    0.134907 0.637892 0.652043 0.178338
H5    H     H_    0.709172 0.927542 0.495461 0.131955
H6    H     H_    0.290829 0.072459 0.504540 0.131957
H7    H     H_    0.906519 0.979485 0.926334 0.187880
H8    H     H_    0.395455 0.671644 0.098647 0.184845
H9    H     H_    0.604545 0.328355 0.901353 0.184844
H10   H     H_    0.041539 0.412212 0.122932 0.205294
H11   H     H_    0.958467 0.587780 0.877068 0.205294
H12   H     H_    0.124374 0.191640 0.482808 0.139616
H13   H     H_    0.875621 0.808359 0.517200 0.139611
H14   H     H_    0.131036 0.004075 0.329666 0.144594
N1    N     N_3   0.500090 0.499970 0.858290 -0.281378
N2    N     N_3   0.499910 0.500030 0.141710 -0.281379
N3    N     N_1   0.683404 0.115960 0.841393 -0.205473
N4    N     N_1   0.316599 0.884042 0.158605 -0.205468
O1    O     O_R   0.500060 0.316850 0.620870 -0.508607
O2    O     O_R   0.499940 0.683150 0.379130 -0.508607
O3    O     O_R   0.500000 0.316860 0.379090 -0.439003
O4    O     O_R   0.500000 0.683140 0.620910 -0.439003
O5    O     O_R   0.319670 0.500010 0.620890 -0.455529
O6    O     O_R   0.680330 0.499990 0.379110 -0.455528
O7    O     O_R   0.319620 0.500010 0.379110 -0.494812
O8    O     O_R   0.680380 0.499990 0.620890 -0.494812

loop_
_geom_bond_atom_site_label_1
_geom_bond_atom_site_label_2
_ccdc_geom_bond_type
C8    C13   S    
C23   C34   A    
C21   C34   S    
C19   C21   A    
C33   C35   A    
Cu2   O3    S    
C6    C38   S    
C7    C11   S    
C1    O3    A    
C24   H13   S    
C30   C34   A    
C21   C24   A    
Cu1   N1    S    
C29   H3    S    
Cu2   N2    S    
C14   C33   S    
Br2   C10   S    
C10   C11   S    
C13   N2    S    
C11   N1    S    
C25   H14   S    
C22   H12   S    
C27   H1    S    
C7    N2    S    
Br3   C11   S    
C8    N1    S    
C32   N4    T    
C31   N3    T    
C12   O4    A    
Cu2   O6    S    
C15   O6    A    
Cu1   O1    S    
C36   C38   S    
C6    C37   S    
C32   C37   S    
C3    C12   S    
C26   H2    S    
C16   C27   A    
C30   C33   A    
C9    C13   S    
C23   C29   A    
C24   C26   A    
C29   C35   A    
C1    O1    A    
Cu1   O4    S    
Cu1   Cu2   S    
C2    C37   S    
Cu2   O2    S    
C18   H10   S    
Cu1   O5    S    
C2    C4    S    
C4    C6    S    
C3    C37   S    
C15   O8    A    
C14   O5    A    
C7    C9    S    
Br8   C6    S    
C22   C25   A    
C18   C20   A    
Cu2   O7    S    
C12   O2    A    
Cu1   O8    S    
C16   C18   A    
C2    C5    S    
C31   C36   S    
C17   C19   A    
C20   C35   S    
Br1   C9    S    
C7    H8    S    
C20   C22   A    
C4    C36   S    
C28   H7    S    
C19   H11   S    
C9    N1    S    
Br4   C13   S    
C3    C5    S    
C10   N2    S    
Br5   C16   S    
C38   H5    S    
C25   C27   A    
C26   C28   A    
C8    H9    S    
C2    H6    S    
C1    C4    S    
C17   C28   A    
Br6   C17   S    
Br7   C5    S    
C30   H4    S    
C8    C10   S    
C3    C38   S    
C14   O7    A    
C5    C36   S    
C15   C23   S    
