data_mof_unit_54226.cif
_audit_creation_date              2012-10-26T20:16:39-0400
_audit_creation_method            fapswitch 2.2
_symmetry_space_group_name_H-M    P1
_symmetry_Int_Tables_number       1
_space_group_crystal_system       triclinic
_cell_length_a                    10.94327
_cell_length_b                    11.040788
_cell_length_c                    9.870249
_cell_angle_alpha                 99.004636
_cell_angle_beta                  99.587225
_cell_angle_gamma                 93.177756
_cell_volume                      1157.32423261

loop_
_atom_site_label
_atom_site_type_symbol
_atom_type_description
_atom_site_fract_x
_atom_site_fract_y
_atom_site_fract_z
_atom_type_partial_charge
C1    C     C_R   0.494139 0.262411 0.500788 0.554026
C2    C     C_R   0.710731 0.942052 0.826704 -0.076570
C3    C     C_R   0.374412 0.077941 0.255005 0.098332
C4    C     C_R   0.585162 0.921326 0.762889 0.098749
C5    C     C_R   0.427834 0.091165 0.137898 -0.036253
C6    C     C_R   0.497918 0.872777 0.832664 -0.041969
C7    C     C_R   0.351480 0.090651 0.009457 -0.136288
C8    C     C_R   0.537370 0.835760 0.959384 -0.111431
C9    C     C_R   0.222503 0.074540 0.996478 -0.120021
C10   C     C_R   0.661376 0.860777 0.026367 -0.124864
C11   C     C_R   0.466065 0.919547 0.377501 0.100005
C12   C     C_R   0.504525 0.738609 0.500243 0.548519
C13   C     C_R   0.531442 0.085525 0.629533 0.098295
C14   C     C_R   0.507411 0.873985 0.501626 -0.043271
C15   C     C_R   0.490015 0.129368 0.503833 -0.038907
C16   C     C_R   0.261707 0.498982 0.498234 0.541461
C17   C     C_R   0.738190 0.501409 0.501692 0.544628
C18   C     C_R   0.542377 0.959510 0.627674 -0.038476
C19   C     C_R   0.450129 0.044400 0.380132 -0.030497
C20   C     C_2   0.510499 0.510076 0.079476 -0.053605
C21   C     C_2   0.487045 0.492571 0.920611 -0.057116
C22   C     C_R   0.148345 0.474627 0.027823 -0.104249
C23   C     C_R   0.872565 0.501456 0.505561 -0.009052
C24   C     C_R   0.854591 0.537408 0.975021 -0.109605
C25   C     C_R   0.127001 0.508085 0.164045 -0.033234
C26   C     C_R   0.873884 0.499916 0.838729 -0.034649
C27   C     C_R   0.065209 0.424495 0.227994 0.056880
C28   C     C_R   0.933608 0.581372 0.770041 0.057164
C29   C     C_R   0.012945 0.311256 0.147700 -0.103807
C30   C     C_R   0.982304 0.698079 0.844135 -0.106030
C31   C     C_R   0.027800 0.280915 0.008710 -0.119682
C32   C     C_R   0.968642 0.732854 0.982795 -0.125733
C33   C     C_R   0.099903 0.360223 0.950654 -0.113861
C34   C     C_R   0.127119 0.499421 0.494073 -0.010330
C35   C     C_R   0.901528 0.654186 0.046888 -0.116522
C36   C     C_R   0.911804 0.464449 0.378957 -0.162890
C37   C     C_R   0.087753 0.536619 0.620697 -0.164893
C38   C     C_3   0.320997 0.785628 0.191753 -0.280130
C39   C     C_3   0.668599 0.220860 0.825018 -0.274292
C40   C     C_R   0.962405 0.538846 0.629200 -0.034451
C41   C     C_R   0.037060 0.462886 0.370096 -0.033929
C42   C     C_R   0.169062 0.063652 0.113472 -0.115532
C43   C     C_R   0.747301 0.917139 0.961144 -0.114407
C44   C     C_R   0.244528 0.068015 0.243026 -0.087205
Cu1   Cu    Cu3+1 0.521120 0.521140 0.639640 0.925057
Cu2   Cu    Cu3+1 0.478880 0.478860 0.360360 0.927828
H1    H     H_    0.113530 0.335444 0.844016 0.101220
H2    H     H_    0.380371 0.380764 0.093654 0.221281
H3    H     H_    0.198389 0.538782 0.980172 0.093043
H4    H     H_    0.806661 0.474686 0.026422 0.094442
H5    H     H_    0.156463 0.599483 0.220495 0.100813
H6    H     H_    0.844391 0.406883 0.786583 0.102820
H7    H     H_    0.958469 0.247692 0.191810 0.093059
H8    H     H_    0.033917 0.760620 0.795774 0.094994
H9    H     H_    0.984275 0.195211 0.946341 0.087068
H10   H     H_    0.010548 0.820694 0.040786 0.091986
H11   H     H_    0.843834 0.437173 0.284043 0.131152
H12   H     H_    0.889538 0.681996 0.153666 0.100351
H13   H     H_    0.155586 0.564476 0.715646 0.130046
H14   H     H_    0.164101 0.069644 0.895549 0.097312
H15   H     H_    0.691585 0.834887 0.127091 0.094047
H16   H     H_    0.069180 0.049229 0.103398 0.087197
H17   H     H_    0.842232 0.940498 0.013914 0.092802
H18   H     H_    0.202106 0.054189 0.331669 0.085437
H19   H     H_    0.778878 0.981660 0.774705 0.086172
H20   H     H_    0.517404 0.789532 0.226434 0.253009
H21   H     H_    0.325536 0.685616 0.160069 0.156349
H22   H     H_    0.281225 0.823141 0.097618 0.144896
H23   H     H_    0.527843 0.095578 0.144720 0.122324
H24   H     H_    0.259022 0.801949 0.270244 0.138851
H25   H     H_    0.472327 0.214170 0.780949 0.250708
H26   H     H_    0.697426 0.191840 0.927444 0.136316
H27   H     H_    0.665920 0.322050 0.844092 0.167253
H28   H     H_    0.738389 0.196253 0.757583 0.130519
H29   H     H_    0.400576 0.856875 0.784686 0.101675
H30   H     H_    0.392027 0.097026 0.918586 0.121957
H31   H     H_    0.471037 0.784099 0.000937 0.127409
H32   H     H_    0.411737 0.426524 0.863868 0.142271
H33   H     H_    0.582860 0.579301 0.136318 0.138409
H34   H     H_    0.625564 0.612381 0.906034 0.225789
N1    N     N_2   0.447120 0.447110 0.150550 -0.358081
N2    N     N_2   0.552880 0.552890 0.849450 -0.363070
N3    N     N_2   0.445624 0.842333 0.245479 -0.510864
N4    N     N_2   0.545849 0.163497 0.762165 -0.509791
O1    O     O_R   0.517830 0.337490 0.617920 -0.497493
O2    O     O_R   0.482170 0.662510 0.382080 -0.500076
O3    O     O_R   0.482150 0.301790 0.382070 -0.492039
O4    O     O_R   0.517850 0.698210 0.617930 -0.490416
O5    O     O_R   0.337480 0.517860 0.617920 -0.513443
O6    O     O_R   0.662520 0.482140 0.382080 -0.510544
O7    O     O_R   0.301810 0.482160 0.382070 -0.491373
O8    O     O_R   0.698190 0.517840 0.617930 -0.492982

loop_
_geom_bond_atom_site_label_1
_geom_bond_atom_site_label_2
_ccdc_geom_bond_type
C1    O3    A    
C38   H24   S    
C38   N3    S    
C27   C29   A    
C34   C37   A    
C14   C18   A    
Cu1   O1    S    
Cu1   N2    S    
C2    H19   S    
C43   H17   S    
C6    H29   S    
Cu1   Cu2   S    
C44   H18   S    
C15   C19   A    
C30   H8    S    
C13   N4    S    
C11   C19   A    
C9    C42   A    
C17   C23   S    
C13   C18   A    
C35   H12   S    
C24   C26   A    
C39   N4    S    
H25   N4    S    
C37   C40   A    
C11   C14   A    
C28   C40   S    
C23   C40   A    
H2    N1    S    
C39   H28   S    
Cu1   O8    S    
C5    H23   S    
C16   C34   S    
H20   N3    S    
C22   C25   A    
C21   H32   S    
C39   H26   S    
C31   C33   A    
C3    C19   S    
C1    C15   S    
Cu1   O5    S    
C42   H16   S    
C4    C18   S    
C16   O5    A    
C20   N1    D    
C24   H4    S    
C36   C41   A    
C17   O8    A    
C42   C44   A    
C1    O1    A    
C3    C44   A    
C24   C35   A    
C12   O4    A    
C32   C35   A    
Cu1   O4    S    
C38   H21   S    
C4    C6    A    
C36   H11   S    
C5    C7    A    
C6    C8    A    
Cu2   O7    S    
C11   N3    S    
C2    C4    A    
C25   H5    S    
C34   C41   A    
C26   H6    S    
Cu2   N1    S    
C27   C41   S    
C2    C43   A    
C21   N2    D    
C37   H13   S    
C22   H3    S    
H34   N2    S    
C12   C14   S    
C13   C15   A    
C8    H31   S    
C33   H1    S    
C10   H15   S    
Cu2   O3    S    
C7    C9    A    
C22   C33   A    
C20   H33   S    
C10   C43   A    
C17   O6    A    
C38   H22   S    
C3    C5    A    
C7    H30   S    
Cu2   O6    S    
C25   C27   A    
C26   C28   A    
C12   O2    A    
C9    H14   S    
C28   C30   A    
C29   C31   A    
C30   C32   A    
C29   H7    S    
C39   H27   S    
C20   C21   S    
C16   O7    A    
C8    C10   A    
C23   C36   A    
C31   H9    S    
C32   H10   S    
Cu2   O2    S    
