data_mof_unit_42324.cif
_audit_creation_date              2012-12-10T21:26:02-0500
_audit_creation_method            fapswitch 2.2
_symmetry_space_group_name_H-M    P1
_symmetry_Int_Tables_number       1
_space_group_crystal_system       triclinic
_cell_length_a                    8.626438
_cell_length_b                    16.167474
_cell_length_c                    16.591523
_cell_angle_alpha                 89.731132
_cell_angle_beta                  91.599146
_cell_angle_gamma                 100.305782
_cell_volume                      2275.76346958

loop_
_atom_site_label
_atom_site_type_symbol
_atom_type_description
_atom_site_fract_x
_atom_site_fract_y
_atom_site_fract_z
_atom_type_partial_charge
C1    C     C_R   0.489144 0.489889 0.653590 0.880891
C2    C     C_R   0.504079 0.509991 0.345863 0.895090
C3    C     C_R   0.392186 0.751811 0.482521 0.551141
C4    C     C_R   0.545213 0.241446 0.552285 0.540455
C5    C     C_R   0.392464 0.839028 0.488805 -0.308702
C6    C     C_R   0.531714 0.152892 0.551999 -0.292505
C7    C     C_R   0.534115 0.894128 0.511227 0.146098
C8    C     C_R   0.463335 0.106148 0.483827 0.144338
C9    C     C_R   0.665784 0.858403 0.534829 0.389336
C10   C     C_R   0.392888 0.148912 0.422830 0.367367
C11   C     C_R   0.654704 0.769802 0.534302 -0.226467
C12   C     C_R   0.405361 0.237258 0.426909 -0.296296
C13   C     C_R   0.799906 0.521210 0.500969 0.879303
C14   C     C_R   0.199562 0.478642 0.493824 0.833482
C15   C     C_2   0.963815 0.529811 0.510886 0.214399
C16   C     C_2   0.033627 0.469158 0.480140 0.111183
C17   C     C_R   0.435579 0.486320 0.737523 -0.233049
C18   C     C_R   0.498245 0.514051 0.256892 -0.244608
C19   C     C_R   0.457615 0.562597 0.781455 0.384478
C20   C     C_R   0.447964 0.439758 0.211551 0.397568
C21   C     C_R   0.375793 0.567610 0.851706 -0.130602
C22   C     C_R   0.410768 0.444634 0.129378 -0.123579
C23   C     C_R   0.303439 0.493475 0.889654 0.140739
C24   C     C_R   0.437050 0.523032 0.090138 0.139344
C25   C     C_R   0.272662 0.418065 0.845753 -0.072097
C26   C     C_R   0.508591 0.595489 0.132577 -0.066738
C27   C     C_R   0.336015 0.414362 0.768674 -0.151050
C28   C     C_R   0.538786 0.591610 0.215934 -0.134402
H1    H     H_    0.756212 0.742128 0.550639 0.182604
H2    H     H_    0.355572 0.270709 0.379135 0.209611
N1    N     N_2   0.297036 0.490284 0.974875 -0.155334
N2    N     N_2   0.423622 0.528140 0.005514 -0.170071
N3    N     N_R   0.519180 0.718290 0.509780 -0.142675
N4    N     N_R   0.480820 0.281710 0.490220 -0.140908
N5    N     N_2   0.550252 0.984322 0.515387 -0.111222
N6    N     N_2   0.449215 0.016373 0.476696 -0.111730
O1    O     O_R   0.493140 0.422050 0.612640 -0.556231
O2    O     O_R   0.506860 0.577950 0.387360 -0.618777
O3    O     O_R   0.505450 0.562230 0.618920 -0.570442
O4    O     O_R   0.494550 0.437770 0.381080 -0.577174
O5    O     O_R   0.723530 0.446300 0.497600 -0.596915
O6    O     O_R   0.276470 0.553700 0.502400 -0.510940
O7    O     O_R   0.735850 0.586490 0.503880 -0.610932
O8    O     O_R   0.264150 0.413510 0.496120 -0.665587
Zn1   Zn    Zn3+2 0.491780 0.406400 0.495810 0.980341
Zn2   Zn    Zn3+2 0.508220 0.593600 0.504190 1.012237
O9    O     O_3   0.043380 0.598860 0.553840 -0.556087
C29   C     C_3   0.038577 0.580372 0.636958 0.065359
H3    H     H_    0.082244 0.520831 0.650626 0.108930
H4    H     H_    0.916349 0.575477 0.658457 0.126928
C30   C     C_3   0.144801 0.651132 0.682342 -0.723432
H5    H     H_    0.107224 0.712046 0.668903 0.238960
H6    H     H_    0.138194 0.639029 0.748148 0.190342
H7    H     H_    0.268589 0.655119 0.663795 0.284925
O10   O     O_3   0.950898 0.411392 0.423899 -0.629941
C31   C     C_3   0.000988 0.332688 0.423232 0.133017
H8    H     H_    0.022706 0.310059 0.485272 0.139572
H9    H     H_    0.108762 0.336964 0.387098 0.176878
C32   C     C_3   0.873920 0.267207 0.383511 -0.895202
H10   H     H_    0.757234 0.270492 0.408443 0.270144
H11   H     H_    0.871113 0.278056 0.317519 0.250838
H12   H     H_    0.899984 0.203314 0.394732 0.207273
O11   O     O_3   0.444542 0.361142 0.245648 -0.607511
C33   C     C_3   0.592966 0.337161 0.234747 0.084559
H13   H     H_    0.669208 0.355557 0.288980 0.197663
H14   H     H_    0.656936 0.366676 0.181196 0.127236
C34   C     C_3   0.570865 0.242447 0.222974 -0.787051
H15   H     H_    0.684142 0.224534 0.206278 0.207293
H16   H     H_    0.531816 0.209537 0.279318 0.280069
H17   H     H_    0.481910 0.222053 0.174122 0.273820
O12   O     O_3   0.555137 0.634047 0.754196 -0.592912
C35   C     C_3   0.704514 0.638608 0.792674 0.135696
H18   H     H_    0.758951 0.583906 0.775656 0.112963
H19   H     H_    0.696290 0.640449 0.859558 0.149867
C36   C     C_3   0.811212 0.718686 0.766565 -0.845865
H20   H     H_    0.759920 0.774147 0.783772 0.259620
H21   H     H_    0.929154 0.723352 0.796492 0.216423
H22   H     H_    0.823857 0.718037 0.700242 0.243210
C37   C     C_1   0.361864 0.367050 0.085046 0.275841
N7    N     N_1   0.323775 0.304490 0.050370 -0.192747
C38   C     C_1   0.371384 0.649027 0.886525 0.246529
N8    N     N_1   0.366586 0.714315 0.913578 -0.184857
C39   C     C_1   0.174601 0.344975 0.879907 0.213392
N9    N     N_1   0.095210 0.286524 0.906581 -0.181763
C40   C     C_1   0.555540 0.673880 0.089594 0.211992
N10   N     N_1   0.594246 0.736673 0.055871 -0.183631
C41   C     C_1   0.295114 0.337349 0.722282 0.274440
N11   N     N_1   0.261535 0.275808 0.685454 -0.190960
C42   C     C_1   0.623395 0.665898 0.257193 0.209054
N12   N     N_1   0.691314 0.725086 0.289916 -0.202670
O13   O     O_3   0.606577 0.286654 0.619974 -0.570441
C43   C     C_3   0.772705 0.298699 0.620221 0.112468
H23   H     H_    0.818727 0.327431 0.563102 0.165344
H24   H     H_    0.815811 0.238442 0.629255 0.132487
C44   C     C_3   0.839221 0.357711 0.688821 -0.827261
H25   H     H_    0.798516 0.329742 0.747482 0.269824
H26   H     H_    0.969948 0.368521 0.688953 0.191361
H27   H     H_    0.799534 0.418978 0.681195 0.229740
O14   O     O_3   0.260667 0.699275 0.450902 -0.538891
C45   C     C_3   0.256481 0.707621 0.365984 0.120029
H28   H     H_    0.372962 0.705661 0.339775 0.144095
H29   H     H_    0.219565 0.767641 0.348050 0.136151
C46   C     C_3   0.137172 0.635941 0.329423 -0.750210
H30   H     H_    0.019350 0.635192 0.355068 0.258091
H31   H     H_    0.128535 0.644286 0.263076 0.199854
H32   H     H_    0.174838 0.574918 0.341943 0.241743
C47   C     C_1   0.574451 0.111608 0.624809 0.285399
N13   N     N_1   0.608540 0.078732 0.683107 -0.197819
C48   C     C_1   0.244881 0.868454 0.475494 0.279522
N14   N     N_1   0.126589 0.891608 0.464694 -0.165165
O15   O     O_3   0.807461 0.912295 0.551037 -0.580647
C49   C     C_3   0.873554 0.893568 0.626258 0.099323
H33   H     H_    0.936839 0.839916 0.619973 0.147134
H34   H     H_    0.782330 0.879227 0.673085 0.144111
C50   C     C_3   0.992847 0.969468 0.654743 -0.761842
H35   H     H_    0.933678 0.024517 0.661953 0.258734
H36   H     H_    0.046628 0.955378 0.713666 0.209913
H37   H     H_    0.087532 0.985115 0.610254 0.259584
O16   O     O_3   0.320326 0.103544 0.357184 -0.590890
C51   C     C_3   0.160122 0.111805 0.351096 0.093385
H38   H     H_    0.148626 0.174731 0.326859 0.146340
H39   H     H_    0.102177 0.101961 0.410561 0.148441
C52   C     C_3   0.073445 0.045890 0.292883 -0.737961
H40   H     H_    0.082114 0.981906 0.315074 0.265135
H41   H     H_    0.947172 0.051696 0.287778 0.208645
H42   H     H_    0.125699 0.055015 0.232331 0.255095

loop_
_geom_bond_atom_site_label_1
_geom_bond_atom_site_label_2
_ccdc_geom_bond_type
C9    O15   S    
C41   N11   T    
C2    C18   S    
C19   O12   S    
C44   H25   S    
C15   O9    S    
O10   C31   S    
C13   O5    A    
C38   N8    T    
C44   H27   S    
C52   H40   S    
C40   N10   T    
C51   H38   S    
C39   N9    T    
C19   C21   A    
C24   C26   A    
C22   C37   S    
C8    N6    S    
C52   H41   S    
C3    N3    A    
C15   C16   D    
C31   H8    S    
O6    Zn2   S    
C31   C32   S    
C43   H23   S    
C10   O16   S    
C29   C30   S    
O15   C49   S    
C50   H36   S    
C6    C47   S    
C28   C42   S    
C18   C20   A    
C51   C52   S    
C1    O1    A    
C14   O6    A    
C4    O13   S    
C29   H4    S    
C32   H10   S    
N3    Zn2   S    
C35   C36   S    
C49   H34   S    
C49   H33   S    
O7    Zn2   S    
C51   H39   S    
O4    Zn1   S    
C4    N4    A    
C32   H11   S    
C30   H5    S    
C17   C27   A    
C33   C34   S    
C11   N3    A    
C18   C28   A    
C37   N7    T    
C4    C6    A    
O13   C43   S    
C5    C7    A    
C52   H42   S    
C6    C8    A    
C43   C44   S    
C34   H15   S    
C34   H16   S    
N5    N6    D    
C23   N1    S    
C36   H20   S    
C24   N2    S    
C3    O14   S    
C36   H21   S    
C2    O2    A    
O9    C29   S    
C47   N13   T    
C50   H37   S    
C43   H24   S    
C46   H31   S    
N4    Zn1   S    
C27   C41   S    
C9    C11   A    
C10   C12   A    
O3    Zn2   S    
C35   H19   S    
C29   H3    S    
C21   C38   S    
C13   C15   S    
C22   C24   A    
C12   N4    A    
C13   O7    A    
O8    Zn1   S    
C14   O8    A    
C45   H29   S    
C7    C9    A    
C32   H12   S    
C12   H2    S    
C7    N5    S    
N1    N2    D    
C20   C22   A    
C35   H18   S    
C3    C5    A    
O16   C51   S    
C44   H26   S    
C25   C27   A    
C26   C28   A    
O14   C45   S    
C30   H7    S    
C33   H13   S    
C34   H17   S    
C20   O11   S    
C21   C23   A    
C16   O10   S    
O12   C35   S    
C48   N14   T    
C5    C48   S    
C26   C40   S    
C45   H28   S    
C17   C19   A    
C31   H9    S    
C46   H32   S    
C14   C16   S    
C45   C46   S    
C36   H22   S    
O2    Zn2   S    
C1    O3    A    
O11   C33   S    
C2    O4    A    
C23   C25   A    
C1    C17   S    
C11   H1    S    
C8    C10   A    
C46   H30   S    
C25   C39   S    
O5    Zn1   S    
C30   H6    S    
C42   N12   T    
O1    Zn1   S    
C49   C50   S    
C50   H35   S    
C33   H14   S    
