data_mof_unit_22034.cif
_audit_creation_date              2012-12-11T17:22:51-0500
_audit_creation_method            fapswitch 2.2
_symmetry_space_group_name_H-M    P1
_symmetry_Int_Tables_number       1
_space_group_crystal_system       triclinic
_cell_length_a                    8.211575
_cell_length_b                    16.517492
_cell_length_c                    27.005719
_cell_angle_alpha                 96.432455
_cell_angle_beta                  92.446854
_cell_angle_gamma                 86.526349
_cell_volume                      3630.78275064

loop_
_atom_site_label
_atom_site_type_symbol
_atom_type_description
_atom_site_fract_x
_atom_site_fract_y
_atom_site_fract_z
_atom_type_partial_charge
Ba1   Ba    Ba6+2 0.851940 0.461560 0.523510 1.642341
Ba2   Ba    Ba6+2 0.337880 0.538370 0.476480 1.641580
C1    C     C_3   0.631467 0.174073 0.657063 -0.364442
C2    C     C_R   0.891075 0.570399 0.177388 0.576689
C3    C     C_2   0.739741 0.522199 0.269916 -0.074259
C4    C     C_3   0.147817 0.280556 0.659105 0.291304
C5    C     C_3   0.695995 0.516768 0.323479 -0.057874
C6    C     C_1   0.981880 0.485546 0.342708 0.041302
C7    C     C_2   0.022576 0.483534 0.295241 -0.104103
C8    C     C_2   0.896015 0.504458 0.255630 0.197620
C9    C     C_R   0.019983 0.503731 0.102195 -0.077590
C10   C     C_R   0.068806 0.437253 0.128880 -0.034125
C11   C     C_R   0.158143 0.370751 0.104470 -0.061613
C12   C     C_3   0.640154 0.256010 0.637004 0.340377
C13   C     C_R   0.930231 0.570598 0.126779 -0.030289
C14   C     C_2   0.845196 0.523965 0.357915 -0.283442
C15   C     C_2   0.351237 0.481900 0.641611 -0.281554
C16   C     C_3   0.116480 0.263067 0.711798 -0.345293
C17   C     C_R   0.192562 0.434985 0.975560 0.019933
C18   C     C_R   0.047622 0.569822 0.973102 0.019921
C19   C     C_R   0.139853 0.502126 0.948974 0.050148
C20   C     C_R   0.285028 0.369561 0.949730 -0.099764
C21   C     C_R   0.323349 0.369844 0.899976 -0.061012
C22   C     C_R   0.271904 0.435298 0.873272 -0.031370
C23   C     C_3   0.516823 0.667369 0.627698 0.303129
C24   C     C_R   0.179986 0.501596 0.897658 -0.077260
C25   C     C_R   0.128647 0.567467 0.870743 -0.034001
C26   C     C_R   0.170312 0.566502 0.820218 0.590471
C27   C     C_R   0.310768 0.435498 0.822627 0.578689
C28   C     C_3   0.177351 0.290463 0.417640 0.304870
C29   C     C_2   0.458357 0.486185 0.729707 -0.072545
C30   C     C_3   0.501135 0.490053 0.675766 -0.051813
C31   C     C_1   0.211983 0.516794 0.657231 0.037747
C32   C     C_2   0.172242 0.517712 0.704597 -0.104863
C33   C     C_2   0.301439 0.500546 0.744072 0.200932
C34   C     C_3   0.493869 0.699973 0.682069 -0.371411
C35   C     C_R   0.151704 0.435304 0.026685 0.019876
C36   C     C_R   0.060328 0.503228 0.050898 0.050050
C37   C     C_R   0.008599 0.570618 0.024407 0.019956
C38   C     C_R   0.198791 0.369689 0.054798 -0.099677
C39   C     C_R   0.881299 0.636693 0.100325 -0.060930
C40   C     C_3   0.187166 0.198367 0.404401 -0.377139
C41   C     C_R   0.997422 0.634644 0.944686 -0.099671
C42   C     C_R   0.037181 0.633392 0.894934 -0.061757
C43   C     C_R   0.919192 0.636847 0.050538 -0.100061
C44   C     C_R   0.386744 0.267223 0.521171 -0.292056
C45   C     C_3   0.057024 0.718187 0.339135 0.298418
C46   C     C_R   0.527484 0.241474 0.495832 0.043654
C47   C     C_R   0.580960 0.158567 0.491328 -0.119942
C48   C     C_R   0.491265 0.100948 0.512247 0.246828
C49   C     C_R   0.345275 0.128218 0.536000 -0.167226
C50   C     C_R   0.292337 0.210981 0.539666 -0.011721
C51   C     C_R   0.620412 0.853039 0.506735 -0.115746
C52   C     C_3   0.016473 0.709106 0.581165 0.305432
C53   C     C_R   0.669380 0.769976 0.503276 0.009650
C54   C     C_R   0.713290 0.908484 0.484884 0.254209
C55   C     C_R   0.807508 0.741024 0.477603 -0.283357
C56   C     C_3   0.096709 0.733507 0.286669 -0.339512
C57   C     C_R   0.905633 0.794488 0.458072 -0.006917
C58   C     C_R   0.858164 0.878190 0.461087 -0.166624
C59   C     C_3   0.002794 0.801205 0.594379 -0.377513
C60   C     C_3   0.682429 0.347981 0.373233 0.305010
C61   C     C_3   0.718367 0.311774 0.320180 -0.369880
C62   C     C_3   0.563665 0.745063 0.364253 0.349756
C63   C     C_3   0.574298 0.827442 0.344905 -0.364358
C64   C     C_R   0.026368 0.438093 0.179343 0.591243
H1    H     H_    0.752434 0.254232 0.615343 0.107210
H2    H     H_    0.797335 0.368714 0.391909 0.022312
H3    H     H_    0.591101 0.400137 0.372421 0.034339
H4    H     H_    0.628291 0.124738 0.625570 0.085256
H5    H     H_    0.801579 0.256304 0.320966 0.141133
H6    H     H_    0.778293 0.355854 0.300025 0.074504
H7    H     H_    0.603008 0.295060 0.299652 0.122708
H8    H     H_    0.531392 0.265421 0.612227 -0.033945
H9    H     H_    0.519441 0.173581 0.678638 0.123654
H10   H     H_    0.396278 0.649910 0.611132 0.028665
H11   H     H_    0.603797 0.613042 0.625727 0.033118
H12   H     H_    0.272181 0.181333 0.373560 0.131904
H13   H     H_    0.414500 0.757070 0.684429 0.139093
H14   H     H_    0.434826 0.654858 0.701760 0.074127
H15   H     H_    0.614050 0.712859 0.700787 0.125499
H16   H     H_    0.740321 0.162491 0.681650 0.136220
H17   H     H_    0.177496 0.307791 0.738982 0.129556
H18   H     H_    0.096230 0.653955 0.343881 0.075519
H19   H     H_    0.923176 0.727515 0.343247 -0.019749
H20   H     H_    0.230773 0.727514 0.282094 0.153727
H21   H     H_    0.038759 0.688089 0.259247 0.124715
H22   H     H_    0.050369 0.795780 0.279366 0.118570
H23   H     H_    0.231984 0.167425 0.437064 0.061885
H24   H     H_    0.680513 0.729957 0.384059 -0.050335
H25   H     H_    0.462280 0.749940 0.390552 0.103863
H26   H     H_    0.676368 0.825019 0.318993 0.125224
H27   H     H_    0.596124 0.874906 0.376580 0.080261
H28   H     H_    0.103436 0.344521 0.655466 0.074529
H29   H     H_    0.458178 0.844133 0.324932 0.138335
H30   H     H_    0.147230 0.466931 0.284871 0.134618
H31   H     H_    0.197611 0.318563 0.123835 0.122341
H32   H     H_    0.556213 0.477227 0.757211 0.105809
H33   H     H_    0.394472 0.317906 0.882390 0.122444
H34   H     H_    0.064245 0.177152 0.392562 0.124346
H35   H     H_    0.330989 0.316562 0.966795 0.069102
H36   H     H_    0.267204 0.315669 0.039615 0.069339
H37   H     H_    0.642935 0.533744 0.242529 0.109528
H38   H     H_    0.812456 0.689241 0.118132 0.122510
H39   H     H_    0.926242 0.687934 0.959582 0.069291
H40   H     H_    0.281203 0.273624 0.653396 -0.013592
H41   H     H_    0.995256 0.684955 0.875326 0.122196
H42   H     H_    0.046704 0.531207 0.715047 0.130953
H43   H     H_    0.876187 0.690621 0.033783 0.069092
H44   H     H_    0.842581 0.562545 0.393227 0.067352
H45   H     H_    0.895757 0.687319 0.568664 0.005278
H46   H     H_    0.357616 0.447961 0.604818 0.071352
H47   H     H_    0.513115 0.874012 0.527474 0.106866
H48   H     H_    0.271703 0.084864 0.550728 0.093402
H49   H     H_    0.689482 0.139391 0.470764 0.112967
H50   H     H_    0.934619 0.919700 0.445806 0.091679
H51   H     H_    0.345177 0.330915 0.523720 0.072922
H52   H     H_    0.983287 0.268383 0.718119 0.142470
H53   H     H_    0.844703 0.676818 0.475820 0.066070
H54   H     H_    0.165196 0.200546 0.717703 0.120814
H55   H     H_    0.300609 0.310973 0.428160 0.010119
H56   H     H_    0.103094 0.694528 0.550664 0.074176
H57   H     H_    0.095649 0.305678 0.449437 0.067098
H58   H     H_    0.910142 0.817675 0.623125 0.135806
H59   H     H_    0.966137 0.832093 0.560996 0.062058
H60   H     H_    0.122630 0.823107 0.609059 0.124462
N1    N     N_R   0.939102 0.504523 0.203435 -0.423591
N2    N     N_R   0.259890 0.500695 0.796372 -0.424156
N3    N     N_2   0.538542 0.015635 0.508991 -0.233611
N4    N     N_2   0.668992 0.994246 0.487550 -0.231353
O1    O     O_2   0.915540 0.542930 0.617950 -0.464056
O2    O     O_2   0.244022 0.788694 0.466177 -0.481551
O3    O     O_3   0.140172 0.772684 0.373480 -0.598069
O4    O     O_3   0.147530 0.542870 0.557780 -0.491773
O5    O     O_3   0.552080 0.402920 0.475380 -0.483041
O6    O     O_2   0.387280 0.697260 0.523450 -0.458483
O7    O     O_3   0.579743 0.728564 0.603378 -0.640124
O8    O     O_2   0.359621 0.561544 0.327199 -0.496295
O9    O     O_3   0.535223 0.685668 0.323970 -0.591250
O10   O     O_2   0.065017 0.378853 0.201497 -0.599000
O11   O     O_2   0.389164 0.377118 0.801859 -0.599062
O12   O     O_3   0.618486 0.287554 0.397520 -0.635034
O13   O     O_2   0.814831 0.629395 0.198298 -0.602529
O14   O     O_2   0.128743 0.625046 0.797749 -0.598440
O15   O     O_3   0.664390 0.396160 0.588360 -0.489120
O16   O     O_2   0.834792 0.435729 0.672388 -0.496638
O17   O     O_3   0.071049 0.673206 0.623720 -0.627167
O18   O     O_3   0.642166 0.318220 0.676905 -0.590613
O19   O     O_2   0.802410 0.302720 0.476520 -0.465022
O20   O     O_3   0.070880 0.354870 0.564040 -0.488548
O21   O     O_2   0.953107 0.210154 0.532779 -0.481573
O22   O     O_3   0.064280 0.225529 0.625161 -0.600463
O23   O     O_2   0.274150 0.457040 0.382020 -0.462299
O24   O     O_3   0.042160 0.457070 0.442220 -0.494206
O25   O     O_3   0.525310 0.603770 0.411640 -0.481295
O26   O     O_3   0.117320 0.326798 0.375775 -0.627853
O27   O     O_3   0.637620 0.597020 0.524620 -0.472603
O28   O     O_3   0.118810 0.645070 0.435950 -0.487175
P1    P     P_3+3 0.086060 0.566890 0.610430 0.997308
P2    P     P_3+3 0.625290 0.314770 0.461990 0.989920
P3    P     P_3+3 0.094699 0.248962 0.564807 0.944536
P4    P     P_3+3 0.103630 0.433040 0.389570 0.995558
P5    P     P_3+3 0.101967 0.751261 0.433732 0.947441
P6    P     P_3+3 0.661985 0.411862 0.653516 0.972711
P7    P     P_3+3 0.572322 0.699655 0.539055 0.953616
P8    P     P_3+3 0.528575 0.590471 0.346454 0.971712

loop_
_geom_bond_atom_site_label_1
_geom_bond_atom_site_label_2
_ccdc_geom_bond_type
C63   H26   S    
C21   H33   S    
C19   C24   A    
C3    H37   S    
Ba2   O25   S    
C12   O18   S    
C9    C36   A    
Ba1   O15   S    
C62   H24   S    
O17   P1    S    
C56   H21   S    
Ba2   P4    S    
C2    O13   D    
O7    P7    S    
C14   H44   S    
C46   P2    S    
C24   C25   A    
Ba2   O4    S    
C20   H35   S    
C59   H58   S    
C23   H11   S    
C12   H8    S    
C17   C19   A    
C22   C24   A    
C32   C33   S    
C35   C38   A    
C36   C37   A    
C43   H43   S    
C55   C57   A    
O6    P7    D    
O25   P8    S    
C44   C50   A    
C64   N1    Am   
C1    H16   S    
Ba1   Ba2   S    
C41   H39   S    
C29   H32   S    
C22   C27   A    
C11   C38   A    
C17   C35   A    
C16   H54   S    
C9    C13   A    
C25   C42   A    
C6    C7    D    
C4    H28   S    
C12   H1    S    
Ba1   O19   S    
C59   H60   S    
C26   O14   D    
C1    H9    S    
C7    C8    S    
C16   H52   S    
O22   P3    S    
Ba2   O28   S    
C50   P3    S    
C55   H53   S    
C4    O22   S    
C28   O26   S    
O4    P1    S    
C52   H56   S    
O26   P4    S    
C57   C58   A    
Ba2   O24   S    
C45   O3    S    
C33   N2    S    
C15   C31   D    
C60   O12   S    
C56   H20   S    
C51   H47   S    
C16   H17   S    
C51   C53   A    
C4    C16   S    
C44   C46   A    
C49   H48   S    
C52   C59   S    
C49   C50   A    
O18   P6    S    
Ba1   P1    S    
C1    H4    S    
C13   C39   A    
C34   H14   S    
O27   P7    S    
C3    C5    S    
C18   C37   A    
C37   C43   A    
C61   H7    S    
O21   P3    D    
O16   P6    D    
Ba2   O6    S    
C54   C58   A    
C60   H3    S    
O9    P8    S    
C23   O7    S    
C41   C42   A    
C35   C36   A    
C48   N3    S    
C40   H34   S    
C42   H41   S    
C29   C30   S    
C28   H55   S    
C34   H15   S    
C21   C22   A    
C27   O11   D    
C17   C20   A    
C60   C61   S    
C48   C49   A    
C4    H40   S    
Ba1   O20   S    
C45   H18   S    
C61   H6    S    
O1    P1    D    
C28   H57   S    
C7    H30   S    
C1    C12   S    
O28   P5    S    
C46   C47   A    
C47   H49   S    
C5    P8    S    
C61   H5    S    
C40   H12   S    
Ba2   O23   S    
C53   C55   A    
C29   C33   D    
C58   H50   S    
C53   P7    S    
C8    N1    S    
C15   H46   S    
C45   H19   S    
C18   C41   A    
N3    N4    D    
C51   C54   A    
O20   P3    S    
C5    C14   S    
O5    P2    S    
C2    N1    Am   
C18   C19   A    
O24   P4    S    
Ba1   P2    S    
O3    P5    S    
O12   P2    S    
Ba1   O1    S    
C34   H13   S    
C56   H22   S    
C9    C10   A    
O15   P6    S    
Ba2   O5    S    
C39   H38   S    
C60   H2    S    
O23   P4    D    
O8    P8    D    
C40   H23   S    
C32   H42   S    
C62   C63   S    
C23   H10   S    
C2    C13   A    
Ba1   O27   S    
O2    P5    D    
C3    C8    D    
C6    P4    S    
C26   N2    Am   
C45   C56   S    
C10   C64   A    
Ba2   O27   S    
C30   P6    S    
C63   H27   S    
C31   C32   D    
C52   H45   S    
C11   H31   S    
Ba1   O24   S    
O19   P2    D    
C57   P5    S    
C23   C34   S    
C38   H36   S    
C31   P1    S    
C63   H29   S    
C64   O10   D    
C10   C11   A    
C44   H51   S    
C6    C14   D    
C47   C48   A    
C27   N2    Am   
C25   C26   A    
C15   C30   S    
C39   C43   A    
C20   C21   A    
C28   C40   S    
C59   H59   S    
C62   H25   S    
Ba1   O5    S    
C54   N4    S    
Ba1   O4    S    
C52   O17   S    
C62   O9    S    
