data_mof_unit_37681.cif
_audit_creation_date              2012-12-10T18:44:27-0500
_audit_creation_method            fapswitch 2.2
_symmetry_space_group_name_H-M    P1
_symmetry_Int_Tables_number       1
_space_group_crystal_system       triclinic
_cell_length_a                    12.680174
_cell_length_b                    10.801344
_cell_length_c                    9.855561
_cell_angle_alpha                 88.385974
_cell_angle_beta                  97.843145
_cell_angle_gamma                 91.916998
_cell_volume                      1336.09094005

loop_
_atom_site_label
_atom_site_type_symbol
_atom_type_description
_atom_site_fract_x
_atom_site_fract_y
_atom_site_fract_z
_atom_type_partial_charge
C1    C     C_R   0.506087 0.260469 0.503421 0.871900
C2    C     C_R   0.701977 0.508328 0.526821 0.883747
C3    C     C_R   0.814760 0.534878 0.538852 -0.131924
C4    C     C_R   0.183696 0.476670 0.451448 -0.159714
C5    C     C_R   0.025357 0.344317 0.433795 0.174859
C6    C     C_R   0.942375 0.670840 0.438742 0.175303
C7    C     C_R   0.136533 0.356193 0.443235 0.123839
C8    C     C_R   0.848171 0.655515 0.500216 0.087526
C9    C     C_R   0.121926 0.582811 0.440344 -0.093296
C10   C     C_R   0.876646 0.432805 0.528895 -0.101181
C11   C     C_R   0.011585 0.568945 0.445927 0.031329
C12   C     C_R   0.496527 0.739990 0.497465 0.866230
C13   C     C_R   0.969924 0.447460 0.468530 -0.006552
C14   C     C_R   0.554851 0.069223 0.403580 -0.053326
C15   C     C_R   0.457801 0.932303 0.603755 -0.057043
C16   C     C_R   0.541303 0.942108 0.391937 -0.068883
C17   C     C_R   0.473782 0.058730 0.616644 -0.073027
C18   C     C_1   0.848417 0.316550 0.595135 0.147276
C19   C     C_1   0.176643 0.703296 0.444924 0.178188
C20   C     C_3   0.782318 0.766166 0.525701 -0.414289
C21   C     C_3   0.846358 0.860677 0.619083 -0.812792
C22   C     C_3   0.203084 0.240451 0.458688 -0.396261
C23   C     C_R   0.495436 0.873212 0.494522 -0.127756
C24   C     C_3   0.201334 0.179781 0.600207 -0.854789
C25   C     C_3   0.965925 0.230656 0.368653 -0.421837
C26   C     C_3   0.973856 0.228029 0.215277 -0.831159
C27   C     C_3   0.958007 0.785318 0.346986 -0.413172
C28   C     C_3   0.969326 0.750356 0.200340 -0.826519
C29   C     C_1   0.615616 0.138017 0.309252 0.216474
C30   C     C_1   0.398128 0.865309 0.700735 0.236542
C31   C     C_1   0.573578 0.886100 0.272233 0.204215
C32   C     C_1   0.451132 0.113507 0.742406 0.227964
C33   C     C_1   0.660003 0.634295 0.885139 0.226076
C34   C     C_R   0.514200 0.127942 0.510303 -0.135208
C35   C     C_1   0.342047 0.362839 0.116540 0.234932
C36   C     C_R   0.578076 0.562097 0.084506 -0.093983
C37   C     C_R   0.422245 0.437153 0.915697 -0.088990
C38   C     C_R   0.577668 0.563469 0.940920 0.057388
C39   C     C_R   0.422693 0.435796 0.059432 0.058276
C40   C     C_R   0.297883 0.492552 0.472487 0.901652
H1    H     H_    0.641075 0.610167 0.149625 0.150716
H2    H     H_    0.242595 0.090489 0.605523 0.256898
H3    H     H_    0.173876 0.172264 0.379378 0.227216
H4    H     H_    0.287014 0.261052 0.444961 0.205697
H5    H     H_    0.935852 0.310758 0.162573 0.267537
H6    H     H_    0.057631 0.227111 0.195001 0.263613
H7    H     H_    0.931542 0.143671 0.171082 0.255725
H8    H     H_    0.995835 0.143651 0.420286 0.210150
H9    H     H_    0.879530 0.231124 0.374752 0.229053
H10   H     H_    0.042419 0.697842 0.196403 0.266387
H11   H     H_    0.898941 0.693371 0.156501 0.258256
H12   H     H_    0.360076 0.387499 0.850850 0.142837
H13   H     H_    0.974042 0.835830 0.135836 0.252536
H14   H     H_    0.889473 0.846803 0.336216 0.215952
H15   H     H_    0.025252 0.845693 0.390955 0.215496
H16   H     H_    0.883549 0.814426 0.714995 0.274877
H17   H     H_    0.909735 0.908072 0.568166 0.241702
H18   H     H_    0.792357 0.932324 0.645904 0.262930
H19   H     H_    0.748680 0.810929 0.428032 0.196227
H20   H     H_    0.712913 0.736988 0.576791 0.217004
H21   H     H_    0.242230 0.241709 0.680179 0.264953
H22   H     H_    0.118591 0.160362 0.621428 0.257523
N1    N     N_R   0.499970 0.499970 0.857200 -0.105437
N2    N     N_1   0.276743 0.303284 0.160885 -0.237258
N3    N     N_R   0.500030 0.500030 0.142800 -0.106260
N4    N     N_1   0.825757 0.224257 0.647973 -0.216076
N5    N     N_1   0.221591 0.798453 0.448277 -0.227170
N6    N     N_1   0.663876 0.192453 0.234337 -0.194349
N7    N     N_1   0.350724 0.812458 0.777738 -0.183141
N8    N     N_1   0.599485 0.843733 0.175920 -0.216846
N9    N     N_1   0.433510 0.155030 0.843607 -0.210555
N10   N     N_1   0.727151 0.692088 0.842722 -0.219788
O1    O     O_R   0.499990 0.316750 0.614620 -0.612494
O2    O     O_R   0.500010 0.683250 0.385380 -0.612239
O3    O     O_R   0.499990 0.316780 0.385290 -0.614545
O4    O     O_R   0.500010 0.683220 0.614710 -0.616775
O5    O     O_R   0.346360 0.499970 0.595710 -0.613451
O6    O     O_R   0.653640 0.500030 0.404290 -0.619132
O7    O     O_R   0.346360 0.499990 0.366380 -0.614236
O8    O     O_R   0.653640 0.500010 0.633620 -0.610853
Zn1   Zn    Zn3+2 0.500000 0.499980 0.653120 0.978846
Zn2   Zn    Zn3+2 0.500000 0.500020 0.346880 0.976460

loop_
_geom_bond_atom_site_label_1
_geom_bond_atom_site_label_2
_ccdc_geom_bond_type
C24   H21   S    
C12   O2    A    
C24   H2    S    
C27   H14   S    
C16   C31   S    
C12   C23   S    
C8    C20   S    
N1    Zn1   S    
C28   H11   S    
C27   H15   S    
C26   H5    S    
C28   H10   S    
C9    C19   S    
C31   N8    T    
C22   H4    S    
C22   H3    S    
C19   N5    T    
C35   N2    T    
C20   H20   S    
C5    C13   A    
C33   N10   T    
C15   C23   A    
C39   N3    A    
C36   H1    S    
O2    Zn2   S    
C4    C7    A    
O1    Zn1   S    
C37   N1    A    
C1    C34   S    
C32   N9    T    
C1    O3    A    
C4    C40   S    
C3    C8    A    
C6    C11   A    
C5    C7    A    
C37   H12   S    
C36   N3    A    
C6    C8    A    
C25   C26   S    
C35   C39   S    
C21   H17   S    
C2    O6    A    
C21   H16   S    
C29   N6    T    
O6    Zn2   S    
C6    C27   S    
O5    Zn1   S    
C40   O7    A    
C20   H19   S    
C9    C11   A    
C25   H8    S    
C26   H7    S    
C5    C25   S    
C16   C23   A    
C12   O4    A    
C14   C16   A    
C17   C34   A    
C14   C29   S    
C30   N7    T    
C15   C30   S    
C38   N1    A    
C15   C17   A    
C24   H22   S    
O8    Zn1   S    
C10   C13   A    
O4    Zn1   S    
C14   C34   A    
O7    Zn2   S    
C28   H13   S    
O3    Zn2   S    
C18   N4    T    
C7    C22   S    
C33   C38   S    
C1    O1    A    
C36   C38   A    
C2    C3    S    
C21   H18   S    
C37   C39   A    
C3    C10   A    
C11   C13   A    
N3    Zn2   S    
C10   C18   S    
C22   C24   S    
C25   H9    S    
C2    O8    A    
C26   H6    S    
C20   C21   S    
C27   C28   S    
C17   C32   S    
C40   O5    A    
C4    C9    A    
