data_mof_unit_13418.cif
_audit_creation_date              2012-12-11T16:20:07-0500
_audit_creation_method            fapswitch 2.2
_symmetry_space_group_name_H-M    P1
_symmetry_Int_Tables_number       1
_space_group_crystal_system       triclinic
_cell_length_a                    13.488661
_cell_length_b                    14.026934
_cell_length_c                    30.089034
_cell_angle_alpha                 97.893187
_cell_angle_beta                  90.190406
_cell_angle_gamma                 118.641649
_cell_volume                      4933.34162622

loop_
_atom_site_label
_atom_site_type_symbol
_atom_type_description
_atom_site_fract_x
_atom_site_fract_y
_atom_site_fract_z
_atom_type_partial_charge
C1    C     C_R   0.720655 0.098796 0.568943 0.543233
C2    C     C_1   0.347373 0.652973 0.762177 -0.016920
C3    C     C_R   0.740343 0.776051 0.573993 -0.100257
C4    C     C_R   0.716479 0.708558 0.532273 -0.110460
C5    C     C_R   0.604091 0.638179 0.515335 -0.110338
C6    C     C_R   0.515324 0.635665 0.539954 -0.068905
C7    C     C_R   0.825622 0.330914 0.426250 0.048461
C8    C     C_R   0.893445 0.361551 0.466728 -0.072421
C9    C     C_R   0.899567 0.445538 0.499516 -0.104919
C10   C     C_R   0.838477 0.499742 0.492117 -0.104357
C11   C     C_R   0.771533 0.470421 0.451822 -0.110207
C12   C     C_R   0.765220 0.386524 0.418902 -0.081281
C13   C     C_1   0.351458 0.662022 0.723130 -0.013454
C14   C     C_2   0.769923 0.016215 0.071315 0.233289
C15   C     C_2   0.509304 0.668408 0.912738 0.240356
C16   C     C_2   0.445828 0.079756 0.796911 0.187138
C17   C     C_R   0.383502 0.787397 0.550937 0.533746
C18   C     C_R   0.298498 0.597839 0.896816 -0.016617
C19   C     C_3   0.442078 0.159448 0.726123 -0.189762
C20   C     C_3   0.229718 0.051990 0.712309 -0.209339
C21   C     C_3   0.216077 0.061476 0.763661 -0.198109
C22   C     C_1   0.297135 0.197052 0.877323 -0.012325
C23   C     C_3   0.337694 0.154076 0.701612 0.049525
C24   C     C_3   0.431627 0.167392 0.777909 -0.045466
C25   C     C_R   0.351233 0.674951 0.676950 0.031681
C26   C     C_3   0.318479 0.167035 0.789131 0.066059
C27   C     C_3   0.319829 0.266921 0.771562 -0.238519
C28   C     C_3   0.330876 0.259061 0.720119 -0.224292
C29   C     C_R   0.397823 0.118809 0.569367 0.545942
C30   C     C_1   0.306904 0.178348 0.837858 -0.070706
C31   C     C_1   0.349835 0.146028 0.652990 -0.059639
C32   C     C_1   0.367039 0.136175 0.613891 -0.009138
C33   C     C_3   0.772225 0.240111 0.727983 -0.096649
C34   C     C_3   0.943546 0.209002 0.717339 -0.058802
C35   C     C_3   0.961107 0.221456 0.769439 -0.232750
C36   C     C_R   0.266634 0.691279 0.658608 -0.108328
C37   C     C_1   0.894932 0.203335 0.879198 -0.012486
C38   C     C_3   0.815380 0.162622 0.703175 0.048148
C39   C     C_3   0.791589 0.251213 0.780119 -0.208640
C40   C     C_3   0.846237 0.181228 0.791247 0.041291
C41   C     C_R   0.720889 0.095560 0.442945 0.536455
C42   C     C_3   0.766826 0.059621 0.770575 -0.223505
C43   C     C_3   0.746208 0.048767 0.719003 -0.242210
C44   C     C_1   0.866762 0.191763 0.840044 -0.067064
C45   C     C_1   0.793995 0.148364 0.654100 -0.033479
C46   C     C_1   0.767471 0.130366 0.614465 0.002399
C47   C     C_R   0.272389 0.717424 0.615496 -0.141189
C48   C     C_3   0.372738 0.794672 0.270608 -0.211350
C49   C     C_3   0.230306 0.595682 0.270385 -0.214170
C50   C     C_3   0.222351 0.576203 0.218253 -0.217246
C51   C     C_1   0.308596 0.606758 0.111133 -0.007247
C52   C     C_3   0.349887 0.688462 0.289154 0.067429
C53   C     C_R   0.382229 0.784363 0.424838 0.542606
C54   C     C_3   0.364838 0.775141 0.218445 -0.212838
C55   C     C_3   0.336433 0.655346 0.200589 0.065647
C56   C     C_3   0.430503 0.635056 0.219639 -0.212956
C57   C     C_3   0.438453 0.654622 0.271895 -0.216421
C58   C     C_R   0.227378 0.606253 0.823974 -0.120465
C59   C     C_1   0.326114 0.634220 0.151238 -0.066682
C60   C     C_1   0.357646 0.709557 0.338491 -0.076619
C61   C     C_1   0.366509 0.736761 0.378581 -0.023489
C62   C     C_R   0.358148 0.131913 0.400421 0.021870
C63   C     C_R   0.420566 0.233219 0.385074 -0.128806
C64   C     C_R   0.405258 0.241532 0.340268 -0.117726
C65   C     C_R   0.396184 0.114389 0.442892 0.540762
C66   C     C_R   0.327231 0.149064 0.310659 0.040288
C67   C     C_R   0.258354 0.050457 0.326373 -0.119787
C68   C     C_R   0.273195 0.041951 0.371231 -0.131085
C69   C     C_R   0.209554 0.585312 0.867729 -0.132953
C70   C     C_R   0.239357 0.090806 0.147370 -0.111365
C71   C     C_R   0.232024 0.110621 0.103702 -0.121169
C72   C     C_R   0.411478 0.279853 0.119655 -0.127005
C73   C     C_R   0.418522 0.259801 0.163326 -0.117461
C74   C     C_R   0.330448 0.167467 0.177551 0.036506
C75   C     C_1   0.327825 0.157818 0.224139 -0.033964
C76   C     C_1   0.325818 0.152928 0.263574 -0.033784
C77   C     C_R   0.364039 0.729181 0.590196 0.007590
C78   C     C_R   0.315528 0.207915 0.090131 0.018828
C79   C     C_R   0.781232 0.132311 0.402547 0.010573
C80   C     C_R   0.409683 0.641029 0.882064 0.003048
C81   C     C_R   0.784581 0.052255 0.369772 -0.141015
C82   C     C_R   0.809685 0.073156 0.326267 -0.124101
C83   C     C_R   0.832840 0.174469 0.315014 0.025382
C84   C     C_R   0.840111 0.258530 0.347927 -0.115061
C85   C     C_R   0.816170 0.239284 0.392156 -0.018004
C86   C     C_R   0.920166 0.308948 0.170590 -0.128346
C87   C     C_R   0.942656 0.316648 0.125884 -0.138061
C88   C     C_R   0.826249 0.117516 0.105361 0.008149
C89   C     C_R   0.444831 0.702838 0.607534 -0.020798
C90   C     C_R   0.805030 0.111250 0.150860 -0.075967
C91   C     C_R   0.425800 0.660576 0.837297 -0.078017
C92   C     C_R   0.854885 0.206170 0.183226 0.009838
C93   C     C_1   0.846521 0.197452 0.229863 -0.033827
C94   C     C_1   0.841479 0.188819 0.268938 -0.030578
C95   C     C_R   0.900845 0.221335 0.093215 -0.014319
C96   C     C_R   0.283744 0.232339 0.922624 0.546881
C97   C     C_R   0.266623 0.548146 0.938302 0.521131
C98   C     C_R   0.944899 0.221872 0.923581 0.544029
C99   C     C_R   0.292635 0.243200 0.049276 0.539584
C100  C     C_R   0.275143 0.558518 0.064988 0.548836
C101  C     C_R   0.437925 0.677260 0.651249 -0.118199
C102  C     C_R   0.334273 0.640523 0.808384 0.014468
C103  C     C_R   0.953019 0.232927 0.049994 0.516794
C104  C     C_R   0.817189 0.350421 0.711050 0.024989
C105  C     C_R   0.923858 0.441269 0.726785 -0.091056
C106  C     C_R   0.961414 0.540943 0.710756 -0.108355
C107  C     C_R   0.894352 0.551162 0.678323 -0.105290
C108  C     C_R   0.789096 0.461755 0.662038 -0.102766
C109  C     C_R   0.750503 0.362204 0.678329 -0.092655
C110  C     C_2   0.990041 0.138017 0.693956 0.184713
C111  C     C_R   0.538666 0.704001 0.581735 0.049960
C112  C     C_R   0.651875 0.773706 0.598759 -0.075156
Cr1   Cr    Cr6+3 0.583400 0.162540 0.509180 1.031635
Cr2   Cr    Cr6+3 0.584070 0.916690 0.495550 1.031628
Cr3   Cr    Cr6+3 0.332550 0.920810 0.495240 1.017693
Cr4   Cr    Cr6+3 0.086700 0.177000 0.983690 1.038866
Cr5   Cr    Cr6+3 0.336880 0.419130 0.994740 1.042485
Cr6   Cr    Cr6+3 0.084850 0.422220 0.995960 1.025781
H1    H     H_    0.123754 0.552799 0.877802 0.143104
H2    H     H_    0.520142 0.233292 0.719345 0.082817
H3    H     H_    0.502958 0.247792 0.794144 0.074281
H4    H     H_    0.156548 0.591995 0.801763 0.108092
H5    H     H_    0.240596 0.270100 0.779135 0.121875
H6    H     H_    0.844777 0.337897 0.796462 0.120363
H7    H     H_    0.992362 0.291466 0.707156 0.152778
H8    H     H_    0.019215 0.309262 0.783420 0.103524
H9    H     H_    0.003231 0.174696 0.778918 0.107052
H10   H     H_    0.654071 0.015212 0.710101 0.129222
H11   H     H_    0.768838 0.987621 0.701440 0.105859
H12   H     H_    0.451395 0.086717 0.712080 0.152311
H13   H     H_    0.684349 0.028055 0.786076 0.142660
H14   H     H_    0.198968 0.689083 0.678428 0.111166
H15   H     H_    0.678589 0.196429 0.720465 0.099928
H16   H     H_    0.708643 0.221915 0.795174 0.102192
H17   H     H_    0.805197 0.008040 0.777737 0.123086
H18   H     H_    0.298292 0.791708 0.205295 0.118833
H19   H     H_    0.310164 0.820989 0.282440 0.117237
H20   H     H_    0.211964 0.518258 0.282940 0.119881
H21   H     H_    0.165046 0.618125 0.282295 0.114008
H22   H     H_    0.153039 0.589048 0.205191 0.110176
H23   H     H_    0.153631 0.044102 0.694101 0.138954
H24   H     H_    0.199802 0.489200 0.205805 0.120630
H25   H     H_    0.525327 0.720242 0.285003 0.113295
H26   H     H_    0.208784 0.735834 0.603320 0.132871
H27   H     H_    0.423724 0.578237 0.284483 0.114399
H28   H     H_    0.513557 0.691172 0.207697 0.123347
H29   H     H_    0.458465 0.862909 0.283635 0.122928
H30   H     H_    0.446745 0.833648 0.206457 0.125785
H31   H     H_    0.411938 0.549209 0.207186 0.119295
H32   H     H_    0.157402 0.053420 0.081627 0.137618
H33   H     H_    0.171108 0.018936 0.158269 0.114604
H34   H     H_    0.235071 0.975976 0.700430 0.136316
H35   H     H_    0.197588 0.978675 0.303487 0.104236
H36   H     H_    0.224047 0.962817 0.382057 0.130775
H37   H     H_    0.486276 0.303948 0.406843 0.122398
H38   H     H_    0.489454 0.319308 0.186674 0.107841
H39   H     H_    0.477137 0.355331 0.110158 0.135409
H40   H     H_    0.458459 0.318298 0.328199 0.101846
H41   H     H_    0.999959 0.397021 0.117576 0.139932
H42   H     H_    0.958456 0.382674 0.195625 0.106265
H43   H     H_    0.861801 0.338121 0.338901 0.104915
H44   H     H_    0.759387 0.970243 0.376669 0.134447
H45   H     H_    0.207499 0.987055 0.776075 0.171680
H46   H     H_    0.752065 0.032346 0.161397 0.153371
H47   H     H_    0.509150 0.690801 0.824778 0.155428
H48   H     H_    0.805190 0.008210 0.300819 0.110796
H49   H     H_    0.501520 0.661482 0.665595 0.106039
H50   H     H_    0.978419 0.436182 0.751615 0.085756
H51   H     H_    0.042577 0.610422 0.723679 0.102312
H52   H     H_    0.923946 0.628353 0.665825 0.100126
H53   H     H_    0.737234 0.469550 0.636775 0.113672
H54   H     H_    0.668880 0.293821 0.664953 0.103533
H55   H     H_    0.968216 0.059187 0.703869 0.095826
H56   H     H_    0.136245 0.064355 0.770107 0.096379
H57   H     H_    0.671506 0.827215 0.630834 0.094376
H58   H     H_    0.827411 0.830538 0.587067 0.113676
H59   H     H_    0.785064 0.710943 0.513037 0.098805
H60   H     H_    0.585744 0.585801 0.483069 0.094969
H61   H     H_    0.428563 0.581072 0.526434 0.097859
H62   H     H_    0.940809 0.319841 0.472960 0.099458
H63   H     H_    0.951404 0.468374 0.530729 0.109786
H64   H     H_    0.843008 0.564360 0.517645 0.101520
H65   H     H_    0.724128 0.512370 0.446173 0.092306
H66   H     H_    0.711854 0.363663 0.388085 0.096447
H67   H     H_    0.408169 0.333288 0.712999 0.118597
H68   H     H_    0.772758 0.021276 0.035667 0.131703
H69   H     H_    0.503572 0.674084 0.948840 0.131528
H70   H     H_    0.499788 0.102348 0.827619 0.104799
H71   H     H_    0.257023 0.257924 0.703112 0.180975
H72   H     H_    0.391755 0.345163 0.789044 0.129681
O1    O     O_R   0.494060 0.188820 0.559230 -0.513581
O2    O     O_R   0.170530 0.527770 0.952070 -0.510413
O3    O     O_R   0.987720 0.318450 0.945940 -0.497232
O4    O     O_R   0.678470 0.153390 0.554100 -0.499261
O5    O     O_R   0.976400 0.159230 0.032040 -0.517507
O6    O     O_R   0.193740 0.188470 0.029020 -0.499910
O7    O     O_R   0.364860 0.335530 0.039220 -0.514653
O8    O     O_R   0.330170 0.515340 0.044800 -0.489665
O9    O     O_R   0.177230 0.536000 0.050040 -0.513766
O10   O     O_R   0.993930 0.326080 0.036750 -0.499562
O11   O     O_3   0.169480 0.339450 0.991460 -0.247161
O12   O     O_R   0.480140 0.824500 0.445020 -0.496380
O13   O     O_R   0.697870 0.003940 0.549410 -0.499757
O14   O     O_R   0.480980 0.827230 0.535590 -0.486419
O15   O     O_R   0.309390 0.811640 0.537920 -0.520837
O16   O     O_R   0.341810 0.023400 0.546180 -0.493032
O17   O     O_R   0.493150 0.185870 0.461540 -0.511624
O18   O     O_R   0.677630 0.150660 0.463530 -0.483598
O19   O     O_R   0.696960 0.000990 0.451710 -0.519676
O20   O     O_2   0.052151 0.168501 0.663567 -0.534146
O21   O     O_2   0.717879 0.925558 0.082670 -0.518170
O22   O     O_2   0.600134 0.687096 0.898075 -0.512292
O23   O     O_R   0.308480 0.808690 0.440220 -0.511566
O24   O     O_2   0.395719 0.983548 0.778998 -0.527233
O25   O     O_R   0.340970 0.020670 0.455610 -0.503227
O26   O     O_3   0.500010 0.000010 0.499990 -0.246076
O27   O     O_R   0.969690 0.151000 0.934080 -0.500334
O28   O     O_R   0.187530 0.180840 0.938210 -0.492793
O29   O     O_R   0.358160 0.327300 0.941250 -0.500263
O30   O     O_R   0.323950 0.507710 0.953980 -0.506839

loop_
_geom_bond_atom_site_label_1
_geom_bond_atom_site_label_2
_ccdc_geom_bond_type
C55   C56   S    
C93   C94   T    
C21   H45   S    
C55   C59   S    
C6    H61   S    
C35   H8    S    
C33   C104  S    
C81   H44   S    
C111  C112  A    
C4    H59   S    
C21   C26   S    
Cr6   O10   S    
C28   H71   S    
C49   C50   S    
C81   C82   A    
C7    C8    A    
C12   H66   S    
C45   C46   T    
C56   C57   S    
C48   C54   S    
C77   C89   A    
C26   C27   S    
C33   C39   S    
C48   H19   S    
Cr5   O30   S    
C5    C6    A    
Cr1   O17   S    
Cr2   O19   S    
C24   C26   S    
C65   O25   A    
C29   C32   S    
C68   H36   S    
C36   H14   S    
C104  C109  A    
C14   H68   S    
C50   H22   S    
C1    C46   S    
C71   H32   S    
C106  C107  A    
C2    C102  S    
C48   H29   S    
C108  C109  A    
Cr3   O23   S    
C36   C47   A    
C34   C35   S    
Cr1   O4    S    
C101  H49   S    
Cr6   O3    S    
C37   C98   S    
C38   C45   S    
C72   C78   A    
C52   C60   S    
Cr4   O5    S    
Cr6   O2    S    
C6    C111  A    
C83   C84   A    
C8    C9    A    
C87   C95   A    
C70   C74   A    
C107  C108  A    
Cr2   O12   S    
Cr5   O29   S    
C42   H13   S    
C58   C102  A    
C18   C97   S    
C9    C10   A    
C96   O28   A    
C109  H54   S    
C41   O19   A    
C18   C69   A    
C40   C42   S    
C66   C67   A    
C88   C95   A    
C66   C76   S    
C16   C24   S    
C49   H20   S    
C13   C25   S    
C110  O20   D    
C103  O5    A    
Cr5   O11   S    
Cr6   O9    S    
C104  C105  A    
C95   C103  S    
Cr4   O11   S    
C97   O2    A    
C73   C74   A    
C7    C12   A    
Cr1   O1    S    
C58   H4    S    
C74   C75   S    
C57   H25   S    
C67   C68   A    
Cr1   O18   S    
Cr2   O26   S    
C43   H11   S    
C11   H65   S    
C84   C85   A    
C41   O18   A    
C16   H70   S    
C39   C40   S    
C79   C81   A    
C27   H5    S    
C86   C87   A    
C72   C73   A    
C98   O27   A    
C83   C94   S    
C15   H69   S    
C47   H26   S    
C69   H1    S    
C72   H39   S    
C20   H34   S    
C98   O3    A    
C90   H46   S    
C42   H17   S    
C23   C31   S    
C17   O14   A    
C19   C23   S    
C75   C76   T    
C15   O22   D    
C57   H27   S    
C8    H62   S    
C90   C92   A    
C15   C80   S    
C20   C23   S    
C40   C44   S    
C3    C112  A    
C49   C52   S    
C54   H18   S    
C99   O7    A    
C62   C63   A    
C17   C77   S    
C97   O30   A    
Cr3   O25   S    
C34   H7    S    
C23   C28   S    
C16   O24   D    
C35   H9    S    
C2    C13   T    
C29   O1    A    
C70   C71   A    
C14   O21   D    
C27   H72   S    
C88   C90   A    
C19   H2    S    
C82   C83   A    
C10   C11   A    
C49   H21   S    
C10   H64   S    
C106  H51   S    
Cr2   O14   S    
C108  H53   S    
Cr6   O11   S    
C51   C59   T    
C42   C43   S    
C47   C77   A    
C91   C102  A    
C53   C61   S    
C3    C4    A    
C1    O13   A    
C79   C85   A    
Cr5   O7    S    
C39   H6    S    
Cr5   O8    S    
C54   H30   S    
C82   H48   S    
C110  H55   S    
C51   C100  S    
C54   C55   S    
C53   O23   A    
C22   C30   T    
C62   C65   S    
C89   C101  A    
C24   H3    S    
C34   C38   S    
C22   C96   S    
C20   H23   S    
C91   H47   S    
C31   C32   T    
C70   H33   S    
C50   C55   S    
C4    C5    A    
C43   H10   S    
C41   C79   S    
C11   C12   A    
C58   C69   A    
C26   C30   S    
C65   O17   A    
C78   C99   S    
C96   O29   A    
C105  C106  A    
C89   C111  S    
C53   O12   A    
C105  H50   S    
C62   C68   A    
C67   H35   S    
C37   C44   T    
Cr3   O15   S    
C35   C40   S    
C56   H31   S    
C14   C88   S    
C38   C43   S    
C86   C92   A    
C28   H67   S    
C25   C101  A    
C7    C85   S    
C86   H42   S    
C19   H12   S    
C80   C91   A    
C34   C110  S    
C99   O6    A    
C73   H38   S    
C17   O15   A    
C92   C93   S    
C87   H41   S    
Cr3   O26   S    
C19   C24   S    
C103  O10   A    
C56   H28   S    
C5    H60   S    
C9    H63   S    
C52   C57   S    
C29   O16   A    
C25   C36   A    
C63   H37   S    
C63   C64   A    
Cr4   O6    S    
C100  O9    A    
C33   H15   S    
C3    H58   S    
C48   C52   S    
C112  H57   S    
C20   C21   S    
C18   C80   A    
C21   H56   S    
Cr3   O16   S    
C64   H40   S    
C27   C28   S    
Cr2   O13   S    
C60   C61   T    
C33   C38   S    
Cr1   O26   S    
Cr4   O27   S    
Cr4   O28   S    
C107  H52   S    
C71   C78   A    
C84   H43   S    
C50   H24   S    
C64   C66   A    
C1    O4    A    
C39   H16   S    
C100  O8    A    
