data_mof_unit_51464.cif
_audit_creation_date              2012-10-26T20:03:18-0400
_audit_creation_method            fapswitch 2.2
_symmetry_space_group_name_H-M    P1
_symmetry_Int_Tables_number       1
_space_group_crystal_system       triclinic
_cell_length_a                    10.60252
_cell_length_b                    12.335166
_cell_length_c                    13.135645
_cell_angle_alpha                 116.586822
_cell_angle_beta                  77.699856
_cell_angle_gamma                 100.959987
_cell_volume                      1492.14879806

loop_
_atom_site_label
_atom_site_type_symbol
_atom_type_description
_atom_site_fract_x
_atom_site_fract_y
_atom_site_fract_z
_atom_type_partial_charge
C1    C     C_R   0.516980 0.854754 0.285781 0.559866
C2    C     C_R   0.511222 0.564867 0.008126 0.035383
C3    C     C_R   0.468908 0.652266 0.120234 -0.004209
C4    C     C_R   0.740344 0.998991 0.499454 0.564767
C5    C     C_R   0.460686 0.440474 0.974978 0.048456
C6    C     C_R   0.359651 0.406852 0.048973 0.054092
C7    C     C_R   0.308695 0.496256 0.153081 -0.116302
C8    C     C_R   0.361151 0.617227 0.187599 -0.109475
C9    C     C_R   0.508214 0.348035 0.870282 -0.119806
C10   C     C_R   0.353060 0.195160 0.909148 -0.125689
C11   C     C_R   0.534878 0.772425 0.161478 0.014245
C12   C     C_3   0.017891 0.011791 0.602177 -0.127508
C13   C     C_R   0.714679 0.349612 0.334808 -0.108237
C14   C     C_R   0.322940 0.758759 0.644239 0.062211
C15   C     C_R   0.284009 0.661586 0.674647 -0.150362
C16   C     C_R   0.479951 0.144958 0.713532 0.540558
C17   C     C_R   0.350623 0.558353 0.619748 -0.124291
C18   C     C_R   0.457999 0.551052 0.533255 -0.015633
C19   C     C_R   0.494369 0.653214 0.505342 0.137638
C20   C     C_R   0.530941 0.447210 0.474296 -0.048926
C21   C     C_R   0.640277 0.448909 0.390484 0.043425
C22   C     C_R   0.673851 0.549892 0.364173 0.184068
C23   C     C_3   0.933781 0.905021 0.519770 -0.096353
C24   C     C_R   0.601524 0.648513 0.420160 -0.065890
C25   C     C_R   0.500607 0.341008 0.495042 0.041026
C26   C     C_R   0.680891 0.249738 0.360875 0.057126
C27   C     C_R   0.259716 0.000419 0.499720 0.542063
C28   C     C_3   0.982106 0.986588 0.395924 -0.112633
C29   C     C_3   0.041162 0.893946 0.416509 -0.103388
C30   C     C_3   0.122938 0.000710 0.498948 0.032808
C31   C     C_3   0.066239 0.093370 0.478316 -0.120119
C32   C     C_3   0.958951 0.104447 0.581599 -0.126263
C33   C     C_3   0.877134 0.997792 0.499230 0.044522
C34   C     C_R   0.308416 0.284233 0.016429 -0.117700
C35   C     C_R   0.450905 0.228004 0.834808 0.001515
C36   C     C_R   0.629300 0.807393 0.084240 0.238957
C37   C     C_R   0.657376 0.724903 0.970398 -0.085256
C38   C     C_R   0.601178 0.605310 0.932736 -0.155666
Cl1   Cl    Cl    0.722687 0.950620 0.124609 -0.642460
Cl2   Cl    Cl    0.807357 0.558405 0.260341 -0.657111
Cu1   Cu    Cu3+1 0.529830 0.098270 0.475420 0.970345
Cu2   Cu    Cu3+1 0.470170 0.901730 0.524580 0.927677
H1    H     H_    0.588751 0.366604 0.812686 0.118447
H2    H     H_    0.201934 0.666306 0.741058 0.111930
H3    H     H_    0.633811 0.720323 0.393938 0.213766
H4    H     H_    0.123133 0.170545 0.461428 0.127745
H5    H     H_    0.921976 0.190373 0.649194 0.121443
H6    H     H_    0.035895 0.022269 0.686511 0.119422
H7    H     H_    0.307103 0.102288 0.882252 0.125449
H8    H     H_    0.227841 0.472627 0.208293 0.125656
H9    H     H_    0.078117 0.807980 0.348940 0.143336
H10   H     H_    0.316396 0.486280 0.647244 0.101615
H11   H     H_    0.876789 0.827751 0.536458 0.144839
H12   H     H_    0.628949 0.547524 0.843197 0.107955
H13   H     H_    0.230867 0.257994 0.072340 0.121629
H14   H     H_    0.727631 0.752427 0.910904 0.153755
H15   H     H_    0.313839 0.682956 0.266730 0.145495
H16   H     H_    0.739960 0.174913 0.320047 0.184507
H17   H     H_    0.799500 0.348351 0.271852 0.175705
H18   H     H_    0.418895 0.331571 0.556233 0.121052
H19   H     H_    0.270654 0.838477 0.687243 0.125763
H20   H     H_    0.963965 0.976075 0.311616 0.153481
N1    N     N_R   0.575030 0.246270 0.438190 -0.237693
N2    N     N_R   0.425760 0.754330 0.561190 -0.236121
O1    O     O_R   0.537510 0.972500 0.318130 -0.435387
O2    O     O_R   0.487140 0.806530 0.359650 -0.536937
O3    O     O_R   0.708330 0.082950 0.479220 -0.499617
O4    O     O_R   0.657960 0.916980 0.520740 -0.523007
O5    O     O_R   0.512860 0.193470 0.640350 -0.514127
O6    O     O_R   0.462490 0.027500 0.681870 -0.501747
O7    O     O_R   0.342040 0.083020 0.479260 -0.509183
O8    O     O_R   0.291670 0.917050 0.520780 -0.516641

loop_
_geom_bond_atom_site_label_1
_geom_bond_atom_site_label_2
_ccdc_geom_bond_type
Cu1   Cu2   S    
C1    C11   S    
C12   H6    S    
C7    C8    A    
Cu1   O3    S    
C12   C23   S    
C37   C38   A    
C24   H3    S    
C23   C29   S    
C36   C37   A    
C15   H2    S    
C16   C35   S    
C5    C6    A    
C20   C25   A    
Cu2   O6    S    
C17   C18   A    
C18   C19   A    
C25   N1    A    
C37   H14   S    
C23   C33   S    
C31   H4    S    
C1    O1    A    
C10   C35   A    
C25   H18   S    
Cu1   O7    S    
C22   Cl2   S    
C34   H13   S    
C21   C22   A    
C12   C32   S    
C27   C30   S    
Cu2   O4    S    
C17   H10   S    
C23   H11   S    
C28   C31   S    
C9    H1    S    
C16   O6    A    
C3    C8    A    
C4    O4    A    
Cu1   O1    S    
C14   H19   S    
C6    C34   A    
C11   C36   A    
C26   N1    A    
C5    C9    A    
C29   C30   S    
C8    H15   S    
C2    C38   A    
C31   C32   S    
C38   H12   S    
C19   N2    A    
C14   N2    A    
Cu2   O8    S    
C1    O2    A    
C13   C21   A    
C10   C34   A    
C26   H16   S    
C28   C33   S    
C32   H5    S    
C22   C24   A    
C13   C26   A    
C2    C5    A    
Cu1   N1    S    
Cu2   N2    S    
C27   O7    A    
Cu1   O5    S    
C29   H9    S    
C15   C17   A    
C4    C33   S    
C28   C29   S    
C12   C30   S    
C36   Cl1   S    
Cu2   O2    S    
C16   O5    A    
C7    H8    S    
C4    O3    A    
C6    C7    A    
C13   H17   S    
C32   C33   S    
C2    C3    A    
C30   C31   S    
C19   C24   A    
C18   C20   A    
C3    C11   A    
C20   C21   A    
C9    C35   A    
C14   C15   A    
C10   H7    S    
C27   O8    A    
C28   H20   S    
