data_mof_unit_27235.cif
_audit_creation_date              2012-12-10T18:06:01-0500
_audit_creation_method            fapswitch 2.2
_symmetry_space_group_name_H-M    P1
_symmetry_Int_Tables_number       1
_space_group_crystal_system       triclinic
_cell_length_a                    12.573675
_cell_length_b                    13.201324
_cell_length_c                    15.002633
_cell_angle_alpha                 90.305466
_cell_angle_beta                  102.197595
_cell_angle_gamma                 83.581162
_cell_volume                      2418.36846957

loop_
_atom_site_label
_atom_site_type_symbol
_atom_type_description
_atom_site_fract_x
_atom_site_fract_y
_atom_site_fract_z
_atom_type_partial_charge
C1    C     C_R   0.440280 0.690500 0.482089 0.873632
C2    C     C_R   0.402972 0.490849 0.797856 -0.258871
C3    C     C_R   0.500335 0.500963 0.769273 -0.078626
C4    C     C_R   0.500193 0.500393 0.673167 0.904342
C5    C     C_R   0.597547 0.511192 0.832455 -0.259936
C6    C     C_R   0.729896 0.055899 0.498296 -0.189655
C7    C     C_R   0.592713 0.201704 0.490199 -0.079656
C8    C     C_R   0.299304 0.837060 0.469706 -0.194302
C9    C     C_R   0.271805 0.941137 0.474761 -0.156951
C10   C     C_R   0.349636 0.007006 0.471991 -0.166251
C11   C     C_R   0.453340 0.970615 0.454587 0.046469
C12   C     C_R   0.598146 0.509372 0.110354 0.118676
C13   C     C_R   0.479409 0.865475 0.442769 0.062433
C14   C     C_R   0.535879 0.035370 0.457557 0.058474
C15   C     C_R   0.646206 0.993559 0.469646 0.092575
C16   C     C_R   0.559747 0.309164 0.504222 0.879178
C17   C     C_R   0.668817 0.892666 0.445859 -0.255725
C18   C     C_R   0.582649 0.832802 0.420311 0.177466
C19   C     C_R   0.512181 0.140660 0.448188 0.143238
C20   C     C_R   0.702500 0.158802 0.515003 -0.248946
C21   C     C_R   0.404684 0.798234 0.459755 -0.116542
C22   C     C_R   0.080270 0.362282 0.361227 -0.308020
C23   C     C_R   0.305248 0.478813 0.011594 -0.219396
C24   C     C_R   0.801926 0.627925 0.609583 0.009572
C25   C     C_R   0.908115 0.654135 0.633387 -0.256477
C26   C     C_R   0.989028 0.604825 0.592784 -0.204365
C27   C     C_R   0.963750 0.528671 0.527628 0.019428
C28   C     C_R   0.500002 0.499044 0.326896 0.863109
C29   C     C_R   0.854070 0.504798 0.505733 0.226849
C30   C     C_R   0.041885 0.476938 0.482074 -0.015558
C31   C     C_R   0.007254 0.407242 0.412310 0.195843
C32   C     C_R   0.899887 0.383743 0.393527 -0.300643
C33   C     C_R   0.825290 0.430202 0.441011 -0.225004
C34   C     C_R   0.305233 0.479727 0.918985 -0.219291
C35   C     C_R   0.153418 0.491774 0.501948 -0.054444
C36   C     C_R   0.187645 0.384663 0.380994 -0.012041
C37   C     C_R   0.597327 0.508859 0.202377 -0.265971
C38   C     C_R   0.499997 0.498405 0.230894 -0.070180
C39   C     C_R   0.402879 0.487957 0.167737 -0.262230
C40   C     C_R   0.402202 0.488553 0.075379 0.118689
C41   C     C_R   0.500190 0.499348 0.046499 0.061844
C42   C     C_3   0.416329 0.183954 0.373899 -0.890706
C43   C     C_3   0.599535 0.745837 0.357738 -0.808386
C44   C     C_R   0.402214 0.490248 0.889894 0.117875
C45   C     C_R   0.500209 0.500148 0.953739 0.061027
C46   C     C_R   0.598218 0.510796 0.924847 0.119029
C47   C     C_R   0.695166 0.520590 0.988655 -0.219732
C48   C     C_R   0.695130 0.519889 0.081275 -0.221084
H1    H     H_    0.672590 0.516632 0.251574 0.169881
H2    H     H_    0.327664 0.479957 0.190198 0.161420
H3    H     H_    0.187803 0.540635 0.555541 0.123932
H4    H     H_    0.738791 0.665925 0.640970 0.141753
H5    H     H_    0.069713 0.628843 0.612626 0.134527
H6    H     H_    0.927641 0.712741 0.682994 0.149677
H7    H     H_    0.745200 0.406703 0.424708 0.218306
H8    H     H_    0.229706 0.470577 0.033330 0.145262
H9    H     H_    0.229677 0.472138 0.870207 0.147409
H10   H     H_    0.327603 0.483426 0.748670 0.160332
H11   H     H_    0.672806 0.518941 0.809980 0.162597
H12   H     H_    0.750986 0.863583 0.439509 0.155608
H13   H     H_    0.770729 0.528741 0.966927 0.145678
H14   H     H_    0.770660 0.527546 0.130072 0.148922
H15   H     H_    0.766800 0.205379 0.542979 0.172294
H16   H     H_    0.440490 0.245644 0.334818 0.239143
H17   H     H_    0.388872 0.124939 0.323828 0.236684
H18   H     H_    0.346301 0.214105 0.403646 0.244210
H19   H     H_    0.665825 0.688138 0.392950 0.265972
H20   H     H_    0.522845 0.711102 0.332145 0.223667
H21   H     H_    0.624974 0.774853 0.297006 0.217594
H22   H     H_    0.815217 0.024639 0.510317 0.142121
H23   H     H_    0.240569 0.786752 0.480478 0.157232
H24   H     H_    0.329537 0.085347 0.488747 0.152504
H25   H     H_    0.192532 0.970306 0.487510 0.140804
H26   H     H_    0.243454 0.355196 0.338958 0.133694
H27   H     H_    0.873319 0.328838 0.341886 0.158956
H28   H     H_    0.054085 0.311779 0.305670 0.144327
N1    N     N_R   0.222190 0.444670 0.452360 -0.098673
N2    N     N_R   0.776970 0.554790 0.547140 -0.136906
O1    O     O_R   0.366740 0.627160 0.477250 -0.619978
O2    O     O_R   0.544830 0.662520 0.507680 -0.608748
O3    O     O_R   0.410940 0.482340 0.616930 -0.625430
O4    O     O_R   0.589030 0.517700 0.647360 -0.623584
O5    O     O_R   0.455170 0.337480 0.492320 -0.601727
O6    O     O_R   0.633260 0.372840 0.522750 -0.639485
O7    O     O_R   0.410970 0.482300 0.352640 -0.628394
O8    O     O_R   0.589060 0.517660 0.383070 -0.656825
Zn1   Zn    Zn3+2 0.381090 0.476390 0.479680 0.936257
Zn2   Zn    Zn3+2 0.618910 0.523610 0.520320 0.918228

loop_
_geom_bond_atom_site_label_1
_geom_bond_atom_site_label_2
_ccdc_geom_bond_type
C24   H4    S    
O5    Zn1   S    
C1    C21   S    
C27   C29   A    
C22   H28   S    
C12   C48   A    
C32   H27   S    
O1    Zn1   S    
C23   H8    S    
C45   C46   A    
C26   C27   A    
C37   C38   A    
C30   C35   A    
C36   N1    A    
C38   C39   A    
C11   C14   A    
O8    Zn2   S    
C23   C40   A    
C29   C33   A    
C16   O6    A    
C6    H22   S    
C12   C37   A    
C6    C15   A    
C29   N2    A    
C47   C48   A    
C2    C44   A    
C43   H20   S    
C42   H17   S    
C9    C10   A    
C19   C42   S    
C43   H21   S    
C27   C30   A    
C9    H25   S    
C8    C21   A    
O7    Zn1   S    
C22   C31   A    
C5    H11   S    
C34   C44   A    
C25   H6    S    
C39   C40   A    
C8    C9    A    
C25   C26   A    
C35   N1    A    
C16   O5    A    
C12   C41   A    
C34   H9    S    
C37   H1    S    
C48   H14   S    
C31   C32   A    
C28   C38   S    
C23   C34   A    
C17   C18   A    
C13   C21   A    
C33   H7    S    
C24   C25   A    
O3    Zn1   S    
C36   H26   S    
C13   C18   A    
C24   N2    A    
C7    C16   S    
C7    C19   A    
C35   H3    S    
C1    O1    A    
C3    C4    S    
C26   H5    S    
C42   H16   S    
C22   C36   A    
C44   C45   A    
N2    Zn2   S    
C15   C17   A    
C46   C47   A    
C40   C41   A    
C8    H23   S    
C14   C19   A    
O6    Zn2   S    
C3    C5    A    
C47   H13   S    
C2    H10   S    
C6    C20   A    
C5    C46   A    
C32   C33   A    
C20   H15   S    
C2    C3    A    
O2    Zn2   S    
C18   C43   S    
C28   O8    A    
C11   C13   A    
C30   C31   A    
O4    Zn2   S    
C4    O3    A    
C10   C11   A    
C17   H12   S    
C39   H2    S    
C4    O4    A    
N1    Zn1   S    
C43   H19   S    
C7    C20   A    
C28   O7    A    
C42   H18   S    
C1    O2    A    
C41   C45   A    
C14   C15   A    
C10   H24   S    
