data_mof_unit_53107.cif
_audit_creation_date              2012-12-11T15:59:45-0500
_audit_creation_method            fapswitch 2.2
_symmetry_space_group_name_H-M    P1
_symmetry_Int_Tables_number       1
_space_group_crystal_system       triclinic
_cell_length_a                    10.793909
_cell_length_b                    10.847687
_cell_length_c                    16.984757
_cell_angle_alpha                 100.206461
_cell_angle_beta                  100.044934
_cell_angle_gamma                 59.993012
_cell_volume                      1686.30312567

loop_
_atom_site_label
_atom_site_type_symbol
_atom_type_description
_atom_site_fract_x
_atom_site_fract_y
_atom_site_fract_z
_atom_type_partial_charge
C1    C     C_R   0.379620 0.710921 0.387535 0.593627
C2    C     C_R   0.860016 0.312519 0.333789 -0.006060
C3    C     C_R   0.357218 0.811287 0.155237 0.000800
C4    C     C_R   0.369376 0.346344 0.357493 0.538890
C5    C     C_R   0.427238 0.859996 0.221525 -0.018512
C6    C     C_R   0.402225 0.854830 0.298743 0.053196
C7    C     C_R   0.309824 0.691133 0.243279 -0.174599
C8    C     C_R   0.303417 0.722521 0.166698 -0.145182
C9    C     C_R   0.516346 0.917791 0.215196 -0.116702
C10   C     C_R   0.572392 0.970847 0.284457 -0.171115
C11   C     C_R   0.532212 0.978450 0.359190 -0.109399
C12   C     C_R   0.828341 0.223367 0.194289 0.012115
C13   C     C_R   0.425745 0.943369 0.363781 0.289648
C14   C     C_R   0.358278 0.757990 0.309394 0.023589
C15   C     C_R   0.307665 0.261575 0.798264 0.011090
C16   C     C_R   0.780407 0.371770 0.404940 0.526648
C17   C     C_R   0.449946 0.180562 0.770598 0.040650
C18   C     C_R   0.481045 0.251113 0.722132 -0.025483
C19   C     C_R   0.228950 0.421935 0.695885 -0.164197
C20   C     C_R   0.198719 0.376221 0.757709 -0.176846
C21   C     C_R   0.564995 0.038228 0.788791 0.299419
C22   C     C_R   0.698691 0.981167 0.755503 0.017839
C23   C     C_R   0.851044 0.201132 0.276967 0.052870
C24   C     C_R   0.731121 0.073832 0.728221 -0.123611
C25   C     C_R   0.623412 0.209959 0.715972 -0.116719
C26   C     C_R   0.370579 0.357590 0.676780 -0.006750
C27   C     C_1   0.853329 0.327564 0.704478 -0.085625
C28   C     C_R   0.382070 0.714331 0.631136 0.538454
C29   C     C_1   0.899054 0.291833 0.771412 -0.072019
C30   C     C_1   0.359342 0.763777 0.713597 -0.040155
C31   C     C_1   0.326020 0.811084 0.780676 -0.032672
C32   C     C_R   0.896244 0.309217 0.089758 0.543611
C33   C     C_R   0.319650 0.300685 0.119788 0.562603
C34   C     C_R   0.896719 0.405345 0.309085 -0.158011
C35   C     C_R   0.298612 0.887073 0.083619 0.552777
C36   C     C_R   0.944697 0.272362 0.854816 0.546909
C37   C     C_R   0.280166 0.248461 0.876888 0.562957
C38   C     C_R   0.280910 0.881119 0.857874 0.538633
C39   C     C_R   0.403514 0.375398 0.600408 0.526571
C40   C     C_R   0.780691 0.377519 0.628058 0.517617
C41   C     C_1   0.342843 0.336031 0.274122 -0.040609
C42   C     C_1   0.331563 0.326796 0.203178 -0.042691
C43   C     C_R   0.855533 0.325643 0.170453 -0.001701
C44   C     C_3   0.347914 0.101221 0.480973 0.031793
C45   C     C_R   0.892504 0.413248 0.228890 -0.148071
C46   C     C_3   0.217080 0.178919 0.528458 -0.255319
C47   C     C_3   0.224377 0.090063 0.591050 -0.393533
C48   C     C_3   0.642992 0.896109 0.894566 0.041592
C49   C     C_3   0.685320 0.740021 0.901056 -0.263730
C50   C     C_3   0.720412 0.706588 0.988379 -0.440535
C51   C     C_3   0.803288 0.822732 0.741924 -0.278790
C52   C     C_3   0.951377 0.783669 0.787696 -0.430062
C53   C     C_3   0.894400 0.015138 0.377420 -0.263781
C54   C     C_3   0.008969 0.033243 0.435445 -0.390293
C55   C     C_R   0.786000 0.137768 0.136295 -0.075919
C56   C     C_R   0.808967 0.008019 0.153422 -0.120181
C57   C     C_R   0.861024 0.968314 0.230269 -0.121034
C58   C     C_R   0.868580 0.066840 0.294993 0.042851
Cr1   Cr    Cr6+3 0.608100 0.610860 0.522250 1.006158
Cr2   Cr    Cr6+3 0.288890 0.599990 0.488420 0.969209
Cr3   Cr    Cr6+3 0.603040 0.289190 0.489390 0.939354
Cr4   Cr    Cr6+3 0.053960 0.052250 0.967380 0.994449
Cr5   Cr    Cr6+3 0.059890 0.373160 0.992710 0.978287
Cr6   Cr    Cr6+3 0.373370 0.061690 0.991710 0.976884
H1    H     H_    0.915950 0.482499 0.351791 0.139762
H2    H     H_    0.788038 0.936939 0.106626 0.088878
H3    H     H_    0.880819 0.863715 0.240266 0.099851
H4    H     H_    0.272401 0.618903 0.251349 0.123036
H5    H     H_    0.552469 0.913937 0.159091 0.153639
H6    H     H_    0.251741 0.681883 0.116692 0.138766
H7    H     H_    0.341495 0.183078 0.447317 0.165809
H8    H     H_    0.447784 0.056758 0.522812 0.176842
H9    H     H_    0.208862 0.280501 0.558944 0.156047
H10   H     H_    0.118469 0.210757 0.486415 0.145661
H11   H     H_    0.235781 0.985947 0.561788 0.224950
H12   H     H_    0.639542 0.014990 0.280335 0.149229
H13   H     H_    0.124720 0.148075 0.621947 0.122487
H14   H     H_    0.317994 0.070120 0.636448 0.161750
H15   H     H_    0.594691 0.961357 0.949754 0.188127
H16   H     H_    0.741593 0.904747 0.897233 0.080604
H17   H     H_    0.597124 0.717275 0.873096 0.191923
H18   H     H_    0.781066 0.666166 0.868555 0.158662
H19   H     H_    0.821856 0.707231 0.014563 0.128946
H20   H     H_    0.732297 0.599847 0.990757 0.200963
H21   H     H_    0.632086 0.785386 0.024939 0.134574
H22   H     H_    0.015730 0.804872 0.752997 0.165209
H23   H     H_    0.579571 0.016444 0.412426 0.122541
H24   H     H_    0.943158 0.845382 0.847794 0.173645
H25   H     H_    0.009600 0.668845 0.796331 0.138729
H26   H     H_    0.760565 0.757073 0.756900 0.180534
H27   H     H_    0.816241 0.793058 0.676605 0.141707
H28   H     H_    0.055994 0.950854 0.478137 0.173626
H29   H     H_    0.093895 0.022557 0.402153 0.219927
H30   H     H_    0.961585 0.136561 0.473076 0.145305
H31   H     H_    0.792585 0.062332 0.405172 0.172683
H32   H     H_    0.930534 0.898386 0.370476 0.122151
H33   H     H_    0.141604 0.505004 0.662203 0.140402
H34   H     H_    0.089937 0.430330 0.774378 0.128331
H35   H     H_    0.836359 0.037802 0.710100 0.133179
H36   H     H_    0.645991 0.281256 0.694189 0.150598
H37   H     H_    0.743553 0.166271 0.075676 0.125754
H38   H     H_    0.921114 0.487609 0.212992 0.144117
O1    O     O_R   0.749810 0.499790 0.438040 -0.526659
O2    O     O_R   0.411730 0.181020 0.091530 -0.528589
O3    O     O_R   0.365010 0.944360 0.063320 -0.528473
O4    O     O_R   0.477660 0.726260 0.439290 -0.449203
O5    O     O_R   0.159380 0.906670 0.876210 -0.535865
O6    O     O_R   0.930820 0.177420 0.886730 -0.487530
O7    O     O_R   0.910360 0.395420 0.895720 -0.536415
O8    O     O_R   0.186010 0.361730 0.919870 -0.511459
O9    O     O_R   0.400000 0.173010 0.914630 -0.505893
O10   O     O_R   0.354140 0.936940 0.899340 -0.482720
O11   O     O_3   0.162410 0.162370 0.983930 -0.276369
O12   O     O_R   0.298970 0.468800 0.557390 -0.520674
O13   O     O_R   0.260150 0.743000 0.412270 -0.523397
O14   O     O_R   0.297740 0.466550 0.394720 -0.515015
O15   O     O_R   0.488080 0.253500 0.386430 -0.544846
O16   O     O_R   0.722670 0.303800 0.421940 -0.509153
O17   O     O_R   0.751130 0.502220 0.613520 -0.514651
O18   O     O_R   0.478890 0.728510 0.601960 -0.479932
O19   O     O_R   0.261470 0.745430 0.587750 -0.539167
O20   O     O_3   0.342926 0.987979 0.428367 -0.573580
O21   O     O_3   0.541282 0.948283 0.825757 -0.549916
O22   O     O_R   0.489400 0.255930 0.561910 -0.551318
O23   O     O_R   0.723890 0.306050 0.584610 -0.528931
O24   O     O_3   0.500010 0.500010 0.500020 -0.286489
O25   O     O_R   0.171100 0.914680 0.053100 -0.504084
O26   O     O_R   0.941680 0.184840 0.050710 -0.490154
O27   O     O_R   0.922080 0.403420 0.072610 -0.535308
O28   O     O_R   0.196880 0.369150 0.083850 -0.494340

loop_
_geom_bond_atom_site_label_1
_geom_bond_atom_site_label_2
_ccdc_geom_bond_type
C33   O28   A    
C23   C58   A    
C55   C56   A    
Cr5   O7    S    
Cr1   O18   S    
C53   H31   S    
C33   O2    A    
C41   C42   T    
Cr2   O12   S    
C19   C20   A    
C18   C26   A    
C48   O21   S    
C19   H33   S    
C50   H20   S    
Cr6   O3    S    
C53   C54   S    
Cr1   O24   S    
C5    C9    A    
C29   C36   S    
Cr3   O22   S    
C33   C42   S    
C48   H15   S    
C9    H5    S    
C12   C43   A    
C51   H26   S    
C30   C31   T    
C26   C39   S    
Cr6   O10   S    
Cr4   O6    S    
C4    C41   S    
C24   H35   S    
C56   C57   A    
C44   H7    S    
C15   C17   A    
Cr5   O28   S    
C49   H17   S    
C38   O5    A    
C19   C26   A    
C15   C37   S    
C54   H29   S    
C16   O1    A    
C50   H21   S    
C51   H27   S    
C7    H4    S    
C10   H12   S    
C7    C14   A    
C11   H23   S    
Cr3   O24   S    
C2    C16   S    
C9    C10   A    
C1    O4    A    
C2    C34   A    
C21   C22   A    
C53   H32   S    
C52   H25   S    
C18   C25   A    
C57   H3    S    
C34   H1    S    
C32   O27   A    
C44   C46   S    
C50   H19   S    
C15   C20   A    
C44   O20   S    
Cr1   O4    S    
C37   O9    A    
Cr3   O15   S    
C51   C52   S    
C52   H24   S    
C24   C25   A    
Cr4   O11   S    
C3    C8    A    
C28   O18   A    
C28   O19   A    
Cr6   O9    S    
Cr4   O5    S    
C17   C21   A    
C39   O22   A    
C49   H18   S    
C21   O21   S    
C54   H28   S    
C35   O3    A    
C16   O16   A    
C6    C14   A    
C25   H36   S    
C12   C23   A    
C3    C35   S    
C27   C40   S    
C39   O12   A    
C2    C23   A    
C17   C18   A    
C34   C45   A    
C35   O25   A    
C43   C45   A    
C37   O8    A    
C48   C49   S    
C22   C24   A    
C4    O15   A    
Cr2   O14   S    
C47   H13   S    
C38   O10   A    
C46   H10   S    
Cr6   O2    S    
C46   C47   S    
Cr1   O17   S    
Cr6   O11   S    
Cr3   O16   S    
C45   H38   S    
C4    O14   A    
C3    C5    A    
C53   C58   S    
C55   H37   S    
C8    H6    S    
C31   C38   S    
Cr1   O1    S    
C32   O26   A    
Cr5   O8    S    
C52   H22   S    
C47   H11   S    
C28   C30   S    
C6    C13   A    
Cr4   O26   S    
C13   O20   S    
C11   C13   A    
C48   H16   S    
C57   C58   A    
C5    C6    A    
C27   C29   T    
C56   H2    S    
C40   O23   A    
Cr2   O24   S    
C32   C43   S    
C44   H8    S    
Cr5   O27   S    
Cr2   O19   S    
C54   H30   S    
C12   C55   A    
C7    C8    A    
C10   C11   A    
Cr5   O11   S    
Cr4   O25   S    
C40   O17   A    
C20   H34   S    
C36   O6    A    
C49   C50   S    
C36   O7    A    
Cr2   O13   S    
Cr3   O23   S    
C1    C14   S    
C1    O13   A    
C47   H14   S    
C46   H9    S    
C22   C51   S    
