data_mof_unit_25028.cif
_audit_creation_date              2012-10-26T19:42:18-0400
_audit_creation_method            fapswitch 2.2
_symmetry_space_group_name_H-M    P1
_symmetry_Int_Tables_number       1
_space_group_crystal_system       triclinic
_cell_length_a                    9.65294
_cell_length_b                    10.953549
_cell_length_c                    17.296018
_cell_angle_alpha                 93.792144
_cell_angle_beta                  86.472986
_cell_angle_gamma                 89.283533
_cell_volume                      1821.06381074

loop_
_atom_site_label
_atom_site_type_symbol
_atom_type_description
_atom_site_fract_x
_atom_site_fract_y
_atom_site_fract_z
_atom_type_partial_charge
C1    C     C_R   0.498481 0.737461 0.499005 0.553103
C2    C     C_R   0.519868 0.526462 0.266395 -0.052821
C3    C     C_R   0.253668 0.890839 0.459957 -0.084760
C4    C     C_R   0.482428 0.497026 0.649350 0.548615
C5    C     C_R   0.127456 0.955546 0.465322 0.229292
C6    C     C_R   0.116262 0.068078 0.508122 -0.058473
C7    C     C_R   0.233113 0.121119 0.539390 0.256145
C8    C     C_R   0.366428 0.065875 0.519198 -0.045408
C9    C     C_R   0.370413 0.940409 0.494397 -0.074382
C10   C     C_R   0.493589 0.871911 0.501818 -0.046319
C11   C     C_R   0.614275 0.934360 0.516907 -0.137390
C12   C     C_R   0.364504 0.537127 0.779773 -0.133797
C13   C     C_R   0.619210 0.059828 0.510198 0.246962
C14   C     C_R   0.494760 0.129664 0.515425 -0.001753
C15   C     C_R   0.872801 0.349930 0.388310 -0.039269
C16   C     C_R   0.499185 0.263024 0.505355 0.556391
C17   C     C_R   0.952763 0.284259 0.329609 -0.166371
C18   C     C_R   0.095190 0.280149 0.331662 -0.200762
C19   C     C_R   0.158688 0.346202 0.390369 -0.092302
C20   C     C_R   0.082145 0.425455 0.445565 0.153045
C21   C     C_R   0.933204 0.426469 0.445070 0.146992
C22   C     C_R   0.919231 0.566014 0.554636 -0.025667
C23   C     C_R   0.398331 0.596844 0.157285 0.223183
C24   C     C_R   0.066880 0.566105 0.554577 -0.012208
C25   C     C_R   0.517124 0.507357 0.350428 0.581980
C26   C     C_R   0.474614 0.483748 0.732644 -0.081619
C27   C     C_R   0.577273 0.415558 0.765043 -0.139704
C28   C     C_R   0.573593 0.404490 0.845059 0.238717
C29   C     C_R   0.464205 0.459962 0.892515 0.074264
C30   C     C_R   0.357437 0.524441 0.859861 0.279061
C31   C     C_3   0.721288 0.302370 0.082936 -0.091210
C32   C     C_3   0.965031 0.807843 0.461029 -0.126992
C33   C     C_3   0.262139 0.203163 0.662517 -0.090288
C34   C     C_R   0.408874 0.591618 0.237700 0.224755
C35   C     C_3   0.774486 0.075677 0.409375 -0.098908
C36   C     C_3   0.187884 0.616531 0.293392 -0.061469
C37   C     C_3   0.847042 0.532536 0.239863 -0.104490
C38   C     C_3   0.604534 0.744141 0.028616 -0.094769
C39   C     C_3   0.126751 0.523754 0.895292 -0.157429
C40   C     C_3   0.188702 0.586709 0.103141 -0.092873
C41   C     C_3   0.796453 0.405449 0.879749 -0.109927
C42   C     C_R   0.628655 0.479910 0.214534 0.204463
C43   C     C_R   0.615512 0.479798 0.133875 0.198669
C44   C     C_R   0.503007 0.542157 0.105771 -0.073900
C45   C     C_2   0.467487 0.455632 0.976747 -0.020238
C46   C     C_2   0.498477 0.555061 0.021332 0.352086
Cu1   Cu    Cu3+1 0.359340 0.500010 0.500010 0.956298
Cu2   Cu    Cu3+1 0.640660 0.499990 0.499990 0.940509
H1    H     H_    0.660457 0.370824 0.728317 0.153157
H2    H     H_    0.938124 0.827619 0.524166 0.115229
H3    H     H_    0.040859 0.731445 0.452581 0.113722
H4    H     H_    0.870566 0.777447 0.432371 0.147383
H5    H     H_    0.377388 0.202516 0.659989 0.116260
H6    H     H_    0.221634 0.116631 0.684956 0.104672
H7    H     H_    0.225712 0.279257 0.704688 0.137903
H8    H     H_    0.707714 0.128499 0.372982 0.089885
H9    H     H_    0.762158 0.976348 0.393774 0.138962
H10   H     H_    0.884332 0.094291 0.394673 0.190440
H11   H     H_    0.858922 0.621729 0.598813 0.114329
H12   H     H_    0.016518 0.114551 0.517556 0.186036
H13   H     H_    0.903082 0.229921 0.284946 0.136542
H14   H     H_    0.183931 0.516926 0.276081 0.088523
H15   H     H_    0.119094 0.670087 0.258735 0.145422
H16   H     H_    0.146511 0.626931 0.354213 0.128832
H17   H     H_    0.156761 0.223124 0.288619 0.128746
H18   H     H_    0.267709 0.331566 0.390041 0.183194
H19   H     H_    0.115883 0.622151 0.598592 0.112108
H20   H     H_    0.813447 0.611339 0.280963 0.120585
H21   H     H_    0.867246 0.563531 0.180270 0.135144
H22   H     H_    0.946658 0.497368 0.258001 0.120031
H23   H     H_    0.764328 0.334911 0.388372 0.204617
H24   H     H_    0.629452 0.823063 0.993527 0.136515
H25   H     H_    0.553920 0.781196 0.084872 0.149454
H26   H     H_    0.704280 0.696464 0.037606 0.109762
H27   H     H_    0.046161 0.564659 0.938095 0.134271
H28   H     H_    0.134924 0.424433 0.904936 0.092947
H29   H     H_    0.091039 0.537006 0.836482 0.110633
H30   H     H_    0.154087 0.520720 0.146065 0.061231
H31   H     H_    0.224076 0.534390 0.048648 0.160342
H32   H     H_    0.096972 0.642748 0.091101 0.143071
H33   H     H_    0.454313 0.367673 0.001580 0.066279
H34   H     H_    0.286005 0.591048 0.754713 0.133629
H35   H     H_    0.777764 0.493791 0.914790 0.150049
H36   H     H_    0.840624 0.422019 0.820501 0.102889
H37   H     H_    0.875283 0.352710 0.908276 0.132588
H38   H     H_    0.768340 0.272095 0.135573 0.157789
H39   H     H_    0.615761 0.263551 0.078451 0.102001
H40   H     H_    0.786656 0.263638 0.032038 0.145861
H41   H     H_    0.709889 0.885228 0.522667 0.142595
H42   H     H_    0.261008 0.805769 0.424736 0.193562
N1    N     N_R   0.852190 0.498790 0.499250 -0.252776
N2    N     N_R   0.148060 0.498710 0.499220 -0.238683
O1    O     O_R   0.381190 0.680360 0.500010 -0.511376
O2    O     O_3   0.016062 0.911980 0.426219 -0.593057
O3    O     O_3   0.211702 0.224557 0.589661 -0.529731
O4    O     O_3   0.745105 0.109506 0.489146 -0.553466
O5    O     O_3   0.322696 0.664408 0.289158 -0.534701
O6    O     O_3   0.749806 0.437443 0.242162 -0.568052
O7    O     O_3   0.514188 0.666926 0.987776 -0.517456
O8    O     O_3   0.253130 0.583299 0.907175 -0.534790
O9    O     O_3   0.292563 0.665767 0.130160 -0.514606
O10   O     O_3   0.674437 0.336302 0.876983 -0.567175
O11   O     O_R   0.618760 0.680340 0.500000 -0.526259
O12   O     O_R   0.367440 0.500030 0.613600 -0.488994
O13   O     O_R   0.605010 0.500010 0.613590 -0.504305
O14   O     O_R   0.381240 0.319660 0.500000 -0.478977
O15   O     O_R   0.618810 0.319640 0.499990 -0.476633
O16   O     O_R   0.394990 0.499990 0.386410 -0.516674
O17   O     O_R   0.632560 0.499970 0.386400 -0.504082
O18   O     O_3   0.720033 0.431168 0.081898 -0.574427

loop_
_geom_bond_atom_site_label_1
_geom_bond_atom_site_label_2
_ccdc_geom_bond_type
C33   H7    S    
C32   O2    S    
C46   O7    S    
C37   H21   S    
C11   C13   A    
Cu1   N2    S    
C19   C20   A    
C5    O2    S    
C7    C8    A    
C35   O4    S    
C18   H17   S    
C20   N2    A    
C26   C27   A    
C3    H42   S    
C39   H29   S    
C28   C29   A    
C42   O6    S    
C21   N1    A    
C5    C6    A    
C30   O8    S    
Cu2   O15   S    
C41   H35   S    
C37   H20   S    
C24   N2    A    
C34   O5    S    
C41   O10   S    
C19   H18   S    
C18   C19   A    
C32   H4    S    
C16   O15   A    
C17   H13   S    
C40   O9    S    
Cu2   O13   S    
C8    C9    A    
Cu2   N1    S    
C22   N1    A    
C40   H32   S    
C36   O5    S    
Cu1   O12   S    
C43   O18   S    
C39   H27   S    
C36   H15   S    
C9    C10   A    
C1    O11   A    
C24   H19   S    
C25   O17   A    
C2    C34   A    
Cu2   O17   S    
C31   H38   S    
C13   C14   A    
C36   H14   S    
C33   O3    S    
C37   O6    S    
C44   C46   S    
C14   C16   S    
C33   H5    S    
C38   H24   S    
C31   H39   S    
C13   O4    S    
C6    H12   S    
C22   H11   S    
C45   C46   D    
Cu2   O11   S    
C23   C44   A    
C12   C26   A    
C43   C44   A    
C32   H3    S    
C29   C30   A    
C3    C9    A    
C11   H41   S    
Cu1   Cu2   S    
Cu1   O14   S    
C17   C18   A    
Cu1   O1    S    
C40   H31   S    
C12   H34   S    
C39   H28   S    
C32   H2    S    
C35   H10   S    
C22   C24   A    
C42   C43   A    
C15   H23   S    
C38   H26   S    
C33   H6    S    
C15   C17   A    
C23   C34   A    
C8    C14   A    
C31   H40   S    
C12   C30   A    
C35   H8    S    
C45   H33   S    
C1    C10   S    
C38   O7    S    
C3    C5    A    
C4    C26   S    
C7    O3    S    
C6    C7    A    
C16   O14   A    
C41   H37   S    
C4    O13   A    
C35   H9    S    
C36   H16   S    
C41   H36   S    
C39   O8    S    
C23   O9    S    
C2    C42   A    
C4    O12   A    
C31   O18   S    
C2    C25   S    
C40   H30   S    
C10   C11   A    
C28   O10   S    
C15   C21   A    
C20   C21   A    
C1    O1    A    
Cu1   O16   S    
C29   C45   S    
C27   C28   A    
C37   H22   S    
C27   H1    S    
C25   O16   A    
C38   H25   S    
