data_mof_unit_56766.cif
_audit_creation_date              2013-03-05T16:33:55-0500
_audit_creation_method            fapswitch 2.2
_symmetry_space_group_name_H-M    P1
_symmetry_Int_Tables_number       1
_space_group_crystal_system       triclinic
_cell_length_a                    26.108272
_cell_length_b                    22.445061
_cell_length_c                    17.267912
_cell_angle_alpha                 89.896965
_cell_angle_beta                  139.510256
_cell_angle_gamma                 90.134826
_cell_volume                      6570.38656277

loop_
_atom_site_label
_atom_site_type_symbol
_atom_site_description
_atom_site_fract_x
_atom_site_fract_y
_atom_site_fract_z
_atom_type_partial_charge
Zn1   Zn    Zn3+2 0.006080 0.799450 0.098920 1.096162
Zn2   Zn    Zn3+2 0.993920 0.200550 0.901080 1.097872
Zn3   Zn    Zn3+2 0.993920 0.799450 0.901080 1.072165
Zn4   Zn    Zn3+2 0.006080 0.200550 0.098920 1.064080
Zn5   Zn    Zn3+2 0.506080 0.299450 0.098920 1.097008
Zn6   Zn    Zn3+2 0.493920 0.700550 0.901080 1.097524
Zn7   Zn    Zn3+2 0.493920 0.299450 0.901080 1.074037
Zn8   Zn    Zn3+2 0.506080 0.700550 0.098920 1.064126
Zn9   Zn    Zn3+2 0.092840 0.700530 0.098900 1.031717
Zn10  Zn    Zn3+2 0.907160 0.299470 0.901100 1.028336
Zn11  Zn    Zn3+2 0.907160 0.700530 0.901100 0.986686
Zn12  Zn    Zn3+2 0.092840 0.299470 0.098900 0.987183
Zn13  Zn    Zn3+2 0.592840 0.200530 0.098900 1.030350
Zn14  Zn    Zn3+2 0.407160 0.799470 0.901100 1.028488
Zn15  Zn    Zn3+2 0.407160 0.200530 0.901100 0.985966
Zn16  Zn    Zn3+2 0.592840 0.799470 0.098900 0.987219
O1    O     O_3   0.000000 0.749980 0.000000 -0.526728
O2    O     O_3   0.000000 0.250020 0.000000 -0.524944
O3    O     O_3   0.500000 0.249980 0.000000 -0.526713
O4    O     O_3   0.500000 0.750020 0.000000 -0.524976
O5    O     O_R   0.081200 0.784590 0.930760 -0.583671
O6    O     O_R   0.918800 0.215410 0.069240 -0.588436
O7    O     O_R   0.918800 0.784590 0.069240 -0.580584
O8    O     O_R   0.081200 0.215410 0.930760 -0.580536
O9    O     O_R   0.581200 0.284590 0.930760 -0.578895
O10   O     O_R   0.418800 0.715410 0.069240 -0.588484
O11   O     O_R   0.418800 0.284590 0.069240 -0.579871
O12   O     O_R   0.581200 0.715410 0.930760 -0.579918
O13   O     O_R   0.162390 0.715380 0.264050 -0.610142
O14   O     O_R   0.837610 0.284620 0.735950 -0.610262
O15   O     O_R   0.837610 0.715380 0.735950 -0.656679
O16   O     O_R   0.162390 0.284620 0.264050 -0.647593
O17   O     O_R   0.662390 0.215380 0.264050 -0.610576
O18   O     O_R   0.337610 0.784620 0.735950 -0.610101
O19   O     O_R   0.337610 0.215380 0.735950 -0.652935
O20   O     O_R   0.662390 0.784620 0.264050 -0.646091
O21   O     O_R   0.064970 0.617950 0.069210 -0.641390
O22   O     O_R   0.935030 0.382050 0.930790 -0.641726
O23   O     O_R   0.935030 0.617950 0.930790 -0.634296
O24   O     O_R   0.064970 0.382050 0.069210 -0.635449
O25   O     O_R   0.564970 0.117950 0.069210 -0.641503
O26   O     O_R   0.435030 0.882050 0.930790 -0.641779
O27   O     O_R   0.435030 0.117950 0.930790 -0.634828
O28   O     O_R   0.564970 0.882050 0.069210 -0.635008
O29   O     O_R   0.995760 0.882010 0.930780 -0.611091
O30   O     O_R   0.004240 0.117990 0.069220 -0.605152
O31   O     O_R   0.004240 0.882010 0.069220 -0.620645
O32   O     O_R   0.995760 0.117990 0.930780 -0.621619
O33   O     O_R   0.495760 0.382010 0.930780 -0.610520
O34   O     O_R   0.504240 0.617990 0.069220 -0.604695
O35   O     O_R   0.504240 0.382010 0.069220 -0.620300
O36   O     O_R   0.495760 0.617990 0.930780 -0.621858
O37   O     O_R   0.101670 0.784610 0.264060 -0.603719
O38   O     O_R   0.898330 0.215390 0.735940 -0.603896
O39   O     O_R   0.898330 0.784610 0.735940 -0.622421
O40   O     O_R   0.101670 0.215390 0.264060 -0.644264
O41   O     O_R   0.601670 0.284610 0.264060 -0.603232
O42   O     O_R   0.398330 0.715390 0.735940 -0.604140
O43   O     O_R   0.398330 0.284610 0.735940 -0.630644
O44   O     O_R   0.601670 0.715390 0.264060 -0.644385
O45   O     O_R   0.150430 0.715370 0.069210 -0.656097
O46   O     O_R   0.849570 0.284630 0.930790 -0.655310
O47   O     O_R   0.849570 0.715370 0.930790 -0.675011
O48   O     O_R   0.150430 0.284630 0.069210 -0.673600
O49   O     O_R   0.650430 0.215370 0.069210 -0.657451
O50   O     O_R   0.349570 0.784630 0.930790 -0.655331
O51   O     O_R   0.349570 0.215370 0.930790 -0.675248
O52   O     O_R   0.650430 0.784630 0.069210 -0.674187
C1    C     C_R   0.140953 0.750183 0.001358 0.885999
C2    C     C_R   0.859020 0.249808 0.998588 0.879795
C3    C     C_R   0.859766 0.749339 0.000059 0.916353
C4    C     C_R   0.140287 0.250640 0.000046 0.919999
C5    C     C_R   0.640959 0.250184 0.001370 0.886661
C6    C     C_R   0.359023 0.749812 0.998592 0.879453
C7    C     C_R   0.359723 0.249366 0.999958 0.914902
C8    C     C_R   0.640306 0.750587 0.000100 0.916639
C9    C     C_R   0.160045 0.749917 0.319982 0.868059
C10   C     C_R   0.839955 0.250082 0.680018 0.868029
C11   C     C_R   0.839890 0.749940 0.679941 0.878516
C12   C     C_R   0.160094 0.250063 0.320056 0.862066
C13   C     C_R   0.660045 0.249918 0.319982 0.867706
C14   C     C_R   0.339955 0.750082 0.680018 0.868210
C15   C     C_R   0.339862 0.249954 0.679942 0.873928
C16   C     C_R   0.660116 0.750048 0.320057 0.858317
C17   C     C_R   0.999952 0.589914 0.999904 0.862267
C18   C     C_R   0.000031 0.410086 0.000083 0.860339
C19   C     C_R   0.499960 0.089914 0.999911 0.861295
C20   C     C_R   0.500039 0.910086 0.000089 0.860159
C21   C     C_R   0.999996 0.909958 0.999953 0.861798
C22   C     C_R   0.000002 0.090042 0.000045 0.864291
C23   C     C_R   0.499997 0.409958 0.999954 0.861614
C24   C     C_R   0.500005 0.590042 0.000048 0.864762
C25   C     C_1   0.999995 0.973311 0.999937 -0.076268
C26   C     C_1   0.000002 0.026689 0.000059 -0.077163
C27   C     C_1   0.499998 0.473311 0.999940 -0.075990
C28   C     C_1   0.500005 0.526689 0.000063 -0.076329
C29   C     C_R   0.650345 0.655444 0.633303 -0.089288
C30   C     C_R   0.351813 0.352566 0.362046 -0.146263
C31   C     C_R   0.161131 0.550494 0.017092 -0.099840
C32   C     C_R   0.836394 0.449583 0.978206 -0.100105
C33   C     C_R   0.150884 0.154242 0.634156 -0.090274
C34   C     C_R   0.848201 0.844855 0.365604 -0.154282
C35   C     C_R   0.662805 0.050277 0.019854 -0.099979
C36   C     C_R   0.336864 0.949497 0.978771 -0.101361
H1    H     H_    0.644765 0.609630 0.607987 0.188291
H2    H     H_    0.358134 0.399160 0.384294 0.180966
H3    H     H_    0.115082 0.518868 0.949729 0.189440
H4    H     H_    0.882115 0.481587 0.044790 0.188898
H5    H     H_    0.145659 0.108383 0.609347 0.188068
H6    H     H_    0.854270 0.890695 0.391210 0.182807
H7    H     H_    0.617075 0.018355 0.952981 0.189211
H8    H     H_    0.382672 0.981440 0.045419 0.188539
C37   C     C_R   0.683591 0.667548 0.743653 0.122854
C38   C     C_R   0.316394 0.337447 0.251199 0.139826
C39   C     C_R   0.172586 0.600492 0.983456 0.039607
C40   C     C_R   0.825774 0.399680 0.013172 0.036938
C41   C     C_R   0.184108 0.166600 0.744423 0.123410
C42   C     C_R   0.816571 0.832553 0.256466 0.151705
C43   C     C_R   0.673646 0.100300 0.985403 0.039556
C44   C     C_R   0.326072 0.899661 0.013621 0.036290
C45   C     C_R   0.691180 0.727097 0.777690 -0.023797
C46   C     C_R   0.308653 0.276928 0.221193 -0.018637
C47   C     C_R   0.232122 0.642111 0.070605 -0.017991
C48   C     C_R   0.766655 0.357576 0.927066 -0.014973
C49   C     C_R   0.191199 0.226214 0.777752 -0.022873
C50   C     C_R   0.808707 0.772859 0.222604 -0.018219
C51   C     C_R   0.732814 0.142277 0.071913 -0.016998
C52   C     C_R   0.266860 0.857626 0.927434 -0.013121
C53   C     C_R   0.664066 0.774133 0.698843 0.206650
C54   C     C_R   0.336225 0.231883 0.303525 0.188057
C55   C     C_R   0.280143 0.632722 0.191989 0.276218
C56   C     C_R   0.718287 0.366337 0.805382 0.274225
C57   C     C_R   0.163606 0.273052 0.698282 0.206779
C58   C     C_R   0.833263 0.725852 0.300005 0.176838
C59   C     C_R   0.781003 0.133272 0.193463 0.275130
C60   C     C_R   0.218546 0.866402 0.805776 0.276048
C61   C     C_R   0.630535 0.761197 0.587141 0.234806
C62   C     C_R   0.370491 0.247819 0.414833 0.266858
C63   C     C_R   0.267953 0.581727 0.224767 0.225013
C64   C     C_R   0.729686 0.417205 0.771257 0.222399
C65   C     C_R   0.130123 0.259861 0.586692 0.236019
C66   C     C_R   0.863940 0.738979 0.409673 0.285436
C67   C     C_R   0.769388 0.082279 0.227057 0.224584
C68   C     C_R   0.230133 0.917194 0.771776 0.221988
C69   C     C_R   0.624258 0.701320 0.554867 0.020814
C70   C     C_R   0.378958 0.308506 0.444226 0.032166
C71   C     C_R   0.207578 0.540885 0.136068 -0.009846
C72   C     C_R   0.789569 0.458594 0.858909 -0.008502
C73   C     C_R   0.124372 0.199926 0.555146 0.021680
C74   C     C_R   0.871676 0.798793 0.442110 0.011765
C75   C     C_R   0.709478 0.041010 0.139021 -0.009485
C76   C     C_R   0.290130 0.958499 0.859514 -0.008004
C77   C     C_R   0.168501 0.242244 0.892244 0.258517
C78   C     C_R   0.831786 0.756640 0.108401 0.261068
C79   C     C_R   0.790153 0.197067 0.026030 0.313131
C80   C     C_R   0.209842 0.802928 0.973944 0.314343
C81   C     C_R   0.668524 0.742942 0.892262 0.261116
C82   C     C_R   0.331503 0.257637 0.107721 0.258360
C83   C     C_R   0.289953 0.697019 0.025625 0.312905
C84   C     C_R   0.709686 0.302883 0.973639 0.317463
C85   C     C_R   0.196363 0.252420 0.999976 -0.190346
C86   C     C_R   0.803764 0.747489 0.000290 -0.188266
C87   C     C_R   0.801085 0.249576 0.994970 -0.200772
C88   C     C_R   0.198784 0.750382 0.004759 -0.201629
C89   C     C_R   0.696481 0.752235 0.000230 -0.189085
C90   C     C_R   0.303650 0.247554 0.000019 -0.188439
C91   C     C_R   0.301078 0.749582 0.994951 -0.201206
C92   C     C_R   0.698805 0.250388 0.004807 -0.199047
C93   C     C_R   0.277831 0.261899 0.107434 -0.078797
C94   C     C_R   0.722154 0.739136 0.892423 -0.079014
C95   C     C_R   0.758898 0.302145 0.965185 -0.098531
C96   C     C_R   0.240618 0.697721 0.033856 -0.098158
C97   C     C_R   0.778103 0.760540 0.108194 -0.080774
C98   C     C_R   0.222136 0.238546 0.892383 -0.078929
C99   C     C_R   0.259032 0.802190 0.965444 -0.096067
C100  C     C_R   0.740869 0.197787 0.034356 -0.098605
C101  C     C_1   0.776575 0.749895 0.553351 -0.106633
C102  C     C_1   0.223348 0.250102 0.446642 -0.135298
C103  C     C_1   0.223391 0.749904 0.446627 -0.052142
C104  C     C_1   0.776609 0.250096 0.553373 -0.052152
C105  C     C_1   0.276485 0.249908 0.553349 -0.125272
C106  C     C_1   0.723421 0.750080 0.446645 -0.132386
C107  C     C_1   0.723391 0.249904 0.446627 -0.051697
C108  C     C_1   0.276608 0.750096 0.553373 -0.052569
C109  C     C_1   0.999905 0.526662 0.999890 -0.148483
C110  C     C_1   0.999997 0.473338 0.000026 -0.148045
C111  C     C_1   0.499952 0.026661 0.999932 -0.148224
C112  C     C_1   0.500045 0.973339 0.000069 -0.148458
N1    N     N_3   0.592374 0.685350 0.443864 -0.343148
H9    H     H_    0.636810 0.663463 0.464173 0.196214
H10   H     H_    0.577992 0.722794 0.394510 0.237619
N2    N     N_3   0.413762 0.325055 0.556950 -0.317302
H11   H     H_    0.422284 0.371157 0.569480 0.227301
H12   H     H_    0.373157 0.314296 0.553571 0.201274
N3    N     N_3   0.193176 0.488558 0.164917 -0.419961
H13   H     H_    0.173919 0.501663 0.197600 0.242902
H14   H     H_    0.246167 0.465420 0.232175 0.223891
N4    N     N_3   0.803069 0.510877 0.828649 -0.420125
H15   H     H_    0.822744 0.497738 0.796597 0.242981
H16   H     H_    0.749654 0.533453 0.760633 0.226602
N5    N     N_3   0.092631 0.183709 0.444338 -0.342975
H17   H     H_    0.137289 0.162067 0.464916 0.196414
H18   H     H_    0.077852 0.221038 0.394478 0.238818
N6    N     N_3   0.901637 0.812845 0.551893 -0.356388
H19   H     H_    0.951467 0.839851 0.602276 0.263978
H20   H     H_    0.858872 0.837667 0.531971 0.198481
N7    N     N_3   0.695844 0.988570 0.168779 -0.419979
H21   H     H_    0.676204 0.001522 0.200958 0.242450
H22   H     H_    0.749208 0.965908 0.236604 0.226932
N8    N     N_3   0.303861 0.010672 0.829379 -0.420238
H23   H     H_    0.323507 0.997392 0.797343 0.242792
H24   H     H_    0.250533 0.033336 0.761349 0.226203
N9    N     N_3   0.708437 0.618455 0.819498 -0.423767
H25   H     H_    0.768532 0.623269 0.900561 0.214683
H26   H     H_    0.677631 0.619799 0.836450 0.250263
N10   N     N_3   0.289911 0.384505 0.170892 -0.419285
H27   H     H_    0.229592 0.378837 0.091361 0.211913
H28   H     H_    0.319472 0.381322 0.151961 0.249483
N11   N     N_3   0.121671 0.608906 0.859584 -0.381951
H29   H     H_    0.092143 0.649419 0.832296 0.223191
H30   H     H_    0.156360 0.611513 0.849562 0.254668
N12   N     N_3   0.877184 0.391820 0.137344 -0.379538
H31   H     H_    0.907188 0.351516 0.165107 0.219030
H32   H     H_    0.842838 0.389046 0.147975 0.258422
N13   N     N_3   0.209469 0.117697 0.820929 -0.424205
H33   H     H_    0.269539 0.122841 0.901860 0.213951
H34   H     H_    0.178738 0.118947 0.838012 0.249591
N14   N     N_3   0.793247 0.881517 0.181407 -0.421090
H35   H     H_    0.733330 0.877001 0.099505 0.212231
H36   H     H_    0.825013 0.879639 0.166151 0.249719
N15   N     N_3   0.622494 0.108353 0.861361 -0.383549
H37   H     H_    0.592565 0.148695 0.833636 0.224189
H38   H     H_    0.657036 0.111131 0.851085 0.255668
N16   N     N_3   0.377429 0.891777 0.137766 -0.379881
H39   H     H_    0.407320 0.851418 0.165469 0.218917
H40   H     H_    0.343049 0.889098 0.148344 0.258200
N17   N     N_R   0.667042 0.834663 0.729336 0.240190
O53   O     O_R   0.731666 0.856348 0.832938 -0.389181
O54   O     O_R   0.604918 0.868458 0.653311 -0.242636
N18   N     N_R   0.333835 0.170451 0.277461 0.241922
O55   O     O_R   0.269219 0.147181 0.175980 -0.386394
O56   O     O_R   0.396848 0.137641 0.354945 -0.249861
N19   N     N_R   0.337017 0.676959 0.280419 0.241888
O57   O     O_R   0.386950 0.698802 0.288077 -0.312521
O58   O     O_R   0.338468 0.696100 0.353168 -0.285357
N20   N     N_R   0.661805 0.321636 0.717993 0.239184
O59   O     O_R   0.660267 0.302127 0.645320 -0.287205
O60   O     O_R   0.612205 0.299833 0.711066 -0.311383
N21   N     N_R   0.166049 0.333628 0.728039 0.240184
O61   O     O_R   0.230529 0.355712 0.831277 -0.389996
O62   O     O_R   0.103587 0.367071 0.651679 -0.242298
N22   N     N_R   0.831081 0.665294 0.270612 0.241828
O63   O     O_R   0.767230 0.643370 0.166601 -0.383784
O64   O     O_R   0.893437 0.631838 0.347987 -0.252196
N23   N     N_R   0.837532 0.177838 0.281250 0.241547
O65   O     O_R   0.887237 0.199777 0.288495 -0.312152
O66   O     O_R   0.838984 0.197108 0.353937 -0.285479
N24   N     N_R   0.161969 0.821759 0.718308 0.239448
O67   O     O_R   0.160409 0.802210 0.645628 -0.286372
O68   O     O_R   0.112363 0.800000 0.711401 -0.336613
N25   N     N_R   0.103062 0.307419 0.506880 0.215300
O69   O     O_R   0.151234 0.349758 0.541699 -0.355891
O70   O     O_R   0.028610 0.311605 0.403841 -0.339693
N26   N     N_R   0.884661 0.691692 0.485990 0.240505
O71   O     O_R   0.947755 0.695531 0.601171 -0.350177
O72   O     O_R   0.838241 0.645906 0.441010 -0.343042
N27   N     N_R   0.820331 0.071403 0.350637 0.226850
O73   O     O_R   0.896507 0.075126 0.430199 -0.274841
O74   O     O_R   0.790990 0.059386 0.384765 -0.368814
N28   N     N_R   0.179115 0.927815 0.648095 0.228071
O75   O     O_R   0.208377 0.939509 0.613750 -0.365160
O76   O     O_R   0.102947 0.924164 0.568665 -0.277788
N29   N     N_R   0.603963 0.808949 0.507954 0.215057
O77   O     O_R   0.652557 0.851037 0.543346 -0.356876
O78   O     O_R   0.529561 0.813572 0.404962 -0.340813
N30   N     N_R   0.394992 0.202464 0.496772 0.232943
O79   O     O_R   0.461144 0.207631 0.610476 -0.340096
O80   O     O_R   0.349469 0.157001 0.458589 -0.350344
N31   N     N_R   0.318731 0.570437 0.348164 0.225124
O81   O     O_R   0.394947 0.573712 0.427828 -0.277980
O82   O     O_R   0.289220 0.558577 0.382071 -0.370356
N32   N     N_R   0.678567 0.427822 0.647534 0.228274
O83   O     O_R   0.707722 0.439725 0.613081 -0.364358
O84   O     O_R   0.602420 0.423981 0.568179 -0.276012
N33   N     N_R   0.085098 0.239872 0.781054 0.226115
O85   O     O_R   0.040451 0.284901 0.747603 -0.348474
O86   O     O_R   0.053462 0.192776 0.713662 -0.313060
N34   N     N_R   0.915227 0.757938 0.219673 0.226432
O87   O     O_R   0.959154 0.712917 0.250636 -0.350924
O88   O     O_R   0.947671 0.804079 0.289573 -0.314731
N35   N     N_R   0.825431 0.141877 0.042321 0.217611
O89   O     O_R   0.873078 0.113080 0.142802 -0.313680
O90   O     O_R   0.809475 0.120179 0.955909 -0.375656
N36   N     N_R   0.174688 0.858137 0.957890 0.216862
O91   O     O_R   0.127048 0.887012 0.857491 -0.335587
O92   O     O_R   0.190723 0.879760 0.044416 -0.375759
N37   N     N_R   0.585101 0.741277 0.781016 0.225703
O93   O     O_R   0.540988 0.786443 0.748850 -0.349641
O94   O     O_R   0.552871 0.694592 0.712484 -0.313362
N38   N     N_R   0.414906 0.259909 0.218906 0.226098
O95   O     O_R   0.459323 0.214620 0.252671 -0.348641
O96   O     O_R   0.446952 0.307503 0.285040 -0.312658
N39   N     N_R   0.325028 0.641802 0.041503 0.217652
O97   O     O_R   0.372446 0.612756 0.141686 -0.313191
O98   O     O_R   0.309088 0.620315 0.954991 -0.376291
N40   N     N_R   0.674368 0.358071 0.957252 0.217579
O99   O     O_R   0.626489 0.386718 0.856577 -0.323747
O100  O     O_R   0.690459 0.379885 0.043725 -0.376202

loop_
_geom_bond_atom_site_label_1
_geom_bond_atom_site_label_2
_geom_bond_distance
_ccdc_geom_bond_type
N23   O66   1.301330 A    
Zn8   O10   1.947589 S    
Zn6   O42   1.909646 S    
N35   O89   1.300966 A    
C58   N22   1.437531 S    
C39   N11   1.432794 S    
N39   O98   1.301340 A    
N32   O83   1.300770 A    
C63   N31   1.437005 S    
O42   C14   1.275123 A    
C30   C38   1.393773 A    
C101  C106  1.196500 T    
O46   C2    1.265148 A    
O24   C18   1.272558 A    
C4    C85   1.465424 S    
Zn16  O28   1.913979 S    
C43   N15   1.432778 S    
Zn4   O2    1.938407 S    
C67   C75   1.413161 A    
Zn4   O40   1.909386 S    
N16   H40   1.044875 S    
O33   C23   1.278247 A    
C5    C92   1.465622 S    
O11   C7    1.275250 A    
Zn7   O43   1.909386 S    
C6    C91   1.465612 S    
N9    H26   1.044872 S    
O25   C19   1.271652 A    
C90   C98   1.416825 A    
C39   C47   1.411962 A    
C83   C96   1.399308 A    
C38   N10   1.434029 S    
C64   N32   1.437021 S    
C42   N14   1.433883 S    
C77   C85   1.408710 A    
Zn12  O24   1.913979 S    
C68   N28   1.437004 S    
Zn13  O17   1.914444 S    
O16   C12   1.275056 A    
Zn10  O14   1.914444 S    
N39   O97   1.300979 A    
Zn16  O4    1.929114 S    
N40   O99   1.300981 A    
O30   C22   1.278248 A    
O47   C3    1.265275 A    
Zn7   O3    1.938406 S    
C77   N33   1.439236 S    
N14   H36   1.044786 S    
N28   O76   1.301329 A    
O23   C17   1.272292 A    
C54   C62   1.417058 A    
Zn8   O34   1.914341 S    
Zn6   O4    1.941495 S    
N38   O95   1.301175 A    
C51   C100  1.490115 S    
C31   C71   1.395726 A    
C52   C99   1.490173 S    
C53   N17   1.438367 S    
C65   N25   1.433601 S    
C29   H1    1.083408 S    
O43   C15   1.273655 A    
Zn5   O41   1.909646 S    
C30   H2    1.082935 S    
Zn10  O22   1.912448 S    
C36   C76   1.395762 A    
C16   C106  1.419371 S    
N33   O86   1.300839 A    
Zn10  O2    1.932143 S    
C83   C91   1.409580 A    
Zn3   O1    1.938406 S    
N31   O82   1.300761 A    
N3    H13   1.044377 S    
C53   C61   1.415487 A    
C50   C58   1.416105 A    
Zn5   O35   1.912774 S    
N4    H16   1.044444 S    
Zn6   O36   1.912774 S    
Zn8   O44   1.909386 S    
N34   O88   1.300839 A    
N22   O63   1.300825 A    
C79   C100  1.399297 A    
C80   C99   1.399296 A    
N5    H18   1.042008 S    
N21   O61   1.300853 A    
O22   C18   1.271512 A    
Zn9   O45   1.950405 S    
N35   O90   1.301314 A    
N10   H28   1.044865 S    
Zn11  O47   1.951927 S    
N25   O69   1.300999 A    
Zn12  O48   1.951927 S    
O50   C6    1.265103 A    
C14   C108  1.420007 S    
C24   C28   1.421955 S    
C15   C105  1.419417 S    
N1    H10   1.042013 S    
Zn1   O37   1.909646 S    
Zn5   O11   1.946068 S    
Zn3   O39   1.909386 S    
Zn6   O12   1.946068 S    
N26   O71   1.301274 A    
C11   C101  1.419388 S    
C78   N34   1.439329 S    
C47   C96   1.489887 S    
C85   C93   1.417243 A    
C59   C67   1.414914 A    
C45   C94   1.488648 S    
O32   C22   1.277691 A    
N17   O53   1.300852 A    
N37   O94   1.300842 A    
C49   C98   1.488696 S    
N18   O56   1.301198 A    
N13   H33   1.044970 S    
C17   C109  1.419700 S    
N13   H34   1.044846 S    
C32   H4    1.083614 S    
C81   C89   1.408176 A    
C36   H8    1.083627 S    
C19   C111  1.419707 S    
C79   C87   1.409666 A    
C75   N7    1.431864 S    
O5    C1    1.275084 A    
N2    H12   1.044189 S    
Zn4   O6    1.947589 S    
Zn15  O51   1.951927 S    
N12   H32   1.044881 S    
C82   N38   1.439141 S    
N8    H24   1.044347 S    
C88   C96   1.418347 A    
O51   C7    1.264843 A    
C57   N21   1.438368 S    
O29   C21   1.278247 A    
O8    C4    1.275466 A    
C91   C99   1.418491 A    
C103  C108  1.196930 T    
O34   C24   1.278247 A    
C92   C100  1.418428 A    
C76   N8    1.431844 S    
N20   O59   1.301330 A    
C78   C86   1.409185 A    
N30   O80   1.301279 A    
Zn14  O18   1.914444 S    
N27   O73   1.301322 A    
O52   C8    1.265059 A    
N32   O84   1.301340 A    
O40   C12   1.273188 A    
C81   N37   1.439199 S    
N24   O67   1.301336 A    
Zn15  O27   1.913979 S    
C68   C76   1.413149 A    
Zn16  O20   1.914146 S    
Zn2   O8    1.946068 S    
C56   N20   1.439484 S    
C62   C70   1.411478 A    
C54   N18   1.437622 S    
N18   O55   1.300817 A    
N29   O78   1.301005 A    
O9    C5    1.275153 A    
C21   C25   1.421955 S    
C55   C63   1.414815 A    
C23   C27   1.421957 S    
O13   C9    1.276860 A    
N6    H19   1.045664 S    
N7    H22   1.044387 S    
O18   C14   1.276856 A    
C36   C44   1.395269 A    
C41   C49   1.412581 A    
O6    C2    1.275325 A    
C41   N13   1.433946 S    
N3    H14   1.043951 S    
C43   C51   1.412014 A    
C32   C40   1.395265 A    
C1    C88   1.465692 S    
C74   N6    1.431992 S    
C2    C87   1.465626 S    
Zn13  O25   1.912448 S    
N9    H25   1.044967 S    
C84   C92   1.409744 A    
Zn15  O3    1.929116 S    
C9    C103  1.420009 S    
C10   C104  1.420007 S    
C61   C69   1.416463 A    
C51   C59   1.418532 A    
C52   C60   1.418543 A    
C31   C39   1.395158 A    
N36   O91   1.300991 A    
C33   H5    1.083351 S    
N19   O57   1.300927 A    
C35   H7    1.083610 S    
N5    H17   1.045716 S    
N14   H35   1.045080 S    
O35   C23   1.277692 A    
N40   O100  1.301305 A    
N31   O81   1.301320 A    
C87   C95   1.418506 A    
C35   C75   1.395783 A    
Zn10  O46   1.950405 S    
C66   N26   1.438442 S    
N38   O96   1.300847 A    
C22   C26   1.421955 S    
Zn13  O3    1.932141 S    
N7    H21   1.044432 S    
Zn14  O4    1.932143 S    
Zn2   O38   1.909646 S    
N11   H29   1.045202 S    
O19   C15   1.274607 A    
Zn1   O31   1.912774 S    
Zn13  O49   1.950405 S    
Zn2   O32   1.912774 S    
C47   C55   1.418515 A    
C77   C98   1.401147 A    
Zn3   O29   1.914341 S    
C12   C102  1.419358 S    
O37   C9    1.275119 A    
N33   O85   1.301219 A    
O7    C3    1.275029 A    
C81   C94   1.400890 A    
C58   C66   1.417187 A    
O39   C11   1.273404 A    
C86   C94   1.416770 A    
C46   C93   1.488904 S    
C63   C71   1.413120 A    
C8    C89   1.465327 S    
N15   H38   1.044873 S    
C83   N39   1.439445 S    
C50   C97   1.489239 S    
C34   C74   1.398683 A    
C18   C110  1.419704 S    
C29   C69   1.397768 A    
C34   H6    1.083278 S    
N16   H39   1.045167 S    
O12   C8    1.274991 A    
C82   C90   1.408014 A    
N22   O64   1.301173 A    
Zn11  O1    1.929116 S    
C40   C48   1.411973 A    
C69   N1    1.438602 S    
Zn1   O1    1.941495 S    
C45   C53   1.414844 A    
C44   C52   1.411947 A    
Zn5   O3    1.941495 S    
C56   C64   1.414940 A    
C31   H3    1.083595 S    
C57   C65   1.415466 A    
Zn7   O9    1.947589 S    
C80   N36   1.439394 S    
C33   C41   1.394074 A    
C66   C74   1.409347 A    
C111  C112  1.196836 T    
C60   C68   1.414911 A    
N34   O87   1.301196 A    
N27   O74   1.300772 A    
C109  C110  1.196849 T    
C48   C95   1.490248 S    
C84   C95   1.399237 A    
C7    C90   1.465234 S    
N1    H9    1.045697 S    
C102  C105  1.196517 T    
N26   O72   1.301295 A    
N28   O75   1.300770 A    
C59   N23   1.439534 S    
O38   C10   1.275121 A    
C25   C26   1.198075 T    
C3    C86   1.465638 S    
Zn2   O2    1.941495 S    
N37   O93   1.301184 A    
C27   C28   1.198075 T    
C37   N9    1.433954 S    
C84   N40   1.439402 S    
C64   C72   1.413199 A    
C65   C73   1.416416 A    
Zn4   O30   1.914341 S    
C48   C56   1.418525 A    
Zn8   O4    1.938407 S    
O21   C17   1.271778 A    
O20   C16   1.274913 A    
C89   C97   1.417071 A    
O49   C5    1.265325 A    
C61   N29   1.433563 S    
C44   N16   1.432613 S    
N19   O58   1.301369 A    
C71   N3    1.431665 S    
N4    H15   1.044468 S    
Zn16  O52   1.951927 S    
C34   C42   1.394070 A    
C104  C107  1.196930 T    
Zn9   O13   1.914444 S    
Zn14  O26   1.912448 S    
Zn11  O15   1.914146 S    
Zn12  O16   1.914146 S    
C40   N12   1.432637 S    
O31   C21   1.277692 A    
C70   N2    1.436394 S    
Zn15  O19   1.914146 S    
N20   O60   1.300904 A    
N21   O62   1.301154 A    
N10   H27   1.045143 S    
Zn7   O33   1.914341 S    
N25   O70   1.301022 A    
C30   C70   1.400903 A    
C62   N30   1.438310 S    
C38   C46   1.412937 A    
N24   O68   1.300915 A    
N11   H30   1.044857 S    
C49   C57   1.414925 A    
Zn9   O21   1.912448 S    
N29   O77   1.301000 A    
Zn14  O50   1.950405 S    
C37   C45   1.412644 A    
N30   O79   1.301287 A    
Zn11  O23   1.913979 S    
Zn9   O1    1.932141 S    
N6    H20   1.045632 S    
Zn1   O7    1.946068 S    
N17   O54   1.301157 A    
C60   N24   1.439513 S    
O41   C13   1.275119 A    
Zn3   O5    1.947589 S    
O26   C20   1.271644 A    
C13   C107  1.420009 S    
C29   C37   1.393977 A    
N23   O65   1.300927 A    
C73   N5    1.438628 S    
O45   C1    1.265395 A    
C78   C97   1.401800 A    
C79   N35   1.439434 S    
C35   C43   1.395274 A    
C82   C93   1.400996 A    
O15   C11   1.274873 A    
O27   C19   1.272420 A    
N2    H11   1.045717 S    
C55   N19   1.439497 S    
N36   O92   1.301326 A    
O44   C16   1.273342 A    
C72   N4    1.431898 S    
C32   C72   1.395763 A    
C33   C73   1.397776 A    
O10   C6    1.275340 A    
C67   N27   1.436999 S    
O48   C4    1.264832 A    
N12   H31   1.045167 S    
O36   C24   1.277690 A    
O14   C10   1.276858 A    
C20   C112  1.419708 S    
C80   C88   1.409706 A    
N8    H23   1.044448 S    
Zn12  O2    1.929114 S    
N15   H37   1.045186 S    
C42   C50   1.413561 A    
O28   C20   1.272426 A    
O17   C13   1.276861 A    
C46   C54   1.415367 A    
