data_mof_unit_21477.cif
_audit_creation_date              2012-12-10T18:05:50-0500
_audit_creation_method            fapswitch 2.2
_symmetry_space_group_name_H-M    P1
_symmetry_Int_Tables_number       1
_space_group_crystal_system       triclinic
_cell_length_a                    12.753147
_cell_length_b                    13.196407
_cell_length_c                    14.894751
_cell_angle_alpha                 91.975347
_cell_angle_beta                  101.601753
_cell_angle_gamma                 82.214599
_cell_volume                      2432.80684194

loop_
_atom_site_label
_atom_site_type_symbol
_atom_type_description
_atom_site_fract_x
_atom_site_fract_y
_atom_site_fract_z
_atom_type_partial_charge
C1    C     C_R   0.439811 0.690303 0.483907 0.910127
C2    C     C_R   0.491504 0.593773 0.815549 0.355413
C3    C     C_R   0.499041 0.501105 0.766998 -0.190265
C4    C     C_R   0.500032 0.500539 0.671823 0.953124
C5    C     C_R   0.504814 0.406816 0.808227 0.380492
C6    C     C_R   0.728743 0.055387 0.493277 -0.090061
C7    C     C_R   0.595924 0.199859 0.510456 -0.037356
C8    C     C_R   0.302068 0.838153 0.489525 -0.197534
C9    C     C_R   0.284104 0.937135 0.521725 -0.131741
C10   C     C_R   0.367501 0.998007 0.537103 -0.012481
C11   C     C_R   0.462626 0.966851 0.499530 -0.044584
C12   C     C_R   0.492495 0.399208 0.088802 0.008414
C13   C     C_R   0.477874 0.867382 0.462770 0.016695
C14   C     C_R   0.542829 0.030436 0.497353 0.004517
C15   C     C_R   0.645612 0.990741 0.478633 0.024385
C16   C     C_R   0.560354 0.309259 0.509976 0.915581
C17   C     C_R   0.656472 0.893958 0.436188 0.360763
C18   C     C_R   0.569142 0.835774 0.422317 0.381390
C19   C     C_R   0.517567 0.135316 0.501983 -0.083722
C20   C     C_R   0.703164 0.159157 0.512789 -0.205781
C21   C     C_R   0.403402 0.799749 0.471429 -0.058635
C22   C     C_R   0.098864 0.326273 0.392896 0.345369
C23   C     C_R   0.504263 0.679458 0.054736 -0.072763
C24   C     C_R   0.795636 0.643870 0.594319 0.027201
C25   C     C_R   0.889639 0.686594 0.593538 0.409530
C26   C     C_R   0.969343 0.631227 0.553407 -0.246731
C27   C     C_R   0.961043 0.530076 0.522945 0.018076
C28   C     C_R   0.499864 0.498567 0.327946 0.893319
C29   C     C_R   0.858365 0.495971 0.512235 0.064958
C30   C     C_R   0.047177 0.467010 0.492106 -0.093889
C31   C     C_R   0.028213 0.372688 0.449131 -0.096522
C32   C     C_R   0.935008 0.332070 0.458917 0.312685
C33   C     C_R   0.844111 0.401082 0.466209 -0.056863
C34   C     C_R   0.498197 0.680453 0.960918 -0.131386
C35   C     C_R   0.153552 0.491096 0.505707 0.032889
C36   C     C_R   0.194081 0.367602 0.392995 0.023143
C37   C     C_R   0.499859 0.398827 0.184660 0.371501
C38   C     C_R   0.499739 0.492730 0.232311 -0.158704
C39   C     C_R   0.497720 0.584078 0.189387 -0.232047
C40   C     C_R   0.500714 0.586108 0.097287 0.039609
C41   C     C_R   0.495753 0.493412 0.045920 0.040674
C42   C     C_2   0.842620 0.019500 0.488855 1.107795
C43   C     C_2   0.356132 0.084245 0.602668 0.900995
C44   C     C_2   0.260563 0.329878 0.326031 1.061621
C45   C     C_R   0.494669 0.590101 0.909306 0.061502
C46   C     C_2   0.197487 0.542943 0.591884 0.970002
C47   C     C_2   0.720653 0.694957 0.650192 1.044409
C48   C     C_2   0.767286 0.399250 0.378879 1.009062
C49   C     C_2   0.517902 0.777413 0.105191 0.945479
C50   C     C_2   0.435058 0.226605 0.880361 0.981443
C51   C     C_2   0.460287 0.213017 0.073161 1.073563
C52   C     C_R   0.494159 0.495527 0.951716 -0.038152
C53   C     C_R   0.491308 0.403889 0.899539 -0.057556
C54   C     C_R   0.473644 0.313151 0.939085 -0.144854
C55   C     C_R   0.478843 0.309434 0.034173 -0.097229
H1    H     H_    0.433983 0.167597 0.493425 0.185162
H2    H     H_    0.887614 0.004461 0.625880 0.331713
H3    H     H_    0.258330 0.201598 0.644960 0.393235
H4    H     H_    0.644495 0.714414 0.374288 0.375148
H5    H     H_    0.293593 0.349154 0.201467 0.378976
H6    H     H_    0.995859 0.189876 0.458821 0.393967
H7    H     H_    0.993663 0.258759 0.308112 0.385137
H8    H     H_    0.261485 0.664772 0.654181 0.340056
H9    H     H_    0.623453 0.822438 0.674289 0.355413
H10   H     H_    0.975178 0.798036 0.630379 0.367199
H11   H     H_    0.721259 0.457197 0.251132 0.350277
H12   H     H_    0.241047 0.788674 0.489493 0.221540
H13   H     H_    0.473981 0.930023 0.108628 0.374878
H14   H     H_    0.470727 0.681680 0.707194 0.327235
H15   H     H_    0.580748 0.271004 0.800466 0.350806
H16   H     H_    0.453553 0.075272 0.852521 0.379142
H17   H     H_    0.354501 0.132488 0.113194 0.365619
H18   H     H_    0.209480 0.961298 0.545293 0.207567
H19   H     H_    0.491629 0.653903 0.228931 0.225947
H20   H     H_    0.036423 0.669220 0.545579 0.168151
H21   H     H_    0.500440 0.752408 0.928770 0.233856
H22   H     H_    0.765346 0.209012 0.523304 0.208300
H23   H     H_    0.511556 0.316970 0.295991 0.359389
H24   H     H_    0.725886 0.833405 0.339350 0.385509
N1    N     N_R   0.222190 0.444670 0.452360 -0.211291
N2    N     N_R   0.776970 0.554790 0.547140 -0.199755
O1    O     O_R   0.366740 0.627160 0.477250 -0.586302
O2    O     O_3   0.748107 0.861150 0.401901 -0.737544
O3    O     O_2   0.870809 0.014833 0.415034 -0.472045
O4    O     O_R   0.919711 0.995946 0.568676 -0.769874
O5    O     O_2   0.433461 0.101612 0.661644 -0.577997
O6    O     O_R   0.255952 0.144171 0.597953 -0.783418
O7    O     O_3   0.569550 0.749332 0.367472 -0.762034
O8    O     O_2   0.317470 0.247250 0.337063 -0.609614
O9    O     O_R   0.250652 0.385556 0.246027 -0.766315
O10   O     O_3   0.923311 0.230250 0.442644 -0.732414
O11   O     O_3   0.072841 0.248938 0.330826 -0.711159
O12   O     O_R   0.544830 0.662520 0.507680 -0.618747
O13   O     O_2   0.195266 0.505029 0.665169 -0.590079
O14   O     O_R   0.236132 0.636657 0.590455 -0.826229
O15   O     O_2   0.710059 0.653521 0.719264 -0.583442
O16   O     O_R   0.671174 0.794778 0.629811 -0.797675
O17   O     O_3   0.902614 0.781215 0.633764 -0.716390
O18   O     O_2   0.715476 0.327360 0.359454 -0.589889
O19   O     O_R   0.765983 0.472856 0.313048 -0.788347
O20   O     O_2   0.586093 0.779790 0.175560 -0.595507
O21   O     O_R   0.456412 0.868075 0.069128 -0.766427
O22   O     O_3   0.483457 0.688270 0.774688 -0.751344
O23   O     O_R   0.410940 0.482340 0.616930 -0.588581
O24   O     O_3   0.529130 0.319503 0.758416 -0.723016
O25   O     O_2   0.356433 0.242982 0.818029 -0.550263
O26   O     O_R   0.488303 0.127175 0.896404 -0.755903
O27   O     O_2   0.535327 0.144471 0.093855 -0.528448
O28   O     O_R   0.357021 0.201150 0.085753 -0.779862
O29   O     O_R   0.589030 0.517700 0.647360 -0.589570
O30   O     O_R   0.455170 0.337480 0.492320 -0.625337
O31   O     O_R   0.633260 0.372840 0.522750 -0.625142
O32   O     O_R   0.410970 0.482300 0.352640 -0.611385
O33   O     O_R   0.589060 0.517660 0.383070 -0.599167
O34   O     O_3   0.509145 0.306800 0.229689 -0.725082
Zn1   Zn    Zn3+2 0.381090 0.476390 0.479680 1.017547
Zn2   Zn    Zn3+2 0.618910 0.523610 0.520320 0.996957

loop_
_geom_bond_atom_site_label_1
_geom_bond_atom_site_label_2
_ccdc_geom_bond_type
C19   H1    S    
C1    C21   S    
H16   O26   S    
C27   C29   A    
H23   O34   S    
H3    O6    S    
C5    O24   S    
C53   C54   A    
C26   C27   A    
C50   C54   S    
C9    H18   S    
C13   C18   A    
C2    O22   S    
C5    C53   A    
H13   O21   S    
H10   O17   S    
C28   O32   A    
C49   O20   D    
C30   C31   A    
C11   C14   A    
C23   C49   S    
C32   O10   S    
C23   C40   A    
H8    O14   S    
C35   N1    A    
C39   H19   S    
H11   O19   S    
C12   C37   A    
H4    O7    S    
C6    C15   A    
O23   Zn1   S    
C46   O14   S    
N1    Zn1   S    
C29   C33   A    
C51   O27   D    
H7    O11   S    
C47   O15   D    
O30   Zn1   S    
C9    C10   A    
C41   C52   A    
O32   Zn1   S    
C51   O28   S    
C27   C30   A    
C43   O5    D    
O12   Zn2   S    
O29   Zn2   S    
C8    C21   A    
H14   O22   S    
C2    C45   A    
C48   O19   S    
C22   C31   A    
C12   C55   A    
C42   O3    D    
C24   C25   A    
C36   N1    A    
C39   C40   A    
C42   O4    S    
C8    C9    A    
C45   C52   A    
C25   C26   A    
C18   O7    S    
C17   O2    S    
C24   N2    A    
C29   N2    A    
C37   C38   A    
H17   O28   S    
C31   C32   A    
C46   O13   D    
C28   C38   S    
C23   C34   A    
C17   C18   A    
C13   C21   A    
C34   C45   A    
C28   O33   A    
C20   H22   S    
N2    Zn2   S    
C1    O12   A    
C7    C16   S    
C7    C19   A    
C50   O26   S    
C36   C44   S    
C3    C4    S    
C30   C35   A    
C49   O21   S    
C44   O9    S    
C52   C53   A    
C16   O31   A    
C12   C41   A    
C15   C17   A    
C48   O18   D    
C4    O29   A    
C54   C55   A    
H9    O16   S    
C10   C43   S    
C24   C47   S    
C14   C19   A    
C3    C5    A    
H15   O24   S    
C37   O34   S    
H5    O9    S    
C22   C36   A    
C47   O16   S    
O31   Zn2   S    
C43   O6    S    
C32   C33   A    
C2    C3    A    
C1    O1    A    
O1    Zn1   S    
H24   O2    S    
C11   C13   A    
C38   C39   A    
C6    C20   A    
C4    O23   A    
H2    O4    S    
C51   C55   S    
O33   Zn2   S    
C10   C11   A    
C25   O17   S    
C8    H12   S    
C26   H20   S    
C7    C20   A    
C6    C42   S    
C50   O25   D    
C33   C48   S    
C22   O11   S    
C14   C15   A    
C40   C41   A    
C35   C46   S    
C44   O8    D    
H6    O10   S    
C16   O30   A    
C34   H21   S    
