data_mof_unit_56136.cif
_audit_creation_date              2012-12-10T18:59:14-0500
_audit_creation_method            fapswitch 2.2
_symmetry_space_group_name_H-M    P1
_symmetry_Int_Tables_number       1
_space_group_crystal_system       triclinic
_cell_length_a                    10.861509
_cell_length_b                    10.898295
_cell_length_c                    9.551989
_cell_angle_alpha                 90.137327
_cell_angle_beta                  90.651181
_cell_angle_gamma                 91.212105
_cell_volume                      1130.35741866

loop_
_atom_site_label
_atom_site_type_symbol
_atom_type_description
_atom_site_fract_x
_atom_site_fract_y
_atom_site_fract_z
_atom_type_partial_charge
C1    C     C_R   0.497772 0.262882 0.499619 0.809762
C2    C     C_R   0.060571 0.514476 0.626331 -0.039006
C3    C     C_R   0.125921 0.500314 0.499165 -0.119948
C4    C     C_R   0.061204 0.459583 0.377434 0.403947
C5    C     C_R   0.932796 0.449499 0.380217 -0.272850
C6    C     C_R   0.869972 0.463860 0.505364 -0.131467
C7    C     C_R   0.482695 0.063060 0.618990 -0.039193
C8    C     C_R   0.491016 0.130640 0.497207 -0.165650
C9    C     C_R   0.485595 0.065637 0.369695 -0.186937
C10   C     C_R   0.473504 0.937110 0.367844 0.408339
C11   C     C_R   0.478142 0.870029 0.496420 -0.188275
C12   C     C_R   0.261607 0.503335 0.499465 0.860224
C13   C     C_R   0.475916 0.938998 0.619455 0.050497
C14   C     C_3   0.462683 0.934076 0.775395 0.175474
C15   C     C_3   0.470836 0.075420 0.773534 0.179853
C16   C     C_R   0.550333 0.597406 0.074055 0.133526
C17   C     C_R   0.437926 0.411838 0.073395 -0.021144
C18   C     C_R   0.437539 0.412135 0.924628 -0.029027
C19   C     C_R   0.550974 0.596761 0.926118 0.160778
C20   C     C_3   0.681986 0.639014 0.919369 0.037361
C21   C     C_3   0.681239 0.645519 0.078420 0.651385
C22   C     C_R   0.491181 0.737088 0.499532 0.862437
C23   C     C_R   0.736505 0.484921 0.501287 0.845509
C24   C     C_R   0.111316 0.568008 0.750110 0.338415
C25   C     C_R   0.062326 0.532779 0.881478 0.335299
C26   C     C_R   0.956387 0.458297 0.884393 -0.225146
C27   C     C_R   0.891986 0.431081 0.760707 -0.250377
C28   C     C_R   0.938579 0.470261 0.631277 0.029738
Cu1   Cu    Cu3+1 0.499990 0.499980 0.640670 1.009888
Cu2   Cu    Cu3+1 0.500010 0.500020 0.359330 1.028087
N1    N     N_R   0.500790 0.500930 0.147930 -0.187879
N2    N     N_R   0.500790 0.500890 0.852020 -0.201023
O1    O     O_R   0.500000 0.319640 0.618810 -0.577125
O2    O     O_R   0.500010 0.319680 0.381230 -0.605433
O3    O     O_R   0.319640 0.499980 0.618820 -0.563280
O4    O     O_R   0.319650 0.500020 0.381230 -0.539661
O5    O     O_R   0.499990 0.680320 0.618770 -0.519773
O6    O     O_R   0.500000 0.680360 0.381190 -0.565583
O7    O     O_R   0.680350 0.499980 0.618770 -0.593596
O8    O     O_R   0.680360 0.500020 0.381180 -0.512938
O9    O     O_3   0.124140 0.428911 0.257888 -0.687546
H1    H     H_    0.065794 0.391334 0.188795 0.336045
H2    H     H_    0.538370 0.889613 0.832093 0.190956
H3    H     H_    0.385465 0.121946 0.805333 0.151943
O10   O     O_3   0.577759 0.124536 0.839145 -0.720793
H4    H     H_    0.650551 0.082143 0.801723 0.334174
H5    H     H_    0.389518 0.339104 0.128218 0.156795
H6    H     H_    0.388286 0.340100 0.868172 0.142646
H7    H     H_    0.740381 0.567787 0.875897 0.153448
O11   O     O_3   0.697512 0.752435 0.853534 -0.749160
H8    H     H_    0.787453 0.770373 0.855174 0.347359
O12   O     O_3   0.763799 0.563745 0.137753 -0.738007
H9    H     H_    0.846810 0.602421 0.127817 0.346152
O13   O     O_3   0.694136 0.764213 0.136522 -0.673393
H10   H     H_    0.632743 0.817656 0.090942 0.359223
O14   O     O_3   0.197440 0.662301 0.738537 -0.691461
H11   H     H_    0.192767 0.715078 0.822603 0.356585
O15   O     O_3   0.116121 0.567390 0.007258 -0.718451
H12   H     H_    0.204659 0.585846 0.992028 0.334862
H13   H     H_    0.920201 0.426426 0.983216 0.182828
H14   H     H_    0.807144 0.377590 0.767046 0.194742
H15   H     H_    0.882414 0.426177 0.285462 0.196844
H16   H     H_    0.485374 0.114130 0.270782 0.190817
O16   O     O_3   0.452269 0.882283 0.239689 -0.737296
H17   H     H_    0.384791 0.820715 0.251687 0.333697
O17   O     O_3   0.345538 0.890927 0.812816 -0.711573
H18   H     H_    0.344123 0.893444 0.916635 0.333355

loop_
_geom_bond_atom_site_label_1
_geom_bond_atom_site_label_2
_ccdc_geom_bond_type
C23   O8    A    
C15   H3    S    
O13   H10   S    
C20   O11   S    
C5    H15   S    
C16   C21   S    
Cu1   O1    S    
C12   O4    A    
C1    C8    S    
O9    H1    S    
Cu1   O3    S    
C11   C22   S    
C6    C23   S    
C19   C20   S    
Cu2   O4    S    
C21   O13   S    
O16   H17   S    
Cu1   O7    S    
C7    C15   S    
O11   H8    S    
C14   O17   S    
Cu2   O8    S    
C7    C8    A    
C13   C14   S    
C20   C21   S    
C16   N1    A    
C4    C5    A    
C11   C13   A    
Cu2   N1    S    
C1    O1    A    
C26   C27   A    
C20   H7    S    
C16   C19   A    
C23   O7    A    
C19   N2    A    
C9    C10   A    
C1    O2    A    
C17   C18   A    
Cu1   N2    S    
C2    C3    A    
C2    C24   A    
C5    C6    A    
C17   N1    A    
C6    C28   A    
O15   H12   S    
C24   O14   S    
C4    O9    S    
Cu2   O2    S    
Cu1   Cu2   S    
C3    C4    A    
C22   O6    A    
O10   H4    S    
C7    C13   A    
C18   N2    A    
C24   C25   A    
Cu2   O6    S    
C12   O3    A    
C25   O15   S    
C10   C11   A    
Cu1   O5    S    
O17   H18   S    
O14   H11   S    
C15   O10   S    
C14   C15   S    
C8    C9    A    
C2    C28   A    
C3    C12   S    
C27   H14   S    
C25   C26   A    
C9    H16   S    
C22   O5    A    
C26   H13   S    
C21   O12   S    
C10   O16   S    
C17   H5    S    
O12   H9    S    
C14   H2    S    
C27   C28   A    
C18   H6    S    
