data_mof_unit_62521.cif
_audit_creation_date              2012-10-26T18:18:26-0400
_audit_creation_method            fapswitch 2.2
_symmetry_space_group_name_H-M    P1
_symmetry_Int_Tables_number       1
_space_group_crystal_system       triclinic
_cell_length_a                    18.753575
_cell_length_b                    18.64299
_cell_length_c                    19.035602
_cell_angle_alpha                 109.564495
_cell_angle_beta                  109.360881
_cell_angle_gamma                 108.965339
_cell_volume                      5155.92610906

loop_
_atom_site_label
_atom_site_type_symbol
_atom_type_description
_atom_site_fract_x
_atom_site_fract_y
_atom_site_fract_z
_atom_type_partial_charge
C1    C     C_R   0.880239 0.381077 0.998592 0.598823
C2    C     C_R   0.180679 0.493150 0.181437 -0.049206
C3    C     C_R   0.177118 0.412476 0.170237 0.013074
C4    C     C_R   0.884388 0.503702 0.882479 0.613601
C5    C     C_R   0.244212 0.412692 0.233320 0.014703
C6    C     C_R   0.313566 0.493636 0.305967 -0.039381
C7    C     C_R   0.319132 0.571482 0.310514 0.022478
C8    C     C_3   0.331409 0.648288 0.382814 -0.077806
C9    C     C_3   0.258917 0.648171 0.314770 -0.067639
C10   C     C_R   0.256539 0.682063 0.004487 -0.002170
C11   C     C_R   0.180454 0.684633 0.994607 -0.014279
C12   C     C_R   0.811641 0.312842 0.994761 0.007666
C13   C     C_R   0.165902 0.748230 0.976615 0.019795
C14   C     C_R   0.232990 0.812567 0.978711 -0.135091
C15   C     C_R   0.313072 0.814629 0.998839 -0.024867
C16   C     C_R   0.117599 0.618807 0.999024 0.566152
C17   C     C_R   0.322115 0.746286 0.007307 0.005315
C18   C     C_3   0.391780 0.748185 0.076791 -0.061258
C19   C     C_3   0.318630 0.676578 0.073397 -0.086871
C20   C     C_R   0.499028 0.380890 0.380596 0.621057
C21   C     C_R   0.614345 0.494321 0.609452 0.609174
C22   C     C_R   0.497100 0.618870 0.615859 0.538910
C23   C     C_R   0.727296 0.258204 0.921496 0.031159
C24   C     C_R   0.378937 0.498502 0.377403 0.560348
C25   C     C_R   0.501981 0.882363 0.882612 0.582408
C26   C     C_R   0.618907 0.117941 0.998979 0.550041
C27   C     C_R   0.498646 0.118682 0.117590 0.533706
C28   C     C_R   0.116042 0.497412 0.117407 0.555821
C29   C     C_R   0.381103 0.881710 0.000508 0.550083
C30   C     C_R   0.477702 0.308783 0.236442 0.001131
C31   C     C_R   0.498968 0.312467 0.315540 -0.008540
C32   C     C_R   0.507521 0.242700 0.325098 0.027180
C33   C     C_R   0.504506 0.177725 0.257837 -0.141159
C34   C     C_R   0.665070 0.191724 0.922330 -0.118764
C35   C     C_R   0.492923 0.181171 0.182549 -0.026729
C36   C     C_R   0.473968 0.243914 0.170624 0.034407
C37   C     C_3   0.513843 0.305631 0.143245 -0.083254
C38   C     C_3   0.517068 0.377370 0.216088 -0.084924
C39   C     C_R   0.544249 0.773364 0.711263 -0.036459
C40   C     C_2   0.754510 0.493556 0.671610 0.052310
C41   C     C_R   0.499671 0.685267 0.685255 0.020002
C42   C     C_R   0.456435 0.662743 0.729338 -0.129694
C43   C     C_R   0.458473 0.727887 0.795725 -0.131019
C44   C     C_R   0.502557 0.815890 0.817822 0.051545
C45   C     C_R   0.685673 0.179834 0.994167 -0.011417
C46   C     C_R   0.544072 0.835636 0.773272 0.022745
C47   C     C_3   0.596620 0.908106 0.763582 0.060264
C48   C     C_3   0.597478 0.836386 0.693350 -0.232236
C49   C     C_2   0.677622 0.481965 0.666533 -0.055077
C50   C     C_2   0.813606 0.484951 0.738800 -0.143619
C51   C     C_2   0.828122 0.518533 0.820200 0.062594
C52   C     C_R   0.833429 0.291957 0.059737 0.037651
C53   C     C_2   0.779627 0.505946 0.608499 0.622713
C54   C     C_2   0.102325 0.328273 0.095166 0.638907
C55   C     C_2   0.239271 0.328916 0.225796 0.647703
C56   C     C_R   0.771747 0.226730 0.059530 0.032203
C57   C     C_2   0.420375 0.727296 0.431151 0.625248
C58   C     C_2   0.282735 0.725160 0.299729 0.624039
C59   C     C_2   0.083052 0.750228 0.955624 0.604349
C60   C     C_2   0.451340 0.722534 0.050450 0.623860
C61   C     C_2   0.313192 0.588058 0.043423 0.621713
C62   C     C_2   0.525774 0.237956 0.405222 0.595313
C63   C     C_2   0.456298 0.283127 0.053084 0.635648
C64   C     C_2   0.459977 0.416391 0.192073 0.640190
C65   C     C_2   0.548302 0.949957 0.728475 0.583989
C66   C     C_2   0.684848 0.974224 0.841482 0.561791
C67   C     C_3   0.809475 0.277035 0.154414 -0.261753
C68   C     C_2   0.799118 0.581653 0.853740 0.585869
C69   C     C_2   0.699708 0.271533 0.846146 0.600361
C70   C     C_3   0.877606 0.348955 0.154611 -0.263712
C71   C     C_R   0.253618 0.571164 0.249576 -0.024436
Cu1   Cu    Cu3+1 0.999590 0.561790 0.061400 1.095053
Cu2   Cu    Cu3+1 0.000410 0.438210 0.938600 1.109264
Cu3   Cu    Cu3+1 0.558560 0.561730 0.496790 1.089477
Cu4   Cu    Cu3+1 0.434970 0.438120 0.496790 1.054915
Cu5   Cu    Cu3+1 0.438600 0.999980 0.938570 1.098777
Cu6   Cu    Cu3+1 0.561400 0.999920 0.061330 1.030642
H1    H     H_    0.943908 0.358408 0.187378 0.174218
H2    H     H_    0.254720 0.817721 0.288424 0.349106
H3    H     H_    0.021891 0.821280 0.951219 0.366791
H4    H     H_    0.223690 0.862576 0.966647 0.189096
H5    H     H_    0.550432 0.697203 0.083162 0.356833
H6    H     H_    0.658119 0.458923 0.706087 0.106353
H7    H     H_    0.428000 0.811142 0.137991 0.126238
H8    H     H_    0.256755 0.464653 0.947500 0.354444
H9    H     H_    0.312808 0.698848 0.132076 0.141518
H10   H     H_    0.520690 0.162168 0.460312 0.353325
H11   H     H_    0.515011 0.126339 0.265510 0.181052
H12   H     H_    0.560912 0.823760 0.627238 0.184991
H13   H     H_    0.579388 0.315691 0.154746 0.075931
H14   H     H_    0.439660 0.320209 0.963446 0.355772
H15   H     H_    0.584632 0.427858 0.267868 0.121788
H16   H     H_    0.452249 0.526206 0.212125 0.380636
H17   H     H_    0.421189 0.595337 0.712808 0.158223
H18   H     H_    0.845706 0.449117 0.719996 0.156527
H19   H     H_    0.424586 0.709497 0.828431 0.171057
H20   H     H_    0.542073 0.022044 0.670221 0.375284
H21   H     H_    0.763044 0.028931 0.968636 0.352317
H22   H     H_    0.784270 0.685195 0.857787 0.347271
H23   H     H_    0.662001 0.840546 0.710456 0.161017
H24   H     H_    0.613627 0.220490 0.721743 0.350431
H25   H     H_    0.599387 0.152007 0.868755 0.196191
H26   H     H_    0.765289 0.296124 0.172856 0.137702
H27   H     H_    0.836564 0.245131 0.187174 0.165606
H28   H     H_    0.873110 0.409919 0.173280 0.152772
H29   H     H_    0.742391 0.482414 0.487038 0.335361
H30   H     H_    0.061120 0.211507 0.996559 0.357771
H31   H     H_    0.167019 0.208099 0.203012 0.353770
H32   H     H_    0.312260 0.630027 0.426361 0.077256
H33   H     H_    0.542893 0.779534 0.451965 0.347878
H34   H     H_    0.199475 0.630524 0.320922 0.123055
O1    O     O_R   0.909480 0.462010 0.051860 -0.515563
O2    O     O_R   0.552410 0.909770 0.962140 -0.470538
O3    O     O_R   0.538310 0.090150 0.948110 -0.503544
O4    O     O_R   0.910180 0.357650 0.948150 -0.467599
O5    O     O_R   0.642020 0.090090 0.051780 -0.500029
O6    O     O_R   0.447590 0.090130 0.037760 -0.471142
O7    O     O_R   0.551300 0.090080 0.141420 -0.527663
O8    O     O_R   0.357980 0.909810 0.948120 -0.510325
O9    O     O_R   0.461690 0.909750 0.051790 -0.507480
O10   O     O_R   0.910060 0.552180 0.962250 -0.450605
O11   O     O_R   0.910760 0.447820 0.858550 -0.512560
O12   O     O_R   0.445180 0.357580 0.407200 -0.466395
O13   O     O_R   0.089820 0.642350 0.051850 -0.494200
O14   O     O_R   0.090520 0.537990 0.948140 -0.480201
O15   O     O_R   0.089240 0.552180 0.141450 -0.517650
O16   O     O_R   0.089940 0.447820 0.037750 -0.484173
O17   O     O_R   0.549550 0.461960 0.407200 -0.496731
O18   O     O_2   0.856443 0.544607 0.630286 -0.481083
O19   O     O_R   0.716552 0.470340 0.523609 -0.662563
O20   O     O_2   0.028168 0.313271 0.077030 -0.514995
O21   O     O_R   0.116994 0.266140 0.045606 -0.624076
O22   O     O_2   0.302751 0.319120 0.237332 -0.473108
O23   O     O_R   0.638540 0.552110 0.586390 -0.471284
O24   O     O_R   0.162185 0.261599 0.206280 -0.666292
O25   O     O_2   0.434392 0.796112 0.485362 -0.486630
O26   O     O_R   0.486434 0.722071 0.414762 -0.631386
O27   O     O_2   0.343465 0.749615 0.286545 -0.488257
O28   O     O_R   0.233684 0.767738 0.299972 -0.667145
O29   O     O_2   0.015297 0.683792 0.924946 -0.498308
O30   O     O_R   0.082084 0.828270 0.968681 -0.675941
O31   O     O_2   0.445926 0.710170 0.981128 -0.509320
O32   O     O_R   0.514022 0.714427 0.107103 -0.632078
O33   O     O_2   0.360263 0.575390 0.094270 -0.455730
O34   O     O_R   0.534170 0.447730 0.586390 -0.498008
O35   O     O_R   0.254147 0.520640 0.958823 -0.654849
O36   O     O_2   0.561127 0.304047 0.474286 -0.496529
O37   O     O_R   0.504500 0.157216 0.401848 -0.685098
O38   O     O_2   0.387681 0.214409 0.005012 -0.445653
O39   O     O_R   0.482916 0.341698 0.024733 -0.661970
O40   O     O_2   0.382430 0.369577 0.140164 -0.425226
O41   O     O_R   0.496558 0.507173 0.231449 -0.644931
O42   O     O_2   0.482002 0.942053 0.731008 -0.486628
O43   O     O_R   0.580155 0.998025 0.692719 -0.621963
O44   O     O_2   0.741037 0.022570 0.834518 -0.458911
O45   O     O_R   0.548350 0.642270 0.586380 -0.514302
O46   O     O_R   0.702086 0.981188 0.921501 -0.689014
O47   O     O_2   0.771011 0.577740 0.902648 -0.471668
O48   O     O_R   0.805831 0.646465 0.830802 -0.675042
O49   O     O_2   0.739263 0.341825 0.852162 -0.515052
O50   O     O_R   0.626367 0.203629 0.768065 -0.681998
O51   O     O_R   0.443970 0.537890 0.586380 -0.526988
O52   O     O_R   0.459360 0.552110 0.407190 -0.458341
O53   O     O_R   0.354990 0.447740 0.407190 -0.510295
O54   O     O_R   0.448700 0.909820 0.858480 -0.475325

loop_
_geom_bond_atom_site_label_1
_geom_bond_atom_site_label_2
_ccdc_geom_bond_type
C58   O28   S    
C9    H34   S    
H2    O28   S    
Cu1   O1    S    
H22   O48   S    
Cu1   O10   S    
C70   H1    S    
C41   C42   A    
C23   C69   S    
C35   C36   A    
C43   C44   A    
Cu6   O9    S    
C21   C49   S    
C67   H26   S    
C7    C8    S    
C39   C41   A    
C22   O45   A    
Cu4   O34   S    
C54   O20   D    
C29   O8    A    
C12   C23   A    
C34   H25   S    
C37   H13   S    
C64   O41   S    
Cu4   O51   S    
Cu4   O12   S    
C36   C37   S    
C33   H11   S    
C69   O50   S    
C20   O17   A    
C60   O32   S    
C7    C71   A    
Cu3   O52   S    
C22   O51   A    
C3    C54   S    
Cu2   O14   S    
C50   H18   S    
C22   C41   S    
C10   C17   A    
C40   C49   D    
C38   H15   S    
C69   O49   D    
C30   C38   S    
C15   C17   A    
C9    C58   S    
C63   O38   D    
C20   O12   A    
C65   O42   D    
C26   C45   S    
C37   C63   S    
Cu3   O17   S    
C66   O44   D    
C47   C48   S    
C45   C56   A    
C44   C46   A    
C8    C9    S    
Cu5   O3    S    
C57   O25   D    
Cu6   O5    S    
C16   O14   A    
C47   C66   S    
C28   O16   A    
Cu1   Cu2   S    
C60   O31   D    
C58   O27   D    
C62   O37   S    
C13   C14   A    
Cu1   O13   S    
C24   O53   A    
C1    C12   S    
C55   O24   S    
Cu6   O2    S    
C14   H4    S    
C25   C44   S    
C12   C52   A    
C28   O15   A    
C67   H27   S    
C15   C29   S    
C38   C64   S    
C27   O6    A    
C48   H23   S    
C29   O9    A    
Cu5   O8    S    
H10   O37   S    
C64   O40   D    
C57   O26   S    
Cu5   Cu6   S    
H31   O24   S    
Cu6   O7    S    
Cu3   Cu4   S    
C18   C19   S    
C4    C51   S    
C25   O54   A    
Cu2   O16   S    
Cu1   O15   S    
Cu4   O53   S    
C21   O34   A    
C61   O35   S    
C26   O3    A    
C63   O39   S    
C37   C38   S    
C33   C35   A    
C25   O2    A    
C8    C57   S    
C43   H19   S    
C11   C16   S    
C61   O33   D    
C18   H7    S    
C31   C32   A    
H21   O46   S    
C10   C19   S    
C23   C34   A    
C6    C24   S    
C17   C18   S    
C4    O11   A    
Cu5   O54   S    
C50   C51   D    
C34   C45   A    
H20   O43   S    
H8    O35   S    
C39   C46   A    
C18   C60   S    
H3    O30   S    
C19   H9    S    
C62   O36   D    
H5    O32   S    
C24   O52   A    
C53   O18   D    
C42   C43   A    
C2    C71   A    
C68   O48   S    
C21   O23   A    
C27   O7    A    
H29   O19   S    
C46   C47   S    
C42   H17   S    
C5    C55   S    
H33   O26   S    
C9    C71   S    
H30   O21   S    
C3    C5    A    
C70   H28   S    
H14   O39   S    
C40   C53   S    
C6    C7    A    
C13   C59   S    
C56   C67   S    
C54   O21   S    
Cu5   O6    S    
Cu2   O4    S    
C30   C36   A    
C48   H12   S    
C67   C70   S    
C27   C35   S    
C32   C33   A    
C49   H6    S    
H24   O50   S    
C2    C3    A    
C16   O13   A    
C32   C62   S    
C1    O1    A    
C55   O22   D    
C8    H32   S    
C11   C13   A    
C30   C31   A    
C5    C6    A    
C59   O29   D    
C19   C61   S    
C40   C50   S    
Cu3   O23   S    
C68   O47   D    
C4    O10   A    
C51   C68   S    
C26   O5    A    
C52   C70   S    
C10   C11   A    
C59   O30   S    
Cu2   O11   S    
C14   C15   A    
Cu3   O45   S    
H16   O41   S    
C2    C28   S    
C53   O19   S    
C1    O4    A    
C65   O43   S    
C47   C65   S    
C66   O46   S    
C52   C56   A    
C39   C48   S    
C20   C31   S    
