data_mof_unit_29772.cif
_audit_creation_date              2012-12-11T18:29:26-0500
_audit_creation_method            fapswitch 2.2
_symmetry_space_group_name_H-M    P1
_symmetry_Int_Tables_number       1
_space_group_crystal_system       triclinic
_cell_length_a                    8.193512
_cell_length_b                    14.510965
_cell_length_c                    17.3074
_cell_angle_alpha                 97.222703
_cell_angle_beta                  97.121593
_cell_angle_gamma                 91.730538
_cell_volume                      2023.50659551

loop_
_atom_site_label
_atom_site_type_symbol
_atom_type_description
_atom_site_fract_x
_atom_site_fract_y
_atom_site_fract_z
_atom_type_partial_charge
Ba1   Ba    Ba6+2 0.833220 0.541860 0.459910 1.704151
Ba2   Ba    Ba6+2 0.356600 0.458220 0.540090 1.676231
C1    C     C_3   0.647344 0.811613 0.173136 -0.213420
C2    C     C_3   0.408021 0.485372 0.216167 0.021007
C3    C     C_2   0.335712 0.489476 0.132135 -0.146260
C4    C     C_3   0.107641 0.733186 0.248178 0.408618
C5    C     C_2   0.173707 0.470115 0.108787 -0.072626
C6    C     C_2   0.064537 0.445212 0.168570 -0.147724
C7    C     C_1   0.124752 0.454147 0.245467 0.006860
C8    C     C_R   0.898621 0.470301 0.867054 0.335382
C9    C     C_R   0.834880 0.454062 0.786320 -0.070627
C10   C     C_R   0.076290 0.533036 0.751703 0.063610
C11   C     C_R   0.143973 0.545976 0.831619 -0.187794
C12   C     C_3   0.613268 0.758778 0.240477 0.729696
C13   C     C_R   0.059869 0.510949 0.889390 0.008245
C14   C     C_2   0.108938 0.459486 0.023250 -0.041834
C15   C     C_2   0.138981 0.521293 0.973474 -0.043957
C16   C     C_3   0.118356 0.758611 0.166209 0.266936
C17   C     C_R   0.927126 0.482332 0.729808 -0.323049
C18   C     C_R   0.708451 0.947445 0.555844 -0.046136
C19   C     C_R   0.511733 0.805882 0.507086 0.020272
C20   C     C_R   0.358260 0.772099 0.467892 -0.292251
C21   C     C_R   0.245692 0.830834 0.436296 0.011419
C22   C     C_R   0.291905 0.924167 0.436194 -0.069830
C23   C     C_3   0.451122 0.290484 0.305530 0.306696
C24   C     C_R   0.448403 0.960448 0.472399 0.031746
C25   C     C_R   0.558839 0.903358 0.512964 -0.052298
C26   C     C_R   0.643183 0.095454 0.507204 -0.024567
C27   C     C_R   0.753746 0.040714 0.548977 -0.019140
C28   C     C_3   0.219934 0.750426 0.631218 0.346985
C29   C     C_R   0.687004 0.190845 0.506374 0.032708
C30   C     C_R   0.836941 0.229241 0.546561 -0.274486
C31   C     C_R   0.951546 0.173302 0.581290 0.011193
C32   C     C_R   0.910315 0.080509 0.583409 -0.099483
C33   C     C_R   0.492109 0.054089 0.469189 -0.018521
C34   C     C_3   0.406983 0.248024 0.220226 -0.357542
C35   C     C_3   0.255771 0.854371 0.656087 0.275335
C36   C     C_3   0.986258 0.254978 0.381190 0.299361
C37   C     C_3   0.972849 0.149182 0.366382 -0.357275
C38   C     C_3   0.739598 0.671309 0.689745 0.334647
C39   C     C_3   0.776763 0.703209 0.777582 -0.322049
C40   C     C_2   0.134565 0.191511 0.875723 0.535299
C41   C     C_2   0.536896 0.093978 0.738562 0.646531
C42   C     C_2   0.895347 0.406212 0.138369 0.559814
C43   C     C_2   0.814840 0.904489 0.614883 0.558971
C44   C     C_3   0.180651 0.284012 0.766778 0.353760
C45   C     C_3   0.229822 0.271238 0.852835 -0.244531
C46   C     C_3   0.716864 0.238898 0.771952 0.246436
C47   C     C_3   0.678890 0.142197 0.793292 0.190768
C48   C     C_2   0.275184 0.492978 0.269992 0.113943
H1    H     H_    0.733963 0.738088 0.268094 0.048392
H2    H     H_    0.654088 0.608989 0.680123 0.057039
H3    H     H_    0.697752 0.764319 0.127308 0.036829
H4    H     H_    0.867537 0.763305 0.788533 0.149089
H5    H     H_    0.827859 0.646726 0.809038 0.033443
H6    H     H_    0.661893 0.724445 0.801496 0.151784
H7    H     H_    0.738082 0.870400 0.194952 0.105438
H8    H     H_    0.334937 0.307386 0.329935 0.028570
H9    H     H_    0.529506 0.354843 0.308058 0.054944
H10   H     H_    0.335759 0.181004 0.217091 0.146228
H11   H     H_    0.330396 0.295327 0.187146 0.063976
H12   H     H_    0.259732 0.891036 0.603505 -0.113118
H13   H     H_    0.520854 0.235484 0.192484 0.162111
H14   H     H_    0.531932 0.839405 0.146366 0.140234
H15   H     H_    0.187211 0.704985 0.133520 0.008462
H16   H     H_    0.248576 0.347367 0.755885 0.096371
H17   H     H_    0.046949 0.294922 0.756147 -0.117450
H18   H     H_    0.208953 0.336339 0.890544 0.059041
H19   H     H_    0.362780 0.258018 0.863301 0.113071
H20   H     H_    0.822211 0.270317 0.814590 0.052370
H21   H     H_    0.750655 0.232233 0.711167 -0.009495
H22   H     H_    0.043628 0.663498 0.242010 -0.071607
H23   H     H_    0.155599 0.883747 0.687803 0.119143
H24   H     H_    0.648186 0.150432 0.854788 0.081553
H25   H     H_    0.224197 0.580458 0.994620 0.067957
H26   H     H_    0.031491 0.397591 0.001355 0.157896
H27   H     H_    0.418474 0.500526 0.089371 0.093271
H28   H     H_    0.261830 0.583397 0.848828 0.113566
H29   H     H_    0.876395 0.471122 0.668455 0.079531
H30   H     H_    0.322990 0.699161 0.464597 0.067822
H31   H     H_    0.235241 0.729562 0.278011 0.020533
H32   H     H_    0.205668 0.968407 0.407708 0.072002
H33   H     H_    0.003563 0.039941 0.611349 0.075226
H34   H     H_    0.875480 0.281558 0.404707 -0.008030
H35   H     H_    0.869507 0.301952 0.545876 0.054270
H36   H     H_    0.405598 0.094374 0.436735 0.089769
H37   H     H_    0.992378 0.759879 0.134216 0.014662
H38   H     H_    0.329236 0.719308 0.609069 -0.006325
H39   H     H_    0.113132 0.739747 0.584362 -0.040119
H40   H     H_    0.486800 0.892424 0.677257 0.332535
H41   H     H_    0.547690 0.788345 0.343636 0.289735
H42   H     H_    0.144187 0.121694 0.846292 0.116001
H43   H     H_    0.807068 0.038387 0.820932 0.344606
H44   H     H_    0.540519 0.084830 0.675616 -0.009852
H45   H     H_    0.095827 0.276339 0.424565 0.064213
H46   H     H_    0.824224 0.435371 0.090919 0.031613
H47   H     H_    0.699937 0.419944 0.903011 0.316932
H48   H     H_    0.238913 0.575602 0.359989 0.295747
H49   H     H_    0.922588 0.870154 0.598308 -0.043307
H50   H     H_    0.203430 0.858359 0.116721 0.301214
H51   H     H_    0.857541 0.125529 0.327190 0.151792
H52   H     H_    0.972064 0.119780 0.422358 0.046864
H53   H     H_    0.079973 0.122568 0.338325 0.125197
H54   H     H_    0.855333 0.654296 0.665826 -0.006481
O1    O     O_2   0.840370 0.437300 0.310630 -0.450436
O2    O     O_2   0.290079 0.174119 0.573243 -0.491173
O3    O     O_3   0.222477 0.206166 0.717511 -0.568390
O4    O     O_3   0.112450 0.444030 0.408320 -0.475116
O5    O     O_3   0.560770 0.615000 0.535160 -0.468426
O6    O     O_2   0.387340 0.269270 0.471720 -0.475648
O7    O     O_3   0.537644 0.225973 0.346374 -0.641375
O8    O     O_2   0.494708 0.465684 0.781639 -0.490363
O9    O     O_3   0.580193 0.293983 0.778552 -0.632331
O10   O     O_3   0.597270 0.610320 0.351390 -0.431873
O11   O     O_2   0.736340 0.563340 0.221701 -0.537035
O12   O     O_3   0.667748 0.744400 0.654905 -0.600103
O13   O     O_3   0.999510 0.288621 0.309997 -0.592325
O14   O     O_3   0.503120 0.682639 0.210043 -0.649457
O15   O     O_2   0.802370 0.730760 0.528330 -0.498648
O16   O     O_3   0.016680 0.660770 0.388810 -0.509895
O17   O     O_2   0.897181 0.828562 0.422956 -0.493167
O18   O     O_3   0.403097 0.868803 0.707397 -0.650429
O19   O     O_3   0.540964 0.818503 0.295160 -0.711480
O20   O     O_2   0.047544 0.204260 0.928091 -0.577544
O21   O     O_3   0.818211 0.089216 0.788234 -0.737619
O22   O     O_2   0.417185 0.064031 0.764668 -0.565847
O23   O     O_3   0.018496 0.799713 0.289863 -0.596340
O24   O     O_2   0.837146 0.338740 0.162710 -0.564575
O25   O     O_3   0.805089 0.453240 0.925486 -0.757892
O26   O     O_3   0.321467 0.530443 0.346799 -0.705263
O27   O     O_2   0.794700 0.917887 0.683964 -0.572069
O28   O     O_3   0.199611 0.845904 0.171562 -0.674423
O29   O     O_2   0.349330 0.562730 0.689420 -0.455338
O30   O     O_3   0.077250 0.556050 0.591680 -0.506077
O31   O     O_3   0.592420 0.389760 0.648620 -0.462223
O32   O     O_3   0.184428 0.710812 0.696844 -0.625682
O33   O     O_3   0.628930 0.385070 0.464840 -0.462264
O34   O     O_3   0.173020 0.339310 0.611190 -0.493050
P1    P     P_3+3 0.017810 0.410420 0.324030 1.059236
P2    P     P_3+3 0.635890 0.718430 0.552520 0.987394
P3    P     P_3+3 0.043621 0.780900 0.388407 0.945136
P4    P     P_3+3 0.171880 0.589650 0.675980 0.996784
P5    P     P_3+3 0.159391 0.221573 0.619783 0.982348
P6    P     P_3+3 0.566262 0.581887 0.249442 0.979557
P7    P     P_3+3 0.564288 0.266733 0.446807 0.954656
P8    P     P_3+3 0.626732 0.402345 0.750476 0.942288

loop_
_geom_bond_atom_site_label_1
_geom_bond_atom_site_label_2
_ccdc_geom_bond_type
Ba2   O5    S    
C42   O24   D    
C16   O28   S    
C35   H12   S    
C40   O20   D    
C5    C6    S    
C1    H14   S    
C31   P5    S    
C16   H15   S    
C4    H22   S    
C9    C17   A    
O29   P4    D    
Ba2   O30   S    
O5    P2    S    
O15   P2    D    
O33   P7    S    
C26   C27   A    
C22   C24   A    
C4    O23   S    
C44   H16   S    
O14   P6    S    
O34   P5    S    
O7    P7    S    
O23   P3    S    
C36   C37   S    
C33   H36   S    
O30   P4    S    
O11   P6    D    
C41   H44   S    
Ba1   Ba2   S    
Ba1   O15   S    
C22   H32   S    
C45   H19   S    
O32   P4    S    
C48   O26   S    
Ba1   O5    S    
C11   H28   S    
C36   O13   S    
C39   H5    S    
C29   C30   A    
C26   C33   A    
C10   P4    S    
C6    C7    D    
C12   O14   S    
C36   H45   S    
C21   C22   A    
C34   H13   S    
C18   C43   S    
Ba1   P1    S    
C19   C25   A    
C47   H24   S    
C4    H31   S    
H41   O19   S    
C19   C20   A    
H40   O18   S    
O13   P1    S    
O1    P1    D    
C28   H39   S    
C7    P1    S    
C41   O22   D    
C37   H51   S    
C18   C27   A    
C4    C16   S    
Ba2   O29   S    
C7    C48   D    
Ba2   O34   S    
O17   P3    D    
O2    P5    D    
C43   H49   S    
C3    C5    D    
C41   C47   S    
Ba1   O4    S    
C38   H2    S    
C27   C32   A    
C28   C35   S    
C2    C48   S    
Ba1   O16   S    
O10   P6    S    
O9    P8    S    
C39   H6    S    
C42   H46   S    
C38   H54   S    
C12   H1    S    
O31   P8    S    
C44   O3    S    
H48   O26   S    
C31   C32   A    
C24   C25   A    
C17   H29   S    
Ba1   P2    S    
C1    C12   S    
C1    H7    S    
C38   C39   S    
C43   O27   D    
C28   O32   S    
C11   C13   A    
Ba2   P4    S    
Ba1   O10   S    
C46   H21   S    
C28   H38   S    
C34   H11   S    
O6    P7    D    
C45   H18   S    
Ba1   O33   S    
C37   H52   S    
C23   H8    S    
C13   C15   S    
C35   H23   S    
C44   C45   S    
Ba2   O6    S    
C12   O19   S    
C36   H34   S    
C14   H26   S    
Ba2   O33   S    
C26   C29   A    
C5    C14   S    
O16   P3    S    
C6    C42   S    
C46   H20   S    
C2    C3    S    
C34   H10   S    
C2    P6    S    
O4    P1    S    
H50   O28   S    
C9    P8    S    
C37   H53   S    
C18   C25   A    
C47   O21   S    
Ba2   O31   S    
C8    C13   A    
C30   C31   A    
C8    O25   S    
H47   O25   S    
C44   H17   S    
O3    P5    S    
C1    H3    S    
C38   O12   S    
C46   C47   S    
C30   H35   S    
C10   C17   A    
Ba2   O4    S    
O8    P8    D    
C40   H42   S    
C40   C45   S    
C16   H37   S    
H43   O21   S    
C39   H4    S    
C8    C9    A    
C23   O7    S    
C23   C34   S    
C20   H30   S    
C35   O18   S    
C29   P7    S    
C24   C33   A    
C10   C11   A    
C32   H33   S    
C15   H25   S    
C20   C21   A    
C21   P3    S    
C23   H9    S    
C19   P2    S    
C3    H27   S    
Ba1   O30   S    
C14   C15   D    
Ba1   O1    S    
C46   O9    S    
O12   P2    S    
