data_mof_unit_62186.cif
_audit_creation_date              2012-10-26T17:33:47-0400
_audit_creation_method            fapswitch 2.2
_symmetry_space_group_name_H-M    P1
_symmetry_Int_Tables_number       1
_space_group_crystal_system       triclinic
_cell_length_a                    19.00526
_cell_length_b                    19.110418
_cell_length_c                    18.835331
_cell_angle_alpha                 109.567363
_cell_angle_beta                  109.162244
_cell_angle_gamma                 109.763014
_cell_volume                      5260.92531658

loop_
_atom_site_label
_atom_site_type_symbol
_atom_type_description
_atom_site_fract_x
_atom_site_fract_y
_atom_site_fract_z
_atom_type_partial_charge
C1    C     C_R   0.382295 0.384383 0.501726 0.551080
C2    C     C_2   0.313716 0.322066 0.503274 -0.113927
C3    C     C_2   0.459503 0.171434 0.221722 -0.166500
C4    C     C_R   0.498446 0.615985 0.618667 0.542533
C5    C     C_2   0.518890 0.180382 0.197367 -0.121459
C6    C     C_2   0.473088 0.243304 0.296468 -0.142546
C7    C     C_2   0.504217 0.324748 0.311313 0.007339
C8    C     C_2   0.747663 0.745137 0.425141 -0.158415
C9    C     C_2   0.810499 0.819782 0.497490 -0.111603
C10   C     C_2   0.674906 0.684999 0.425688 -0.166627
C11   C     C_2   0.686291 0.677634 0.496361 -0.117865
C12   C     C_R   0.497697 0.672595 0.759370 0.027759
C13   C     C_R   0.382758 0.996100 0.878238 0.561738
C14   C     C_R   0.502863 0.878977 0.881435 0.540910
C15   C     C_R   0.617327 0.997874 0.115566 0.548050
C16   C     C_R   0.617723 0.615789 0.498416 0.548163
C17   C     C_R   0.504208 0.114460 0.118839 0.559196
C18   C     C_R   0.884410 0.001791 0.382527 0.557124
C19   C     C_R   0.119451 0.116997 0.501568 0.557177
C20   C     C_R   0.115471 0.998035 0.617428 0.556843
C21   C     C_R   0.880698 0.883036 0.498588 0.556474
C22   C     C_2   0.181134 0.925227 0.675832 -0.156592
C23   C     C_R   0.497485 0.679906 0.686883 0.003991
C24   C     C_2   0.177154 0.996493 0.686577 -0.113946
C25   C     C_2   0.241960 0.924854 0.748268 -0.158105
C26   C     C_2   0.318923 0.995216 0.808650 -0.115631
C27   C     C_2   0.816592 0.072626 0.322524 -0.156367
C28   C     C_R   0.501940 0.384927 0.381245 0.566208
C29   C     C_2   0.822334 0.002400 0.312880 -0.113656
C30   C     C_2   0.756093 0.071656 0.248625 -0.154887
C31   C     C_2   0.681016 0.999806 0.186159 -0.113768
C32   C     C_R   0.488480 0.598175 0.764729 -0.100276
C33   C     C_R   0.493522 0.594468 0.838773 -0.122550
C34   C     C_R   0.500751 0.751790 0.680961 -0.149897
C35   C     C_R   0.507737 0.664335 0.908619 -0.122068
C36   C     C_R   0.513907 0.737139 0.903625 -0.099862
C37   C     C_R   0.505771 0.741194 0.827881 0.028023
C38   C     C_3   0.529610 0.352522 0.251709 -0.266146
C39   C     C_3   0.533467 0.436761 0.259940 -0.289011
C40   C     C_3   0.564887 0.461362 0.202354 -0.464873
C41   C     C_R   0.505091 0.817199 0.746251 -0.151600
C42   C     C_R   0.506614 0.812269 0.819023 0.003454
C43   C     C_2   0.250876 0.256471 0.574904 -0.157071
C44   C     C_2   0.190104 0.180375 0.503203 -0.112953
C45   C     C_2   0.323748 0.317313 0.575010 -0.160601
Cu1   Cu    Cu3+1 0.561020 0.499620 0.560640 0.933060
Cu2   Cu    Cu3+1 0.438980 0.500380 0.439360 0.921681
Cu3   Cu    Cu3+1 0.561070 0.057880 0.996780 0.933658
Cu4   Cu    Cu3+1 0.439050 0.935860 0.996810 0.931264
Cu5   Cu    Cu3+1 1.000000 0.061410 0.561410 0.939427
Cu6   Cu    Cu3+1 1.000000 0.938590 0.438590 0.937314
H1    H     H_    0.500734 0.757687 0.625690 0.133491
H2    H     H_    0.136341 0.865224 0.614550 0.147596
H3    H     H_    0.476132 0.541765 0.711748 0.131160
H4    H     H_    0.215196 0.053914 0.750345 0.105826
H5    H     H_    0.225336 0.864874 0.748873 0.147839
H6    H     H_    0.339336 0.052368 0.802691 0.106738
H7    H     H_    0.859903 0.132806 0.383833 0.147218
H8    H     H_    0.785860 0.945026 0.249240 0.105664
H9    H     H_    0.771272 0.131697 0.248395 0.144748
H10   H     H_    0.661304 0.942200 0.191373 0.102868
H11   H     H_    0.487001 0.537345 0.842190 0.108358
H12   H     H_    0.250522 0.284445 0.445359 0.109587
H13   H     H_    0.513378 0.661897 0.966723 0.110293
H14   H     H_    0.526278 0.790228 0.960100 0.136789
H15   H     H_    0.505695 0.871363 0.739171 0.132277
H16   H     H_    0.249799 0.272600 0.635447 0.143958
H17   H     H_    0.196311 0.160244 0.445448 0.108086
H18   H     H_    0.384419 0.361775 0.635729 0.134926
H19   H     H_    0.631046 0.471726 0.222051 0.158020
H20   H     H_    0.520869 0.410000 0.133158 0.156348
H21   H     H_    0.566258 0.521877 0.209119 0.139302
H22   H     H_    0.468305 0.429308 0.239877 0.187355
H23   H     H_    0.399557 0.110669 0.186523 0.151175
H24   H     H_    0.578642 0.489696 0.328284 0.172296
H25   H     H_    0.595015 0.362307 0.267771 0.138936
H26   H     H_    0.482946 0.301301 0.182784 0.158959
H27   H     H_    0.581477 0.238219 0.236439 0.106017
H28   H     H_    0.447902 0.226534 0.336182 0.125891
H29   H     H_    0.746854 0.730072 0.363811 0.141505
H30   H     H_    0.806141 0.839233 0.556375 0.109299
H31   H     H_    0.612942 0.643406 0.366144 0.139495
H32   H     H_    0.750311 0.712817 0.552723 0.112174
O1    O     O_R   0.462500 0.410660 0.551220 -0.510122
O2    O     O_R   0.910970 0.948690 0.359670 -0.510477
O3    O     O_R   0.089030 0.140870 0.551850 -0.505546
O4    O     O_R   0.359440 0.411300 0.448810 -0.504522
O5    O     O_R   0.089030 0.037160 0.448130 -0.505942
O6    O     O_R   0.089030 0.051310 0.640330 -0.510047
O7    O     O_R   0.089030 0.947590 0.536610 -0.502270
O8    O     O_R   0.910970 0.962840 0.551870 -0.505588
O9    O     O_R   0.910970 0.859130 0.448150 -0.506192
O10   O     O_R   0.551530 0.589280 0.640810 -0.514002
O11   O     O_R   0.448470 0.589920 0.538390 -0.506211
O12   O     O_R   0.359500 0.945890 0.908340 -0.499416
O13   O     O_R   0.640560 0.588700 0.551190 -0.504257
O14   O     O_R   0.537500 0.589340 0.448780 -0.510847
O15   O     O_R   0.551530 0.410080 0.461610 -0.504523
O16   O     O_R   0.448470 0.410720 0.359190 -0.518214
O17   O     O_R   0.462540 0.048930 0.908310 -0.507203
O18   O     O_R   0.551580 0.958790 0.907180 -0.507267
O19   O     O_R   0.448540 0.855750 0.907210 -0.516275
O20   O     O_R   0.640630 0.047850 0.085250 -0.503407
O21   O     O_R   0.537580 0.944800 0.085280 -0.518775
O22   O     O_R   0.551590 0.137990 0.086380 -0.513084
O23   O     O_R   0.448540 0.034950 0.086410 -0.502062
O24   O     O_R   0.910970 0.052410 0.463390 -0.501606

loop_
_geom_bond_atom_site_label_1
_geom_bond_atom_site_label_2
_ccdc_geom_bond_type
C1    O4    A    
C40   H20   S    
C27   C29   D    
C41   C42   A    
C31   H10   S    
C35   C36   A    
C25   H5    S    
C3    C6    S    
Cu6   O2    S    
Cu4   O21   S    
C38   H25   S    
C2    H12   S    
C24   H4    S    
C12   C23   A    
C40   H19   S    
C13   O12   A    
C36   C37   A    
Cu6   O7    S    
C38   C39   S    
C16   O14   A    
C14   O19   A    
C5    C17   S    
C41   H15   S    
C37   C42   A    
Cu2   O16   S    
C1    C2    S    
C12   C37   A    
C3    H23   S    
C18   O24   A    
C7    C38   S    
C29   H8    S    
C8    C9    D    
C22   C25   S    
C30   H9    S    
C35   H13   S    
C39   H24   S    
C15   O21   A    
C14   C42   S    
C19   O3    A    
Cu1   O15   S    
C12   C32   A    
C27   C30   S    
C34   C41   A    
C32   H3    S    
C22   H2    S    
C2    C45   D    
Cu3   O17   S    
C16   O13   A    
C18   O2    A    
C45   H18   S    
C20   C24   S    
C19   O5    A    
Cu4   O19   S    
C4    C23   S    
C36   H14   S    
C33   H11   S    
C14   O18   A    
C11   H32   S    
C25   C26   D    
Cu3   O20   S    
C20   O7    A    
C10   H31   S    
C7    C28   S    
C1    O1    A    
Cu2   O4    S    
C43   C44   D    
C17   O22   A    
Cu6   O9    S    
C11   C16   S    
Cu5   O6    S    
Cu3   O22   S    
C23   C34   A    
Cu5   Cu6   S    
C18   C29   S    
Cu4   O12   S    
C43   C45   S    
C6    C7    D    
Cu1   O1    S    
C28   O16   A    
C43   H16   S    
Cu3   Cu4   S    
Cu5   O24   S    
C4    O11   A    
C13   C26   S    
C44   H17   S    
C39   C40   S    
C19   C44   S    
C21   O8    A    
C28   O15   A    
Cu1   Cu2   S    
C40   H21   S    
C3    C5    D    
C27   H7    S    
Cu6   O5    S    
C15   C31   S    
Cu4   O23   S    
C38   H26   S    
C20   O6    A    
C34   H1    S    
Cu2   O14   S    
C32   C33   A    
C13   O17   A    
C17   O23   A    
C9    C21   S    
C6    H28   S    
C30   C31   D    
Cu1   O10   S    
Cu3   O18   S    
C33   C35   A    
Cu2   O11   S    
C22   C24   D    
C39   H22   S    
C26   H6    S    
C10   C11   D    
Cu5   O3    S    
C4    O10   A    
Cu5   O8    S    
Cu1   O13   S    
C8    C10   S    
C8    H29   S    
C15   O20   A    
C5    H27   S    
C9    H30   S    
C21   O9    A    
