data_mof_unit_7724.cif
_audit_creation_date              2012-10-26T19:42:39-0400
_audit_creation_method            fapswitch 2.2
_symmetry_space_group_name_H-M    P1
_symmetry_Int_Tables_number       1
_space_group_crystal_system       triclinic
_cell_length_a                    19.384489
_cell_length_b                    10.866551
_cell_length_c                    9.59708
_cell_angle_alpha                 89.929105
_cell_angle_beta                  90.431633
_cell_angle_gamma                 92.727398
_cell_volume                      2019.20526682

loop_
_atom_site_label
_atom_site_type_symbol
_atom_type_description
_atom_site_fract_x
_atom_site_fract_y
_atom_site_fract_z
_atom_type_partial_charge
C1    C     C_R   0.501555 0.262201 0.500809 0.553812
C2    C     C_R   0.853339 0.504913 0.505073 0.036942
C3    C     C_R   0.536425 0.114521 0.755957 -0.136994
C4    C     C_R   0.367373 0.500564 0.499138 0.537256
C5    C     C_R   0.524271 0.055865 0.886604 0.325310
C6    C     C_R   0.484715 0.944381 0.888547 0.327838
C7    C     C_R   0.470696 0.882812 0.761939 -0.143387
C8    C     C_R   0.489974 0.935973 0.633426 -0.047219
C9    C     C_R   0.509927 0.061242 0.630730 -0.060327
C10   C     C_R   0.499850 0.127252 0.503885 -0.004554
C11   C     C_R   0.478486 0.060873 0.382833 0.273240
C12   C     C_R   0.290935 0.502423 0.497167 -0.009155
C13   C     C_R   0.482740 0.934205 0.381428 -0.117551
C14   C     C_R   0.488072 0.870055 0.506055 -0.059403
C15   C     C_R   0.590751 0.666096 0.144930 -0.087304
C16   C     C_R   0.495144 0.736828 0.500994 0.540528
C17   C     C_R   0.634233 0.748884 0.073408 -0.144241
C18   C     C_R   0.634528 0.748736 0.929541 -0.032334
C19   C     C_R   0.591123 0.665307 0.856930 -0.097072
C20   C     C_R   0.544816 0.581296 0.925707 0.113273
C21   C     C_R   0.544710 0.581431 0.075222 0.140455
C22   C     C_R   0.457104 0.423567 0.074078 0.019998
C23   C     C_R   0.929363 0.505072 0.505900 0.346891
C24   C     C_R   0.456794 0.423242 0.926378 0.076968
C25   C     C_R   0.632392 0.500985 0.500526 0.534327
C26   C     C_R   0.255315 0.493229 0.624285 -0.141467
C27   C     C_R   0.183468 0.494157 0.627594 -0.125669
C28   C     C_R   0.145352 0.504300 0.503759 0.016614
C29   C     C_R   0.180347 0.514181 0.376692 -0.127144
C30   C     C_R   0.252230 0.513645 0.371852 -0.028175
C31   C     C_3   0.589632 0.209460 0.016230 0.011305
C32   C     C_3   0.664115 0.178224 0.983486 -0.276690
C33   C     C_3   0.712823 0.292218 0.995793 -0.474193
C34   C     C_R   0.069304 0.504647 0.505488 0.346805
C35   C     C_3   0.402870 0.824506 0.019442 0.005467
C36   C     C_3   0.340983 0.898722 0.972194 -0.286676
C37   C     C_3   0.272512 0.829265 0.002907 -0.464770
C38   C     C_1   0.679823 0.834488 0.855295 0.182157
C39   C     C_1   0.410075 0.336883 0.855979 0.251891
C40   C     C_1   0.283491 0.526259 0.236028 0.197495
C41   C     C_3   0.381176 0.145145 0.290154 0.020863
C42   C     C_3   0.333510 0.034686 0.335461 -0.301418
C43   C     C_3   0.257551 0.064018 0.322116 -0.469339
C44   C     C_R   0.816633 0.505685 0.630633 -0.111632
C45   C     C_R   0.744733 0.505043 0.629116 -0.127640
C46   C     C_R   0.708246 0.502965 0.502101 0.017854
C47   C     C_R   0.744887 0.503179 0.376621 -0.138062
C48   C     C_R   0.816726 0.504017 0.378064 -0.117116
Cu1   Cu    Cu3+1 0.500000 0.499990 0.640660 0.919312
Cu2   Cu    Cu3+1 0.500000 0.500010 0.359340 0.937152
H1    H     H_    0.282941 0.484991 0.722108 0.154583
H2    H     H_    0.151644 0.522845 0.280029 0.142256
H3    H     H_    0.843334 0.506954 0.730168 0.138340
H4    H     H_    0.717804 0.506399 0.727453 0.122264
H5    H     H_    0.718130 0.502760 0.277150 0.122040
H6    H     H_    0.843448 0.503681 0.279405 0.138795
H7    H     H_    0.589263 0.248231 0.123311 0.191010
H8    H     H_    0.570690 0.283675 0.948885 0.117260
H9    H     H_    0.681054 0.106782 0.057591 0.187965
H10   H     H_    0.667412 0.140822 0.876370 0.177246
H11   H     H_    0.695905 0.365715 0.924593 0.145471
H12   H     H_    0.567548 0.198786 0.749909 0.135258
H13   H     H_    0.765949 0.268327 0.967293 0.167640
H14   H     H_    0.713630 0.327243 0.104457 0.148761
H15   H     H_    0.406035 0.736749 0.961334 0.137451
H16   H     H_    0.393792 0.794871 0.128725 0.162546
H17   H     H_    0.342593 0.989010 0.026355 0.191823
H18   H     H_    0.343251 0.917029 0.858511 0.154220
H19   H     H_    0.269202 0.740351 0.945688 0.174514
H20   H     H_    0.229112 0.885403 0.968564 0.155895
H21   H     H_    0.267357 0.811242 0.116388 0.158578
H22   H     H_    0.360731 0.181061 0.190509 0.148252
H23   H     H_    0.441038 0.796922 0.762966 0.144483
H24   H     H_    0.378175 0.220581 0.367607 0.142648
H25   H     H_    0.343212 0.952968 0.270971 0.169224
H26   H     H_    0.344280 0.011360 0.446078 0.154668
H27   H     H_    0.246643 0.145742 0.386364 0.164275
H28   H     H_    0.224752 0.984105 0.358898 0.159387
H29   H     H_    0.244155 0.082564 0.211558 0.154620
H30   H     H_    0.475525 0.885466 0.284200 0.196179
H31   H     H_    0.422152 0.361578 0.130187 0.139251
H32   H     H_    0.595674 0.672864 0.254796 0.186900
H33   H     H_    0.668141 0.812952 0.131143 0.127642
H34   H     H_    0.595655 0.670430 0.747040 0.190105
H35   H     H_    0.157861 0.486571 0.727332 0.145233
N1    N     N_R   0.033101 0.509012 0.384177 -0.229752
N2    N     N_R   0.964585 0.509178 0.384340 -0.228463
N3    N     N_R   0.965476 0.500752 0.627508 -0.226379
N4    N     N_R   0.034142 0.500500 0.627332 -0.225525
N5    N     N_R   0.500660 0.501210 0.147910 -0.258807
N6    N     N_R   0.500680 0.501290 0.852040 -0.273614
N7    N     N_1   0.716151 0.903228 0.795428 -0.309646
N8    N     N_1   0.372410 0.266892 0.800237 -0.325058
N9    N     N_1   0.308060 0.536435 0.126849 -0.349391
O1    O     O_R   0.499990 0.319640 0.618810 -0.506111
O2    O     O_3   0.466391 0.895313 0.018330 -0.535416
O3    O     O_3   0.450896 0.115615 0.265951 -0.508516
O4    O     O_R   0.500000 0.319660 0.381240 -0.468788
O5    O     O_R   0.400140 0.499970 0.618820 -0.494910
O6    O     O_R   0.400150 0.500000 0.381250 -0.493648
O7    O     O_R   0.500000 0.680340 0.618760 -0.528619
O8    O     O_R   0.500010 0.680360 0.381190 -0.522746
O9    O     O_R   0.599850 0.500000 0.618750 -0.530951
O10   O     O_R   0.599860 0.500030 0.381180 -0.528996
O11   O     O_3   0.544965 0.102810 0.016943 -0.505674

loop_
_geom_bond_atom_site_label_1
_geom_bond_atom_site_label_2
_ccdc_geom_bond_type
Cu2   O10   S    
C37   H19   S    
C41   C42   S    
C19   C20   A    
C36   H17   S    
C7    C8    A    
C7    H23   S    
C5    O11   S    
C35   O2    S    
C43   H28   S    
C26   C27   A    
C31   H8    S    
C28   C29   A    
Cu1   O7    S    
C5    C6    A    
C35   H15   S    
C43   H29   S    
C38   N7    T    
C24   C39   S    
C48   H6    S    
C18   C19   A    
C34   N1    A    
C27   H35   S    
C39   N8    T    
C41   O3    S    
C41   H24   S    
C44   H3    S    
Cu2   N5    S    
C31   C32   S    
C2    C44   A    
C8    C9    A    
C4    C12   S    
C9    C10   A    
C33   H13   S    
N3    N4    A    
C13   H30   S    
C28   C34   S    
C42   H25   S    
C37   H20   S    
C31   O11   S    
Cu1   N6    S    
C15   H32   S    
C21   N5    A    
C20   N6    A    
Cu2   O4    S    
C22   H31   S    
N1    N2    A    
C25   O9    A    
C35   H16   S    
C2    C48   A    
C45   C46   A    
C12   C26   A    
C17   H33   S    
C35   C36   S    
C29   C30   A    
C3    C9    A    
Cu1   O5    S    
C47   C48   A    
C1    O1    A    
C17   C18   A    
C22   N5    A    
C30   C40   S    
Cu1   O1    S    
C41   H22   S    
C16   O8    A    
C45   H4    S    
Cu2   O8    S    
C6    O2    S    
C23   N3    A    
C37   H21   S    
C14   C16   S    
C42   C43   S    
C32   H10   S    
C19   H34   S    
C24   N6    A    
C27   C28   A    
C44   C45   A    
C47   H5    S    
C3    H12   S    
C15   C17   A    
C46   C47   A    
C36   C37   S    
C8    C14   A    
C12   C30   A    
Cu2   O6    S    
C1    C10   S    
C40   N9    T    
C3    C5    A    
C1    O4    A    
Cu1   O9    S    
C36   H18   S    
C25   O10   A    
C6    C7    A    
C43   H27   S    
C42   H26   S    
C11   O3    S    
C32   C33   S    
C31   H7    S    
C4    O6    A    
C18   C38   S    
C34   N4    A    
C26   H1    S    
C11   C13   A    
C33   H14   S    
C22   C24   A    
C10   C11   A    
C16   O7    A    
C15   C21   A    
C20   C21   A    
C33   H11   S    
Cu1   Cu2   S    
C4    O5    A    
C2    C23   S    
C23   N2    A    
C32   H9    S    
C13   C14   A    
C25   C46   S    
C29   H2    S    
