data_mof_unit_39806.cif
_audit_creation_date              2012-12-10T17:36:20-0500
_audit_creation_method            fapswitch 2.2
_symmetry_space_group_name_H-M    P1
_symmetry_Int_Tables_number       1
_space_group_crystal_system       triclinic
_cell_length_a                    12.334145
_cell_length_b                    13.076934
_cell_length_c                    15.838109
_cell_angle_alpha                 77.443325
_cell_angle_beta                  100.532855
_cell_angle_gamma                 116.509809
_cell_volume                      2220.52128066

loop_
_atom_site_label
_atom_site_type_symbol
_atom_type_description
_atom_site_fract_x
_atom_site_fract_y
_atom_site_fract_z
_atom_type_partial_charge
C1    C     C_R   0.854954 0.286046 0.507266 0.775372
C2    C     C_3   0.094815 0.465032 0.069135 -0.594102
C3    C     C_3   0.994104 0.499546 0.082801 0.230814
C4    C     C_3   0.029424 0.625454 0.032414 0.188789
C5    C     C_3   0.027969 0.627769 0.933107 -0.056488
C6    C     C_1   0.001002 0.502010 0.175462 0.010539
C7    C     C_1   0.999080 0.502119 0.824222 -0.026097
C8    C     C_1   0.999136 0.501260 0.748791 -0.183362
C9    C     C_R   0.273583 0.034139 0.399939 0.157719
C10   C     C_R   0.228504 0.836976 0.470530 -0.098409
C11   C     C_R   0.813521 0.080119 0.558362 -0.209399
C12   C     C_R   0.999869 0.500611 0.659402 0.818264
C13   C     C_R   0.734427 0.962866 0.571495 0.205927
C14   C     C_R   0.611014 0.928177 0.541931 -0.216478
C15   C     C_R   0.565811 0.009153 0.495220 0.056151
C16   C     C_R   0.650470 0.124193 0.471689 0.037537
C17   C     C_R   0.439659 0.979336 0.469876 0.027238
C18   C     C_R   0.400887 0.060896 0.413606 0.065342
C19   C     C_R   0.491334 0.162556 0.371486 0.122590
C20   C     C_R   0.613403 0.195550 0.404786 -0.202041
C21   C     C_R   0.350979 0.870151 0.499794 -0.250358
C22   C     C_R   0.189501 0.919132 0.422186 -0.195288
C23   C     C_R   0.145114 0.714071 0.487271 0.805098
C24   C     C_R   0.772574 0.161903 0.510303 -0.142758
C25   C     C_R   0.304722 0.281929 0.578304 -0.268158
C26   C     C_R   0.773362 0.658201 0.392107 0.032584
C27   C     C_R   0.680300 0.692302 0.359239 -0.320246
C28   C     C_R   0.563217 0.628605 0.386795 0.174914
C29   C     C_R   0.543802 0.532536 0.455311 -0.037790
C30   C     C_R   0.641477 0.496518 0.483667 0.217578
C31   C     C_R   0.431990 0.465544 0.496036 -0.031192
C32   C     C_R   0.406666 0.349777 0.533329 0.045701
C33   C     C_R   0.492932 0.307838 0.537356 -0.285566
C34   C     C_R   0.001729 0.501581 0.340550 0.819900
C35   C     C_R   0.613585 0.388879 0.540874 0.186914
C36   C     C_R   0.347915 0.507771 0.506593 -0.048427
C37   C     C_R   0.227390 0.328011 0.588394 0.588962
C38   C     C_3   0.090986 0.457997 0.972240 0.256662
C39   C     C_3   0.870991 0.420545 0.944698 -0.647757
C40   C     C_3   0.863803 0.410782 0.045401 0.346562
C41   C     C_1   0.003668 0.502647 0.251248 -0.205297
C42   C     C_3   0.999710 0.503866 0.916492 0.185291
Cu1   Cu    Cu3+1 0.098280 0.475420 0.519630 0.934741
Cu2   Cu    Cu3+1 0.901720 0.524580 0.480370 0.917289
H1    H     H_    0.085574 0.381075 0.108949 0.171080
H2    H     H_    0.186020 0.529554 0.091621 0.193145
H3    H     H_    0.093146 0.894263 0.403863 0.156155
H4    H     H_    0.374701 0.807504 0.545360 0.154380
H5    H     H_    0.907087 0.107281 0.586555 0.202801
H6    H     H_    0.553749 0.836769 0.553517 0.120705
H7    H     H_    0.058158 0.365423 0.965091 0.103249
H8    H     H_    0.681119 0.273155 0.371823 0.166071
H9    H     H_    0.472384 0.219391 0.568444 0.147920
H10   H     H_    0.288666 0.194896 0.610368 0.154374
H11   H     H_    0.363515 0.595894 0.483952 0.147985
H12   H     H_    0.860984 0.707553 0.366843 0.145075
H13   H     H_    0.699403 0.766906 0.308631 0.140960
H14   H     H_    0.804207 0.450533 0.903438 0.167447
H15   H     H_    0.844028 0.334552 0.925746 0.170827
H16   H     H_    0.951699 0.648565 0.897610 0.172971
H17   H     H_    0.123367 0.680147 0.059437 0.113235
N1    N     N_R   0.246300 0.438200 0.549400 -0.233392
N2    N     N_R   0.754300 0.561180 0.451130 -0.200799
O1    O     O_R   0.972520 0.318130 0.524690 -0.561095
O2    O     O_R   0.806530 0.359650 0.491530 -0.592793
O3    O     O_R   0.083030 0.479240 0.637150 -0.588179
O4    O     O_R   0.917040 0.520750 0.603990 -0.573885
O5    O     O_R   0.193470 0.640350 0.508470 -0.588761
O6    O     O_R   0.027480 0.681870 0.475310 -0.594088
O7    O     O_R   0.082960 0.479250 0.396010 -0.571313
O8    O     O_R   0.916970 0.520760 0.362850 -0.582737
O9    O     O_3   0.207768 0.520077 0.943559 -0.742503
H18   H     H_    0.255523 0.475329 0.971647 0.322484
O10   O     O_3   0.951459 0.670988 0.046399 -0.764757
H19   H     H_    0.991923 0.756042 0.029192 0.328779
C43   C     C_3   0.469029 0.222228 0.280601 -0.428238
C44   C     C_3   0.497212 0.172776 0.212716 -0.842817
H20   H     H_    0.591312 0.179233 0.226167 0.256436
H21   H     H_    0.432596 0.080363 0.213099 0.254264
H22   H     H_    0.487671 0.221398 0.147085 0.242831
H23   H     H_    0.375261 0.212900 0.262181 0.200432
H24   H     H_    0.527721 0.316731 0.275263 0.204144
C45   C     C_3   0.224894 0.126110 0.371397 -0.440730
C46   C     C_3   0.127508 0.110998 0.426763 -0.810824
H25   H     H_    0.038338 0.041625 0.407531 0.236826
H26   H     H_    0.153814 0.088869 0.496728 0.258676
H27   H     H_    0.116053 0.192533 0.416692 0.253361
H28   H     H_    0.299656 0.213194 0.377427 0.216947
H29   H     H_    0.184471 0.123413 0.302755 0.196043
C47   C     C_3   0.781068 0.875185 0.620196 -0.420043
C48   C     C_3   0.863964 0.861580 0.566968 -0.813515
H30   H     H_    0.815153 0.836959 0.503171 0.256357
H31   H     H_    0.946978 0.943581 0.556231 0.252795
H32   H     H_    0.892110 0.792788 0.602453 0.244041
H33   H     H_    0.831973 0.902816 0.682862 0.203886
H34   H     H_    0.704403 0.789115 0.635840 0.197332
O11   O     O_3   0.132411 0.258722 0.637871 -0.766774
H35   H     H_    0.107442 0.309234 0.659574 0.354335
C49   C     C_3   0.462686 0.657570 0.331334 -0.383603
C50   C     C_3   0.365985 0.555961 0.287952 -0.814844
H36   H     H_    0.409476 0.525084 0.249782 0.242919
H37   H     H_    0.313486 0.482960 0.336172 0.262423
H38   H     H_    0.300895 0.584583 0.243107 0.232480
H39   H     H_    0.421663 0.692923 0.366942 0.184817
H40   H     H_    0.501393 0.729356 0.277491 0.195115
C51   C     C_3   0.676451 0.378413 0.632352 -0.311632
C52   C     C_3   0.702412 0.480478 0.677836 -0.817177
H41   H     H_    0.759086 0.564688 0.640643 0.267185
H42   H     H_    0.615271 0.482001 0.685150 0.234360
H43   H     H_    0.749829 0.470391 0.743526 0.229840
H44   H     H_    0.616897 0.300941 0.675069 0.163361
H45   H     H_    0.753498 0.357025 0.634531 0.210979
C53   C     C_3   0.832141 0.279656 0.085782 -0.370020
C54   C     C_3   0.852188 0.245787 0.184574 -0.842234
H46   H     H_    0.950218 0.275697 0.207530 0.244371
H47   H     H_    0.810066 0.277477 0.222057 0.246798
H48   H     H_    0.810653 0.149959 0.200674 0.231901
H49   H     H_    0.735577 0.225395 0.064728 0.192597
H50   H     H_    0.886078 0.248489 0.057693 0.181317
C55   C     C_3   0.753321 0.439372 0.050646 -0.302579
C56   C     C_3   0.733195 0.460131 0.137000 -0.764303
H51   H     H_    0.720546 0.386221 0.189125 0.238376
H52   H     H_    0.806866 0.540075 0.158045 0.290689
H53   H     H_    0.648078 0.472462 0.127552 0.215710
H54   H     H_    0.758784 0.517198 0.002992 0.225312
H55   H     H_    0.667445 0.368472 0.028183 0.162888
C57   C     C_3   0.147026 0.724506 0.896566 -0.358303
C58   C     C_3   0.156254 0.845949 0.892763 -0.913714
H56   H     H_    0.073199 0.853504 0.857010 0.260862
H57   H     H_    0.169526 0.866938 0.959151 0.245897
H58   H     H_    0.236031 0.910334 0.858221 0.256095
H59   H     H_    0.228458 0.718790 0.936760 0.252297
H60   H     H_    0.151123 0.715289 0.829341 0.229456

loop_
_geom_bond_atom_site_label_1
_geom_bond_atom_site_label_2
_ccdc_geom_bond_type
C5    C42   S    
C1    O1    A    
C13   C47   S    
C23   O6    A    
C19   C20   A    
C46   H27   S    
C26   N2    A    
C3    C6    S    
C58   H56   S    
C37   O11   S    
C54   H46   S    
C7    C8    T    
C51   H45   S    
C44   H20   S    
C10   C22   A    
C26   C27   A    
C30   C35   A    
C28   C29   A    
C46   H26   S    
C38   C42   S    
C55   H55   S    
C9    C22   A    
C51   C52   S    
C15   C16   A    
C11   C24   A    
Cu2   O8    S    
C18   C19   A    
C7    C42   S    
C57   H59   S    
C56   H53   S    
C25   C37   A    
C53   H50   S    
C45   C46   S    
Cu1   O5    S    
C6    C41   T    
C1    O2    A    
C52   H41   S    
C34   O7    A    
C4    O10   S    
C16   C20   A    
C21   H4    S    
C25   C32   A    
C45   H28   S    
Cu2   N2    S    
C30   N2    A    
C52   H42   S    
Cu2   O2    S    
C34   C41   S    
C49   H40   S    
Cu1   O1    S    
O11   H35   S    
C39   C42   S    
C51   H44   S    
C44   H21   S    
C10   C21   A    
C33   H9    S    
C45   H29   S    
C12   O4    A    
C38   O9    S    
O10   H19   S    
C47   H33   S    
C43   C44   S    
C27   H13   S    
C43   H24   S    
C48   H30   S    
C55   H54   S    
O9    H18   S    
C38   H7    S    
C39   H14   S    
C12   O3    A    
C4    H17   S    
C50   H38   S    
C2    H2    S    
C58   H57   S    
C36   N1    A    
C23   O5    A    
C16   C24   A    
Cu1   Cu2   S    
C29   C30   A    
C11   H5    S    
C48   H31   S    
C2    C38   S    
C49   C50   S    
C8    C12   S    
C39   H15   S    
C5    C57   S    
C50   H37   S    
C17   C18   A    
Cu2   O6    S    
C46   H25   S    
C56   H51   S    
C25   H10   S    
C9    C45   S    
C28   C49   S    
C40   C55   S    
C3    C40   S    
Cu1   O7    S    
C40   C53   S    
C52   H43   S    
C3    C4    S    
C58   H58   S    
C39   C40   S    
C55   C56   S    
C53   C54   S    
C44   H22   S    
C15   C17   A    
C19   C43   S    
C5    H16   S    
C31   C36   A    
C31   C32   A    
C57   H60   S    
C4    C5    S    
C26   H12   S    
C43   H23   S    
C54   H47   S    
C47   H34   S    
C10   C23   S    
C32   C33   A    
C2    C3    S    
C20   H8    S    
C35   C51   S    
C48   H32   S    
C11   C13   A    
C47   C48   S    
C14   H6    S    
Cu1   O3    S    
C50   H36   S    
C33   C35   A    
C49   H39   S    
C22   H3    S    
C56   H52   S    
C54   H48   S    
C2    H1    S    
C53   H49   S    
C9    C18   A    
C1    C24   S    
C29   C31   A    
C27   C28   A    
C36   H11   S    
C37   N1    A    
C14   C15   A    
Cu2   O4    S    
C13   C14   A    
C34   O8    A    
C57   C58   S    
Cu1   N1    S    
C17   C21   A    
