data_mof_unit_52261.cif
_audit_creation_date              2012-12-11T16:05:10-0500
_audit_creation_method            fapswitch 2.2
_symmetry_space_group_name_H-M    P1
_symmetry_Int_Tables_number       1
_space_group_crystal_system       triclinic
_cell_length_a                    10.64125
_cell_length_b                    10.685031
_cell_length_c                    16.897885
_cell_angle_alpha                 98.996824
_cell_angle_beta                  98.790455
_cell_angle_gamma                 61.270569
_cell_volume                      1657.37845113

loop_
_atom_site_label
_atom_site_type_symbol
_atom_type_description
_atom_site_fract_x
_atom_site_fract_y
_atom_site_fract_z
_atom_type_partial_charge
C1    C     C_R   0.354562 0.775758 0.399045 0.544408
C2    C     C_3   0.404538 0.685197 0.251752 -0.106967
C3    C     C_3   0.349347 0.809571 0.319069 0.035658
C4    C     C_R   0.367689 0.343641 0.359839 0.542001
C5    C     C_3   0.421623 0.883978 0.287577 -0.133855
C6    C     C_3   0.279208 0.966708 0.236190 -0.136184
C7    C     C_3   0.207829 0.891595 0.269396 -0.104307
C8    C     C_3   0.263231 0.770203 0.202134 0.155286
C9    C     C_3   0.331959 0.843946 0.167925 0.065946
C10   C     C_3   0.461919 0.260400 0.775784 -0.135801
C11   C     C_3   0.401720 0.401817 0.736692 -0.125358
C12   C     C_3   0.767318 0.281160 0.248712 -0.116454
C13   C     C_3   0.338714 0.336472 0.663816 0.031714
C14   C     C_3   0.400060 0.195376 0.701902 -0.103090
C15   C     C_3   0.257569 0.259871 0.739616 0.150613
C16   C     C_R   0.776628 0.376775 0.401780 0.545225
C17   C     C_3   0.194930 0.400246 0.700503 -0.090550
C18   C     C_3   0.257968 0.463839 0.775356 -0.141984
C19   C     C_3   0.319009 0.322501 0.813461 0.055926
C20   C     C_1   0.812142 0.345036 0.710623 -0.028304
C21   C     C_1   0.838818 0.317187 0.778976 -0.024066
C22   C     C_1   0.358776 0.763221 0.714633 -0.056441
C23   C     C_3   0.828301 0.343288 0.323328 0.059108
C24   C     C_1   0.327604 0.809201 0.782464 -0.055936
C25   C     C_R   0.956109 0.285960 0.102374 0.535080
C26   C     C_R   0.292518 0.263002 0.122909 0.541433
C27   C     C_R   0.297413 0.886710 0.087008 0.534148
C28   C     C_R   0.379990 0.715174 0.631527 0.547664
C29   C     C_R   0.882666 0.300316 0.861528 0.561379
C30   C     C_R   0.308603 0.294314 0.892225 0.554400
C31   C     C_R   0.283377 0.878585 0.860238 0.533746
C32   C     C_R   0.367089 0.346324 0.585339 0.534134
C33   C     C_R   0.771395 0.381279 0.630279 0.528662
C34   C     C_3   0.982284 0.248196 0.302022 -0.151103
C35   C     C_1   0.329018 0.317978 0.277714 -0.078688
C36   C     C_1   0.308816 0.294537 0.206895 -0.077368
C37   C     C_3   0.922713 0.184841 0.225699 -0.132086
C38   C     C_3   0.088033 0.682517 0.197099 -0.280399
C39   C     C_3   0.144296 0.121156 0.664505 -0.298181
C40   C     C_3   0.966900 0.368509 0.254959 -0.139540
C41   C     C_3   0.811670 0.464034 0.277036 -0.106479
C42   C     C_3   0.753006 0.400453 0.201519 -0.110089
C43   C     C_3   0.907868 0.305230 0.180543 0.059634
C44   C     C_3   0.474557 0.762112 0.217964 -0.159031
Cr1   Cr    Cr6+3 0.608340 0.611040 0.520430 1.015227
Cr2   Cr    Cr6+3 0.287650 0.601120 0.489350 1.009767
Cr3   Cr    Cr6+3 0.604040 0.287870 0.490280 1.011996
Cr4   Cr    Cr6+3 0.054020 0.052700 0.970850 1.027441
Cr5   Cr    Cr6+3 0.059230 0.375120 0.993390 1.014102
Cr6   Cr    Cr6+3 0.374950 0.061200 0.992340 1.018707
H1    H     H_    0.684885 0.245556 0.248438 0.137160
H2    H     H_    0.073513 0.188680 0.345948 0.107495
H3    H     H_    0.043567 0.410868 0.255911 0.108206
H4    H     H_    0.766588 0.579244 0.299633 0.130885
H5    H     H_    0.661640 0.459513 0.157580 0.120350
H6    H     H_    0.453736 0.569523 0.260371 0.112813
H7    H     H_    0.581299 0.712981 0.194129 0.114535
H8    H     H_    0.485231 0.932156 0.325439 0.132983
H9    H     H_    0.239708 0.620846 0.114752 0.263814
H10   H     H_    0.031232 0.631346 0.155186 0.166981
H11   H     H_    0.005342 0.785821 0.224080 0.143018
H12   H     H_    0.230997 0.081603 0.226799 0.099303
H13   H     H_    0.152883 0.611561 0.245256 0.158125
H14   H     H_    0.221154 0.111892 0.785088 0.270346
H15   H     H_    0.076351 0.071548 0.671562 0.163272
H16   H     H_    0.244555 0.037068 0.638806 0.159087
H17   H     H_    0.084509 0.205137 0.622227 0.148138
H18   H     H_    0.104065 0.938385 0.296339 0.110133
H19   H     H_    0.463197 0.459909 0.732987 0.107380
H20   H     H_    0.570582 0.206024 0.808084 0.132922
H21   H     H_    0.455555 0.086145 0.670451 0.128827
H22   H     H_    0.086609 0.453723 0.667733 0.131859
H23   H     H_    0.202657 0.572593 0.807345 0.133544
H24   H     H_    0.960800 0.073658 0.197139 0.143734
N1    N     N_2   0.179641 0.707283 0.153554 -0.495293
N2    N     N_2   0.177676 0.183072 0.742003 -0.511555
O1    O     O_R   0.751220 0.499230 0.435170 -0.522045
O2    O     O_R   0.412990 0.180750 0.091610 -0.496746
O3    O     O_R   0.366620 0.943130 0.065760 -0.520632
O4    O     O_R   0.477220 0.727600 0.436870 -0.498516
O5    O     O_R   0.160510 0.906330 0.879210 -0.506754
O6    O     O_R   0.930190 0.179050 0.889450 -0.491117
O7    O     O_R   0.909140 0.398170 0.896710 -0.495913
O8    O     O_R   0.186190 0.363460 0.918830 -0.487128
O9    O     O_R   0.401670 0.173200 0.913310 -0.516070
O10   O     O_R   0.356120 0.936130 0.900470 -0.498623
O11   O     O_3   0.162740 0.163010 0.985530 -0.293850
O12   O     O_R   0.297880 0.469080 0.560050 -0.513385
O13   O     O_R   0.258650 0.745120 0.411470 -0.520165
O14   O     O_R   0.297070 0.467240 0.395960 -0.503453
O15   O     O_R   0.488830 0.252610 0.387790 -0.513405
O16   O     O_R   0.724400 0.302390 0.420980 -0.503266
O17   O     O_R   0.752100 0.501210 0.612190 -0.514671
O18   O     O_R   0.478040 0.729440 0.600970 -0.497471
O19   O     O_R   0.259530 0.747110 0.588490 -0.512060
O20   O     O_R   0.489720 0.254590 0.564810 -0.515814
O21   O     O_R   0.725220 0.304230 0.585080 -0.502400
O22   O     O_3   0.500010 0.500010 0.500020 -0.268543
O23   O     O_R   0.171830 0.913880 0.057510 -0.501264
O24   O     O_R   0.940690 0.186050 0.054730 -0.495205
O25   O     O_R   0.920470 0.405720 0.075010 -0.526303
O26   O     O_R   0.196690 0.370460 0.084120 -0.524414

loop_
_geom_bond_atom_site_label_1
_geom_bond_atom_site_label_2
_ccdc_geom_bond_type
C37   H24   S    
C11   C18   S    
C34   C37   S    
Cr3   O16   S    
Cr5   O11   S    
C13   C32   S    
C35   C36   T    
Cr1   O17   S    
Cr6   O3    S    
C25   C43   S    
C6    C9    S    
C7    C8    S    
Cr2   O13   S    
C15   C19   S    
C12   C23   S    
C27   O23   A    
C26   O2    A    
Cr3   O22   S    
C5    H8    S    
C28   O19   A    
C34   C40   S    
Cr5   O8    S    
C29   O7    A    
C3    C7    S    
Cr1   O22   S    
Cr5   O25   S    
C5    C6    S    
C32   O12   A    
Cr4   O5    S    
C28   O18   A    
C16   O1    A    
C14   H21   S    
C12   C37   S    
C12   C42   S    
C34   H2    S    
Cr6   O9    S    
C7    H18   S    
C40   C43   S    
Cr2   O19   S    
C2    C44   S    
C8    C9    S    
Cr3   O20   S    
C23   C41   S    
C44   H7    S    
C4    O14   A    
C38   H11   S    
C15   N2    S    
Cr2   O22   S    
C4    C35   S    
C31   O10   A    
C22   C28   S    
C13   C14   S    
C39   H15   S    
C39   H17   S    
Cr1   O18   S    
Cr6   O2    S    
Cr2   O12   S    
C38   N1    S    
Cr4   O24   S    
Cr5   O7    S    
C10   C14   S    
Cr5   O26   S    
C18   C19   S    
C21   C29   S    
C8    N1    S    
C1    C3    S    
C37   C43   S    
C41   C42   S    
C42   H5    S    
C25   O24   A    
C10   C19   S    
C23   C34   S    
C17   C18   S    
H14   N2    S    
Cr4   O11   S    
C39   N2    S    
C30   O9    A    
C6    H12   S    
Cr6   O11   S    
C38   H10   S    
C20   C33   S    
C10   H20   S    
C26   C36   S    
C40   C41   S    
C32   O20   A    
C5    C44   S    
C16   O16   A    
C18   H23   S    
C39   H16   S    
C22   C24   T    
C42   C43   S    
H9    N1    S    
C12   H1    S    
C9    C27   S    
C38   H13   S    
C15   C17   S    
Cr4   O23   S    
C9    C44   S    
C1    O13   A    
Cr3   O15   S    
C2    C8    S    
C3    C5    S    
C33   O17   A    
C11   H19   S    
C6    C7    S    
Cr2   O14   S    
C16   C23   S    
C27   O3    A    
C31   O5    A    
C13   C17   S    
Cr3   O21   S    
C4    O15   A    
C2    C3    S    
C24   C31   S    
C29   O6    A    
C2    H6    S    
C26   O26   A    
C11   C13   S    
C25   O25   A    
Cr4   O6    S    
Cr1   O4    S    
C33   O21   A    
C30   O8    A    
C41   H4    S    
C10   C11   S    
Cr6   O10   S    
C20   C21   T    
C17   H22   S    
C40   H3    S    
C1    O4    A    
C14   C15   S    
Cr1   O1    S    
C19   C30   S    
