data_mof_unit_43150.cif
_audit_creation_date              2012-10-26T17:12:29-0400
_audit_creation_method            fapswitch 2.2
_symmetry_space_group_name_H-M    P1
_symmetry_Int_Tables_number       1
_space_group_crystal_system       triclinic
_cell_length_a                    16.709812
_cell_length_b                    16.769143
_cell_length_c                    16.704997
_cell_angle_alpha                 68.010445
_cell_angle_beta                  68.276528
_cell_angle_gamma                 68.201781
_cell_volume                      3882.1437746

loop_
_atom_site_label
_atom_site_type_symbol
_atom_type_description
_atom_site_fract_x
_atom_site_fract_y
_atom_site_fract_z
_atom_type_partial_charge
C1    C     C_R   0.013511 0.831606 0.569862 0.600082
C2    C     C_R   0.027650 0.564719 0.828118 0.610134
C3    C     C_R   0.167553 0.989486 0.429960 0.592869
C4    C     C_R   0.828004 0.029174 0.564227 0.619032
C5    C     C_R   0.446275 0.102707 0.700414 0.415726
C6    C     C_R   0.499172 0.080226 0.246424 0.387781
C7    C     C_R   0.923562 0.743827 0.512483 0.392313
C8    C     C_R   0.925217 0.293062 0.551469 0.427588
C9    C     C_R   0.752838 0.501922 0.919560 0.385915
C10   C     C_R   0.299077 0.553248 0.897563 0.400808
C11   C     C_R   0.246770 0.080373 0.498737 0.386529
C12   C     C_R   0.970888 0.171785 0.435621 0.604984
C13   C     C_R   0.700853 0.102594 0.445830 0.409884
C14   C     C_R   0.553742 0.299267 0.899213 0.416791
C15   C     C_R   0.499401 0.752608 0.921281 0.389247
C16   C     C_R   0.906154 0.551965 0.300583 0.402110
C17   C     C_R   0.052523 0.459458 0.701431 0.431209
C18   C     C_R   0.525963 0.086961 0.525605 0.026912
C19   C     C_R   0.427902 0.072987 0.427591 0.027000
C20   C     C_R   0.971570 0.557468 0.560597 0.028560
C21   C     C_R   0.942396 0.465479 0.467494 0.025422
C22   C     C_R   0.571323 0.571978 0.928412 0.027035
C23   C     C_R   0.832412 0.569982 0.010678 0.596650
C24   C     C_R   0.473591 0.473713 0.914592 0.025982
C25   C     C_R   0.564261 0.092107 0.433337 -0.024849
C26   C     C_R   0.384185 0.085613 0.514109 -0.024176
C27   C     C_R   0.984776 0.464168 0.592927 -0.028365
C28   C     C_R   0.929415 0.558834 0.433821 -0.027112
C29   C     C_R   0.484530 0.615293 0.916142 -0.025202
C30   C     C_R   0.565821 0.435712 0.909609 -0.026788
C31   C     C_R   0.514505 0.085505 0.383840 -0.024551
C32   C     C_R   0.433715 0.092196 0.563857 -0.026280
C33   C     C_R   0.435087 0.565758 0.909288 -0.026807
C34   C     C_R   0.171924 0.435699 0.970955 0.597042
C35   C     C_R   0.615256 0.485710 0.915723 -0.024214
C36   C     C_R   0.959470 0.420801 0.552107 -0.030908
C37   C     C_R   0.936847 0.606022 0.485081 -0.024403
C38   C     C_R   0.394528 0.105750 0.649895 -0.066110
C39   C     C_R   0.545932 0.094718 0.291139 -0.078998
C40   C     C_R   0.908753 0.699655 0.465574 -0.079805
C41   C     C_R   0.944085 0.336418 0.595920 -0.068705
C42   C     C_R   0.708100 0.455034 0.905476 -0.079136
C43   C     C_R   0.349211 0.604856 0.895020 -0.080329
C44   C     C_R   0.291526 0.094929 0.545431 -0.079040
C45   C     C_R   0.564271 0.029210 0.827948 0.613800
C46   C     C_R   0.650365 0.105611 0.394072 -0.070948
C47   C     C_R   0.605174 0.349713 0.896571 -0.067567
C48   C     C_R   0.452639 0.707669 0.907230 -0.079995
C49   C     C_R   0.907314 0.601192 0.351413 -0.081001
C50   C     C_R   0.028201 0.415951 0.661336 -0.067688
C51   C     C_R   0.540714 0.076173 0.671133 -0.031328
C52   C     C_R   0.424732 0.044360 0.294377 -0.037239
C53   C     C_R   0.974569 0.696368 0.575541 -0.038386
C54   C     C_R   0.938603 0.324835 0.457325 -0.030666
C55   C     C_R   0.704985 0.575685 0.955970 -0.037766
C56   C     C_R   0.430003 0.989424 0.167555 0.595077
C57   C     C_R   0.328498 0.458971 0.924408 -0.039783
C58   C     C_R   0.294573 0.044429 0.424493 -0.036949
C59   C     C_R   0.671433 0.076117 0.540416 -0.028677
C60   C     C_R   0.459242 0.328475 0.925015 -0.029906
C61   C     C_R   0.574466 0.705227 0.956579 -0.036843
C62   C     C_R   0.931634 0.457392 0.328067 -0.038299
C63   C     C_R   0.026825 0.553627 0.680116 -0.022536
C64   C     C_R   0.597440 0.050036 0.728170 0.017531
C65   C     C_R   0.387155 0.006542 0.257099 0.003169
C66   C     C_R   0.007542 0.738570 0.611948 -0.000084
C67   C     C_R   0.435688 0.172030 0.970798 0.615044
C68   C     C_R   0.951022 0.270967 0.402581 0.013288
C69   C     C_R   0.742671 0.613016 0.993597 -0.002456
C70   C     C_R   0.271666 0.402473 0.950120 0.007697
C71   C     C_R   0.257154 0.006594 0.387064 0.002420
C72   C     C_R   0.728330 0.050000 0.597283 0.018261
C73   C     C_R   0.402596 0.271701 0.950213 0.017905
C74   C     C_R   0.612605 0.742846 0.993679 -0.000128
C75   C     C_R   0.948676 0.402780 0.272035 0.002648
C76   C     C_R   0.035223 0.601192 0.730355 0.023757
C77   C     C_R   0.690229 0.035221 0.690159 0.335246
C78   C     C_R   0.570008 0.832463 0.010538 0.594423
C79   C     C_R   0.306551 0.984170 0.306576 0.322815
C80   C     C_R   0.035315 0.690649 0.690442 0.327588
C81   C     C_R   0.955969 0.310970 0.311073 0.329712
C82   C     C_R   0.693479 0.693495 0.015800 0.326927
C83   C     C_R   0.309844 0.309865 0.964494 0.333268
C84   C     C_R   0.579691 0.078699 0.579380 -0.079757
C85   C     C_R   0.383263 0.051587 0.383033 -0.077471
C86   C     C_R   0.991522 0.602465 0.605091 -0.083162
C87   C     C_R   0.938071 0.415733 0.417174 -0.083035
C88   C     C_R   0.616041 0.616756 0.949388 -0.076493
C89   C     C_R   0.969609 0.436122 0.172068 0.587620
C90   C     C_R   0.420118 0.420018 0.922474 -0.081480
Cu1   Cu    Cu3+1 0.995180 0.995180 0.424630 1.234554
Cu2   Cu    Cu3+1 0.004820 0.004820 0.575370 1.260943
Cu3   Cu    Cu3+1 0.995180 0.424630 0.995180 1.254955
Cu4   Cu    Cu3+1 0.004820 0.575370 0.004820 1.222287
Cu5   Cu    Cu3+1 0.424630 0.995180 0.995180 1.251070
Cu6   Cu    Cu3+1 0.575370 0.004820 0.004820 1.256570
F1    F     F_    0.402126 0.135159 0.772873 -0.593488
F2    F     F_    0.476953 0.842612 0.887740 -0.619757
F3    F     F_    0.870065 0.598548 0.230298 -0.583255
F4    F     F_    0.109176 0.408646 0.753803 -0.592704
F5    F     F_    0.744969 0.002210 0.745090 -0.572812
F6    F     F_    0.275290 0.940410 0.275502 -0.589445
F7    F     F_    0.061141 0.731528 0.729640 -0.561335
F8    F     F_    0.971316 0.258833 0.258359 -0.568875
F9    F     F_    0.725187 0.724686 0.059123 -0.565145
F10   F     F_    0.255198 0.255290 0.996552 -0.571165
F11   F     F_    0.520929 0.113684 0.156130 -0.622003
F12   F     F_    0.879457 0.831682 0.501845 -0.624456
F13   F     F_    0.883456 0.227842 0.603050 -0.589666
F14   F     F_    0.842850 0.481123 0.885160 -0.628997
F15   F     F_    0.226887 0.597376 0.864174 -0.583283
F16   F     F_    0.156651 0.113775 0.520326 -0.625249
F17   F     F_    0.773458 0.135033 0.401489 -0.599407
F18   F     F_    0.598418 0.227068 0.866703 -0.593020
H1    H     H_    0.323329 0.120953 0.679694 0.147038
H2    H     H_    0.393537 0.748423 0.885041 0.140600
H3    H     H_    0.891506 0.672754 0.323791 0.142700
H4    H     H_    0.048939 0.343664 0.680488 0.143854
H5    H     H_    0.604553 0.117464 0.250026 0.140114
H6    H     H_    0.870812 0.740288 0.417256 0.141119
H7    H     H_    0.939073 0.306942 0.666788 0.145262
H8    H     H_    0.749213 0.397074 0.882012 0.138579
H9    H     H_    0.319339 0.675925 0.879347 0.143894
H10   H     H_    0.250523 0.117770 0.603905 0.139843
H11   H     H_    0.680260 0.120767 0.322785 0.142168
H12   H     H_    0.676367 0.319855 0.882030 0.145863
O1    O     O_R   0.124540 0.978640 0.385460 -0.452843
O2    O     O_R   0.124540 0.385460 0.978640 -0.419854
O3    O     O_R   0.021360 0.875460 0.614540 -0.445605
O4    O     O_R   0.978640 0.124540 0.385460 -0.426963
O5    O     O_R   0.013780 0.867370 0.487190 -0.481622
O6    O     O_R   0.986220 0.132630 0.512810 -0.429682
O7    O     O_R   0.867370 0.487190 0.013780 -0.479527
O8    O     O_R   0.132630 0.512810 0.986220 -0.486292
O9    O     O_R   0.487190 0.013780 0.867370 -0.430985
O10   O     O_R   0.512810 0.986220 0.132630 -0.473691
O11   O     O_R   0.512810 0.132630 0.986220 -0.428860
O12   O     O_R   0.875460 0.021360 0.614540 -0.427638
O13   O     O_R   0.487190 0.867370 0.013780 -0.474863
O14   O     O_R   0.986220 0.512810 0.132630 -0.479760
O15   O     O_R   0.013780 0.487190 0.867370 -0.431170
O16   O     O_R   0.132630 0.986220 0.512810 -0.472702
O17   O     O_R   0.867370 0.013780 0.487190 -0.433095
O18   O     O_R   0.978640 0.385460 0.124540 -0.439230
O19   O     O_R   0.021360 0.614540 0.875460 -0.433665
O20   O     O_R   0.385460 0.124540 0.978640 -0.426116
O21   O     O_R   0.614540 0.875460 0.021360 -0.447184
O22   O     O_R   0.614540 0.021360 0.875460 -0.427235
O23   O     O_R   0.385460 0.978640 0.124540 -0.449318
O24   O     O_R   0.875460 0.614540 0.021360 -0.419827

loop_
_geom_bond_atom_site_label_1
_geom_bond_atom_site_label_2
_ccdc_geom_bond_type
C25   C31   A    
C21   C87   A    
C26   C32   A    
Cu3   Cu4   S    
C65   C79   A    
C22   C29   A    
C45   O22   A    
Cu4   O14   S    
C64   C77   A    
C23   C69   S    
C46   H11   S    
C77   F5    S    
Cu5   Cu6   S    
C3    O16   A    
Cu3   O15   S    
Cu2   O12   S    
C78   O13   A    
C4    O17   A    
C71   C79   A    
C26   C44   A    
C66   C80   A    
Cu6   O10   S    
Cu1   O4    S    
C2    O19   A    
C22   C35   A    
C12   C68   S    
C9    C42   A    
Cu1   O1    S    
C30   C35   A    
C68   C81   A    
C52   C85   A    
Cu2   O6    S    
C37   C40   A    
C1    O3    A    
C54   C87   A    
C3    O1    A    
C58   C71   A    
Cu1   O5    S    
C63   C76   A    
C34   O8    A    
C56   C65   S    
C29   C33   A    
C60   C73   A    
C82   F9    S    
C41   H7    S    
C55   C88   A    
C35   C42   A    
C19   C26   A    
C69   C82   A    
C14   C47   A    
C49   H3    S    
C20   C86   A    
C18   C84   A    
C7    C40   A    
C79   F6    S    
C53   C86   A    
C67   C73   S    
C22   C88   A    
C57   C70   A    
C11   C58   A    
Cu2   O16   S    
C34   C70   S    
C27   C50   A    
C59   C72   A    
C48   H2    S    
C20   C37   A    
Cu4   O19   S    
C11   F16   S    
C19   C31   A    
C5    C38   A    
C36   C41   A    
C18   C25   A    
C16   C62   A    
C15   C48   A    
C74   C82   A    
C56   O10   A    
Cu1   O17   S    
Cu6   O22   S    
C45   O9    A    
C57   C90   A    
C23   O7    A    
C29   C48   A    
C33   C43   A    
C30   C47   A    
C11   C44   A    
C10   C57   A    
C16   C49   A    
C8    C54   A    
Cu1   Cu2   S    
C21   C36   A    
C75   C81   A    
C80   F7    S    
C1    O5    A    
C14   F18   S    
C44   H10   S    
C3    C71   S    
C72   C77   A    
C70   C83   A    
C61   C88   A    
C28   C49   A    
C6    F11   S    
C89   O14   A    
C67   O20   A    
Cu5   O9    S    
C1    C66   S    
C15   C61   A    
C10   F15   S    
Cu5   O13   S    
C8    C41   A    
C53   C66   A    
C55   C69   A    
Cu3   O18   S    
C12   O4    A    
C78   O21   A    
C9    C55   A    
C40   H6    S    
C21   C28   A    
C5    F1    S    
C32   C38   A    
C63   C86   A    
C61   C74   A    
C62   C75   A    
C18   C32   A    
C7    C53   A    
C15   F2    S    
C58   C85   A    
C43   H9    S    
C4    C72   S    
C2    C76   S    
C42   H8    S    
C47   H12   S    
C59   C84   A    
C9    F14   S    
C6    C39   A    
Cu6   O21   S    
C12   O6    A    
C10   C43   A    
C50   H4    S    
C23   O24   A    
Cu6   O11   S    
C51   C64   A    
C76   C80   A    
C19   C85   A    
C24   C90   A    
C17   C50   A    
C16   F3    S    
Cu5   O23   S    
C13   C59   A    
C20   C27   A    
C60   C90   A    
C27   C36   A    
Cu4   O24   S    
C89   O18   A    
C14   C60   A    
C62   C87   A    
C45   C64   S    
Cu3   O7    S    
C24   C33   A    
C83   F10   S    
Cu2   O3    S    
Cu3   O2    S    
C8    F13   S    
C17   C63   A    
C38   H1    S    
C13   C46   A    
C28   C37   A    
C39   H5    S    
C51   C84   A    
Cu4   O8    S    
C31   C39   A    
C67   O11   A    
C17   F4    S    
C24   C30   A    
C75   C89   S    
C4    O12   A    
C54   C68   A    
C34   O2    A    
C74   C78   S    
C2    O15   A    
Cu5   O20   S    
C7    F12   S    
C5    C51   A    
C6    C52   A    
C56   O23   A    
C25   C46   A    
C73   C83   A    
C13   F17   S    
C52   C65   A    
C81   F8    S    
