data_mof_unit_31429.cif
_audit_creation_date              2012-12-10T20:49:09-0500
_audit_creation_method            fapswitch 2.2
_symmetry_space_group_name_H-M    P1
_symmetry_Int_Tables_number       1
_space_group_crystal_system       triclinic
_cell_length_a                    8.951017
_cell_length_b                    8.16307
_cell_length_c                    10.567159
_cell_angle_alpha                 87.221793
_cell_angle_beta                  90.564622
_cell_angle_gamma                 90.243979
_cell_volume                      771.168347158

loop_
_atom_site_label
_atom_site_type_symbol
_atom_type_description
_atom_site_fract_x
_atom_site_fract_y
_atom_site_fract_z
_atom_type_partial_charge
C1    C     C_R   0.218199 0.499752 0.500629 0.928907
C2    C     C_3   0.643959 0.502594 0.056229 0.138667
C3    C     C_3   0.530932 0.494711 0.875811 -0.250652
C4    C     C_3   0.492566 0.510205 0.122414 -0.260181
C5    C     C_1   0.065245 0.499654 0.502189 -0.204335
C6    C     C_1   0.934841 0.500330 0.502707 -0.199755
C7    C     C_3   0.099394 0.493745 0.934722 -0.744556
C8    C     C_3   0.852420 0.386519 0.189995 -0.784175
C9    C     C_3   0.298444 0.887044 0.948995 -0.763266
C10   C     C_3   0.683275 0.093058 0.045287 -0.788088
C11   C     C_3   0.700754 0.841238 0.797317 -0.716905
C12   C     C_R   0.781830 0.500171 0.501643 0.916859
C13   C     C_3   0.226184 0.258509 0.176079 -0.785013
C14   C     C_R   0.488976 0.503683 0.257201 0.923546
C15   C     C_R   0.525666 0.497217 0.740642 0.900532
C16   C     C_3   0.438203 0.641969 0.022849 0.132933
C17   C     C_3   0.585008 0.364027 0.975480 0.139247
C18   C     C_3   0.590334 0.634397 0.956406 0.161990
C19   C     C_3   0.432474 0.371045 0.041402 0.181274
C20   C     C_3   0.377337 0.502011 0.943058 0.160212
H1    H     H_    0.239203 0.576685 0.789181 0.231991
H2    H     H_    0.227282 0.985422 0.984033 0.248620
H3    H     H_    0.226962 0.815824 0.885855 0.242640
H4    H     H_    0.391664 0.943970 0.894496 0.259860
H5    H     H_    0.643405 0.176658 0.858540 0.243821
H6    H     H_    0.794892 0.035391 0.040342 0.243624
H7    H     H_    0.595738 0.999317 0.034112 0.275558
H8    H     H_    0.669365 0.140408 0.140683 0.250883
H9    H     H_    0.800752 0.751873 0.961488 0.230021
H10   H     H_    0.779886 0.946336 0.795674 0.220553
H11   H     H_    0.590062 0.889669 0.767111 0.262632
H12   H     H_    0.074457 0.366198 0.967953 0.274303
H13   H     H_    0.745506 0.752403 0.731382 0.249046
H14   H     H_    0.408160 0.130321 0.118194 0.258770
H15   H     H_    0.259252 0.216943 0.273831 0.266372
H16   H     H_    0.128040 0.184025 0.149608 0.229583
H17   H     H_    0.195628 0.389904 0.176016 0.228787
H18   H     H_    0.007557 0.533251 0.868723 0.228857
H19   H     H_    0.101385 0.576926 0.014687 0.238350
H20   H     H_    0.789455 0.630010 0.171141 0.226826
H21   H     H_    0.952162 0.428325 0.242378 0.224269
H22   H     H_    0.889854 0.295752 0.123211 0.266363
H23   H     H_    0.773684 0.331196 0.259815 0.267516
H24   H     H_    0.275291 0.759900 0.122892 0.222642
N1    N     N_1   0.500000 0.073640 0.500000 -0.051141
N2    N     N_1   0.500000 0.926360 0.500000 -0.047461
N3    N     N_2   0.239666 0.498182 0.868474 -0.287528
N4    N     N_2   0.786277 0.524613 0.121099 -0.315004
N5    N     N_2   0.354956 0.785803 0.054962 -0.301235
N6    N     N_2   0.669259 0.220378 0.945824 -0.296858
N7    N     N_2   0.694925 0.767546 0.923930 -0.325518
N8    N     N_2   0.345951 0.230497 0.088910 -0.287864
O1    O     O_R   0.285350 0.636850 0.500000 -0.619362
O2    O     O_R   0.714650 0.363150 0.500000 -0.624534
O3    O     O_R   0.714650 0.636850 0.500000 -0.626819
O4    O     O_R   0.285350 0.363150 0.500000 -0.615293
O5    O     O_R   0.499970 0.636850 0.313950 -0.618269
O6    O     O_R   0.500030 0.363150 0.686050 -0.620433
O7    O     O_R   0.500030 0.636850 0.686050 -0.627530
O8    O     O_R   0.499970 0.363150 0.313950 -0.625242
Zn1   Zn    Zn3+2 0.500000 0.682780 0.500000 0.955635
Zn2   Zn    Zn3+2 0.500000 0.317220 0.500000 0.955330

loop_
_geom_bond_atom_site_label_1
_geom_bond_atom_site_label_2
_ccdc_geom_bond_type
C10   H7    S    
C4    C16   S    
C17   N6    S    
C2    C4    S    
C8    N4    S    
C9    H4    S    
O6    Zn2   S    
C2    C18   S    
C13   N8    S    
C14   O8    A    
H14   N8    S    
C19   C20   S    
C8    H23   S    
C16   C20   S    
C10   H6    S    
C11   H11   S    
C3    C20   S    
C9    N5    S    
N1    N2    T    
C16   N5    S    
C2    C17   S    
O5    Zn1   S    
C3    C17   S    
O1    Zn1   S    
C13   H17   S    
C13   H16   S    
C1    C5    S    
O3    Zn1   S    
C6    C12   S    
O8    Zn2   S    
C17   C19   S    
C1    O4    A    
C8    H22   S    
C18   N7    S    
C13   H15   S    
C4    C14   S    
C5    C6    T    
C15   O6    A    
O4    Zn2   S    
C9    H2    S    
O7    Zn1   S    
C12   O3    A    
C11   N7    S    
N2    Zn1   S    
C20   N3    S    
N1    Zn2   S    
C11   H13   S    
C3    C15   S    
C8    H21   S    
C3    C18   S    
C16   C18   S    
H9    N7    S    
C10   H8    S    
H20   N4    S    
C14   O5    A    
C7    H19   S    
H5    N6    S    
C9    H3    S    
C1    O1    A    
C7    H12   S    
O2    Zn2   S    
C2    N4    S    
C4    C19   S    
C15   O7    A    
C19   N8    S    
C7    H18   S    
H24   N5    S    
C12   O2    A    
C11   H10   S    
C7    N3    S    
H1    N3    S    
C10   N6    S    
