data_mof_unit_63837.cif
_audit_creation_date              2012-12-10T18:16:20-0500
_audit_creation_method            fapswitch 2.2
_symmetry_space_group_name_H-M    P1
_symmetry_Int_Tables_number       1
_space_group_crystal_system       triclinic
_cell_length_a                    18.350174
_cell_length_b                    18.323714
_cell_length_c                    18.326073
_cell_angle_alpha                 119.939006
_cell_angle_beta                  60.01505
_cell_angle_gamma                 120.019463
_cell_volume                      4359.06476894

loop_
_atom_site_label
_atom_site_type_symbol
_atom_type_description
_atom_site_fract_x
_atom_site_fract_y
_atom_site_fract_z
_atom_type_partial_charge
C1    C     C_R   0.389977 0.109738 0.610072 0.867759
C2    C     C_R   0.066802 0.975450 0.919970 -0.195299
C3    C     C_R   0.948410 0.945973 0.053597 -0.049639
C4    C     C_R   0.051592 0.054027 0.946403 -0.049629
C5    C     C_R   0.015956 0.920980 0.972930 0.021536
C6    C     C_R   0.984044 0.079017 0.027067 0.021542
C7    C     C_R   0.013467 0.460053 0.908394 -0.211417
C8    C     C_R   0.986528 0.539942 0.091607 -0.211417
C9    C     C_R   0.959764 0.513245 0.961917 -0.198296
C10   C     C_R   0.040230 0.486749 0.038084 -0.198298
C11   C     C_R   0.946207 0.553616 0.053735 0.015272
C12   C     C_R   0.610023 0.890262 0.389928 0.867760
C13   C     C_R   0.053789 0.446381 0.946265 0.015280
C14   C     C_R   0.026928 0.092994 0.526505 -0.185294
C15   C     C_R   0.973072 0.907006 0.473496 -0.185293
C16   C     C_R   0.109768 0.390160 0.890195 0.787111
C17   C     C_R   0.890231 0.609839 0.109805 0.787102
C18   C     C_R   0.973519 0.039526 0.473017 -0.174071
C19   C     C_R   0.026480 0.960474 0.526983 -0.174067
C20   C     C_R   0.946311 0.946256 0.446242 -0.000828
C21   C     C_R   0.053689 0.053744 0.553758 -0.000829
C22   C     C_R   0.538119 0.092451 0.518520 -0.353601
C23   C     C_R   0.922280 0.156895 0.004033 -0.184567
C24   C     C_R   0.461881 0.907549 0.481480 -0.353601
C25   C     C_R   0.592334 0.039927 0.464736 0.653141
C26   C     C_R   0.407666 0.960073 0.535264 0.653142
C27   C     C_R   0.554319 0.946824 0.445945 -0.235971
C28   C     C_R   0.445681 0.053176 0.554054 -0.235971
C29   C     C_R   0.407105 0.473711 0.527070 -0.185361
C30   C     C_R   0.592895 0.526289 0.472930 -0.185361
C31   C     C_R   0.460648 0.527161 0.473546 -0.182326
C32   C     C_R   0.539351 0.472839 0.526454 -0.182325
C33   C     C_R   0.553799 0.553706 0.446222 0.004186
C34   C     C_R   0.077682 0.843056 0.995955 -0.184517
C35   C     C_R   0.446201 0.446294 0.553778 0.004187
C36   C     C_R   0.407098 0.472769 0.039529 -0.178576
C37   C     C_R   0.592901 0.527230 0.960471 -0.178580
C38   C     C_R   0.460593 0.526214 0.092935 -0.180971
C39   C     C_R   0.539407 0.473786 0.907065 -0.180972
C40   C     C_R   0.390079 0.390160 0.890196 0.789841
C41   C     C_R   0.609921 0.609840 0.109803 0.789843
C42   C     C_R   0.553772 0.553720 0.053685 -0.000079
C43   C     C_R   0.446228 0.446280 0.946314 -0.000079
C44   C     C_R   0.109808 0.109891 0.609893 0.784459
C45   C     C_R   0.897563 0.229190 0.029454 -0.124498
C46   C     C_R   0.890192 0.890109 0.390107 0.784460
C47   C     C_R   0.390048 0.390179 0.609931 0.789557
C48   C     C_R   0.609952 0.609821 0.390070 0.789556
C49   C     C_R   0.108955 0.110021 0.890117 0.793257
C50   C     C_R   0.891046 0.889979 0.109882 0.793240
C51   C     C_R   0.949864 0.304710 0.155312 -0.154153
C52   C     C_R   0.050138 0.695285 0.844636 -0.154154
C53   C     C_R   0.975065 0.232691 0.130359 0.209686
C54   C     C_R   0.024944 0.767314 0.869604 0.209652
C55   C     C_R   0.960685 0.157671 0.054379 0.081249
C56   C     C_R   0.102390 0.770749 0.970519 -0.124461
C57   C     C_R   0.039304 0.842313 0.945604 0.081260
C58   C     C_R   0.910675 0.302661 0.105406 -0.142157
C59   C     C_R   0.089300 0.697301 0.894546 -0.142169
C60   C     C_R   0.933201 0.024551 0.080030 -0.195294
F1    F     F_    0.681503 0.080538 0.430843 -0.634429
F2    F     F_    0.318496 0.919462 0.569156 -0.634425
H1    H     H_    0.890705 0.358223 0.125478 0.149936
H2    H     H_    0.570928 0.452385 0.546323 0.168162
H3    H     H_    0.335268 0.452265 0.071251 0.173288
H4    H     H_    0.664732 0.547734 0.928749 0.173282
H5    H     H_    0.428955 0.545882 0.164805 0.169564
H6    H     H_    0.571045 0.454118 0.835195 0.169563
H7    H     H_    0.960772 0.362500 0.213453 0.154922
H8    H     H_    0.039244 0.637511 0.786479 0.154934
H9    H     H_    0.910991 0.099936 0.945391 0.131920
H10   H     H_    0.088956 0.899998 0.054612 0.131885
H11   H     H_    0.867815 0.228071 0.990501 0.136728
H12   H     H_    0.109264 0.641731 0.874463 0.149928
H13   H     H_    0.132116 0.771842 0.009477 0.136714
H14   H     H_    0.879851 0.042370 0.141083 0.179204
H15   H     H_    0.120151 0.957632 0.858916 0.179208
H16   H     H_    0.022960 0.429329 0.837614 0.164285
H17   H     H_    0.977035 0.570666 0.162387 0.164289
H18   H     H_    0.928904 0.522681 0.931427 0.168123
H19   H     H_    0.071089 0.477313 0.068575 0.168121
H20   H     H_    0.047184 0.164905 0.546409 0.168220
H21   H     H_    0.952816 0.835095 0.453591 0.168222
H22   H     H_    0.953632 0.071250 0.452721 0.179329
H23   H     H_    0.046368 0.928750 0.547280 0.179333
H24   H     H_    0.568716 0.163969 0.531845 0.217023
H25   H     H_    0.431284 0.836031 0.468155 0.217023
H26   H     H_    0.335280 0.453968 0.547448 0.166208
H27   H     H_    0.664720 0.546032 0.452552 0.166209
H28   H     H_    0.429071 0.547615 0.453677 0.168162
I1    I     I_    0.037520 0.242717 0.207571 -0.353072
I2    I     I_    0.962525 0.757331 0.792381 -0.353066
O1    O     O_3   0.249960 0.250040 0.750040 -0.491536
O2    O     O_R   0.865890 0.634160 0.194850 -0.650721
O3    O     O_R   0.305100 0.073510 0.634200 -0.572564
O4    O     O_R   0.694900 0.926490 0.365800 -0.572565
O5    O     O_R   0.134110 0.365830 0.926590 -0.639115
O6    O     O_R   0.865890 0.634170 0.073410 -0.639114
O7    O     O_R   0.426490 0.365840 0.805130 -0.647247
O8    O     O_R   0.573510 0.634160 0.194870 -0.647247
O9    O     O_R   0.134150 0.194970 0.634230 -0.650685
O10   O     O_R   0.865850 0.805030 0.365770 -0.650685
O11   O     O_R   0.426480 0.365860 0.634240 -0.647268
O12   O     O_3   0.750040 0.749960 0.249960 -0.491534
O13   O     O_R   0.573520 0.634140 0.365760 -0.647267
O14   O     O_R   0.134190 0.073490 0.805100 -0.627617
O15   O     O_R   0.865810 0.926510 0.194900 -0.627620
O16   O     O_R   0.305020 0.365860 0.634250 -0.648149
O17   O     O_R   0.694980 0.634140 0.365750 -0.648147
O18   O     O_R   0.134160 0.194930 0.926560 -0.627119
O19   O     O_R   0.865840 0.805070 0.073440 -0.627120
O20   O     O_R   0.305030 0.365830 0.926580 -0.643520
O21   O     O_R   0.694970 0.634170 0.073420 -0.643523
O22   O     O_R   0.134180 0.073510 0.634210 -0.637238
O23   O     O_R   0.865820 0.926490 0.365790 -0.637242
O24   O     O_R   0.426530 0.194970 0.634210 -0.657879
O25   O     O_R   0.573470 0.805030 0.365790 -0.657879
O26   O     O_R   0.134110 0.365840 0.805150 -0.650722
Zn1   Zn    Zn3+2 0.206570 0.293400 0.880180 0.984321
Zn2   Zn    Zn3+2 0.793430 0.706600 0.119820 0.984313
Zn3   Zn    Zn3+2 0.380110 0.293420 0.706660 0.969806
Zn4   Zn    Zn3+2 0.619890 0.706580 0.293340 0.969807
Zn5   Zn    Zn3+2 0.206560 0.293420 0.706670 0.962191
Zn6   Zn    Zn3+2 0.793440 0.706580 0.293330 0.962190
Zn7   Zn    Zn3+2 0.206610 0.119900 0.706640 1.024976
Zn8   Zn    Zn3+2 0.793390 0.880100 0.293360 1.024968

loop_
_geom_bond_atom_site_label_1
_geom_bond_atom_site_label_2
_ccdc_geom_bond_type
C34   C56   A    
C23   C45   A    
C39   H6    S    
C14   C18   A    
C24   C27   A    
C6    C55   S    
C35   C47   S    
C40   O7    A    
C40   O20   A    
C15   C19   A    
C46   O10   A    
O14   Zn7   S    
O9    Zn5   S    
O23   Zn8   S    
C46   O23   A    
C14   C21   A    
C19   C21   A    
C24   C26   A    
C38   C42   A    
C16   O5    A    
O12   Zn4   S    
C21   C44   S    
C45   H11   S    
C41   C42   S    
C37   C42   A    
C29   H26   S    
C40   C43   S    
C22   C25   A    
C53   I1    S    
C34   C57   A    
C18   H22   S    
C31   C33   A    
C1    O24   A    
C17   O6    A    
O8    Zn4   S    
O7    Zn3   S    
C3    C60   A    
C48   O17   A    
C44   O22   A    
C56   H13   S    
C22   C28   A    
C30   H27   S    
O10   Zn6   S    
C3    C50   S    
C52   C54   A    
C53   C55   A    
C15   C20   A    
C45   C58   A    
C47   O11   A    
O24   Zn3   S    
C12   C27   S    
C32   C35   A    
C6    C60   A    
C32   H2    S    
C4    C6    A    
C51   C58   A    
O22   Zn7   S    
C36   H3    S    
C39   C43   A    
C3    C5    A    
C60   H14   S    
O19   Zn2   S    
C51   C53   A    
C9    H18   S    
O5    Zn1   S    
C2    C4    A    
O25   Zn4   S    
C54   I2    S    
C52   C59   A    
C16   O26   A    
C8    H17   S    
O21   Zn2   S    
O3    Zn7   S    
C48   O13   A    
C1    O3    A    
C31   H28   S    
C37   H4    S    
O1    Zn3   S    
C41   O8    A    
O4    Zn8   S    
C1    C28   S    
C25   F1    S    
O6    Zn2   S    
C9    C11   A    
C59   H12   S    
C7    H16   S    
C8    C10   A    
C50   O15   A    
C2    C5    A    
C14   H20   S    
O16   Zn5   S    
O11   Zn3   S    
C34   H10   S    
C58   H1    S    
C7    C9    A    
C11   C17   S    
C30   C33   A    
O1    Zn5   S    
O15   Zn8   S    
C41   O21   A    
C19   H23   S    
C10   C13   A    
O18   Zn1   S    
O20   Zn1   S    
C15   H21   S    
C44   O9    A    
O17   Zn6   S    
C23   C55   A    
C49   O14   A    
O12   Zn6   S    
C25   C27   A    
O1    Zn1   S    
C29   C35   A    
C10   H19   S    
C26   C28   A    
C56   C59   A    
C5    C57   S    
C4    C49   S    
C36   C38   A    
C26   F2    S    
C29   C31   A    
C2    H15   S    
C30   C32   A    
C8    C11   A    
C50   O19   A    
O13   Zn4   S    
C18   C20   A    
O26   Zn5   S    
C22   H24   S    
C24   H25   S    
O1    Zn7   S    
C52   H8    S    
C12   O25   A    
C7    C13   A    
O12   Zn8   S    
C38   H5    S    
C23   H9    S    
C37   C39   A    
C47   O16   A    
C13   C16   S    
C33   C48   S    
C12   O4    A    
C36   C43   A    
C17   O2    A    
C51   H7    S    
C20   C46   S    
C49   O18   A    
O12   Zn2   S    
C54   C57   A    
O2    Zn6   S    
