data_mof_unit_13571.cif
_audit_creation_date              2012-12-10T18:33:32-0500
_audit_creation_method            fapswitch 2.2
_symmetry_space_group_name_H-M    P1
_symmetry_Int_Tables_number       1
_space_group_crystal_system       triclinic
_cell_length_a                    8.720803
_cell_length_b                    15.092107
_cell_length_c                    13.863972
_cell_angle_alpha                 90.421568
_cell_angle_beta                  97.971176
_cell_angle_gamma                 90.047219
_cell_volume                      1807.02824253

loop_
_atom_site_label
_atom_site_type_symbol
_atom_type_description
_atom_site_fract_x
_atom_site_fract_y
_atom_site_fract_z
_atom_type_partial_charge
C1    C     C_R   0.502573 0.329905 0.499754 0.901498
C2    C     C_R   0.502811 0.670355 0.500672 0.882098
C3    C     C_R   0.583551 0.563730 0.115686 -0.248800
C4    C     C_R   0.373311 0.466906 0.881018 -0.245516
C5    C     C_R   0.582501 0.562420 0.217067 0.084727
C6    C     C_R   0.375933 0.467126 0.779759 0.095443
C7    C     C_R   0.417746 0.437420 0.201852 0.136286
C8    C     C_R   0.624827 0.531838 0.801971 0.182312
C9    C     C_R   0.417107 0.435711 0.100307 -0.251136
C10   C     C_R   0.627565 0.532002 0.903689 -0.244241
C11   C     C_R   0.500370 0.499646 0.054828 0.114282
C12   C     C_R   0.500385 0.499551 0.945530 0.120272
C13   C     C_R   0.203657 0.499980 0.475086 0.870385
C14   C     C_R   0.796329 0.500382 0.524928 0.949723
C15   C     C_2   0.037797 0.499992 0.461348 -0.307988
C16   C     C_2   0.962175 0.500657 0.538699 -0.283227
C17   C     C_R   0.379136 0.098675 0.548118 0.507269
C18   C     C_R   0.400887 0.901485 0.416942 0.498572
C19   C     C_R   0.392931 0.190785 0.549771 -0.299528
C20   C     C_R   0.413762 0.809403 0.420587 -0.309125
C21   C     C_R   0.498979 0.233263 0.498239 -0.228853
C22   C     C_R   0.499388 0.767464 0.500726 -0.209908
C23   C     C_R   0.595859 0.182875 0.445218 0.436257
C24   C     C_R   0.577032 0.819182 0.578172 0.363983
C25   C     C_R   0.581117 0.090905 0.443298 -0.197424
C26   C     C_R   0.561748 0.911053 0.574767 -0.218290
C27   C     C_R   0.474127 0.048845 0.493933 -0.046416
C28   C     C_R   0.474734 0.952157 0.495450 -0.019658
Cu1   Cu    Cu3+1 0.500000 0.499990 0.596430 1.015774
Cu2   Cu    Cu3+1 0.500000 0.500010 0.403570 0.992199
H1    H     H_    0.977688 0.499334 0.387186 0.174620
H2    H     H_    0.022207 0.501287 0.612867 0.164520
H3    H     H_    0.319687 0.229990 0.590583 0.204929
H4    H     H_    0.355567 0.769889 0.360913 0.208688
H5    H     H_    0.655557 0.051079 0.403961 0.218530
H6    H     H_    0.620401 0.951630 0.633407 0.213544
H7    H     H_    0.647657 0.615626 0.085515 0.158644
H8    H     H_    0.270944 0.442216 0.908006 0.140424
H9    H     H_    0.647660 0.611892 0.262477 0.139853
H10   H     H_    0.277617 0.440777 0.732142 0.130776
H11   H     H_    0.352795 0.387961 0.235277 0.148384
H12   H     H_    0.723590 0.557557 0.771917 0.173346
H13   H     H_    0.353236 0.383637 0.058289 0.152339
H14   H     H_    0.730156 0.556419 0.948919 0.144670
N1    N     N_R   0.500000 0.500020 0.258690 -0.189030
N2    N     N_R   0.500000 0.499980 0.741310 -0.188355
O1    O     O_R   0.500010 0.371450 0.581430 -0.593097
O2    O     O_R   0.499990 0.628550 0.418570 -0.609249
O3    O     O_R   0.500010 0.371460 0.418560 -0.542821
O4    O     O_R   0.499990 0.628540 0.581440 -0.514151
O5    O     O_R   0.274840 0.499990 0.562640 -0.598462
O6    O     O_R   0.725160 0.500010 0.437360 -0.580346
O7    O     O_R   0.274840 0.500000 0.399770 -0.594760
O8    O     O_R   0.725160 0.500000 0.600230 -0.591824
S1    S     S_3+6 0.244477 0.047798 0.614988 0.058354
O9    O     O_2   0.330789 0.009520 0.706557 -0.275867
O10   O     O_2   0.129392 0.114738 0.641424 -0.250708
O11   O     O_3   0.149510 0.965930 0.548674 -0.480445
H15   H     H_    0.082426 0.938671 0.592429 0.392864
S2    S     S_3+6 0.294196 0.951372 0.313460 0.053274
O12   O     O_2   0.405876 0.989306 0.251279 -0.266436
O13   O     O_2   0.192863 0.883932 0.255079 -0.257445
O14   O     O_3   0.182930 0.033363 0.348254 -0.463938
H16   H     H_    0.139772 0.063252 0.287120 0.396743
S3    S     S_3+6 0.742886 0.231400 0.386320 0.040048
O15   O     O_2   0.829567 0.299284 0.452638 -0.325059
O16   O     O_2   0.854587 0.162013 0.360957 -0.237521
O17   O     O_3   0.661166 0.280559 0.283439 -0.512709
H17   H     H_    0.742560 0.319992 0.264393 0.368709
S4    S     S_3+6 0.699355 0.773376 0.678204 0.030934
O18   O     O_2   0.796404 0.700589 0.643683 -0.294692
O19   O     O_2   0.805066 0.843121 0.728970 -0.248328
O20   O     O_3   0.589626 0.731827 0.757674 -0.507212
H18   H     H_    0.525427 0.782201 0.774612 0.367288

loop_
_geom_bond_atom_site_label_1
_geom_bond_atom_site_label_2
_ccdc_geom_bond_type
C2    C22   S    
C11   C12   S    
C18   C28   A    
C1    C21   S    
Cu1   Cu2   S    
C4    C12   A    
C2    O4    A    
O20   H18   S    
C17   S1    S    
Cu2   N1    S    
C26   C28   A    
Cu1   N2    S    
S1    O9    D    
S3    O17   S    
C20   H4    S    
C23   S3    S    
S4    O20   S    
S1    O10   D    
C24   S4    S    
C14   O8    A    
C13   O5    A    
C23   C25   A    
C15   H1    S    
C9    C11   A    
C24   C26   A    
S4    O18   D    
C10   C12   A    
C25   H5    S    
S2    O14   S    
Cu1   O1    S    
C7    N1    A    
C22   C24   A    
Cu2   O2    S    
C19   C21   A    
Cu2   O3    S    
C8    H12   S    
C13   O7    A    
Cu1   O4    S    
C13   C15   S    
C21   C23   A    
Cu1   O5    S    
C25   C27   A    
Cu2   O7    S    
C14   C16   S    
C9    H13   S    
C4    C6    A    
C16   H2    S    
Cu1   O8    S    
C14   O6    A    
C10   H14   S    
O14   H16   S    
C17   C27   A    
C3    C5    A    
C26   H6    S    
C6    H10   S    
C3    C11   A    
C3    H7    S    
C18   C20   A    
S2    O13   D    
S3    O15   D    
C19   H3    S    
S1    O11   S    
C18   S2    S    
C27   C28   S    
C7    C9    A    
C5    H9    S    
Cu2   O6    S    
C17   C19   A    
S4    O19   D    
C6    N2    A    
C8    N2    A    
C2    O2    A    
O11   H15   S    
C4    H8    S    
C5    N1    A    
O17   H17   S    
C8    C10   A    
C1    O1    A    
C15   C16   D    
C7    H11   S    
C20   C22   A    
S2    O12   D    
S3    O16   D    
C1    O3    A    
