data_mof_unit_62049.cif
_audit_creation_date              2012-12-11T15:13:07-0500
_audit_creation_method            fapswitch 2.2
_symmetry_space_group_name_H-M    P1
_symmetry_Int_Tables_number       1
_space_group_crystal_system       triclinic
_cell_length_a                    13.702619
_cell_length_b                    13.710054
_cell_length_c                    28.194551
_cell_angle_alpha                 90.027685
_cell_angle_beta                  90.158098
_cell_angle_gamma                 119.928549
_cell_volume                      4590.37478612

loop_
_atom_site_label
_atom_site_type_symbol
_atom_type_description
_atom_site_fract_x
_atom_site_fract_y
_atom_site_fract_z
_atom_type_partial_charge
C1    C     C_R   0.377958 0.099931 0.433454 0.546581
C2    C     C_1   0.346671 0.692889 0.349083 0.135942
C3    C     C_3   0.727314 0.042586 0.272071 0.742556
C4    C     C_R   0.399003 0.776633 0.434431 0.550484
C5    C     C_3   0.936643 0.170178 0.282961 0.239943
C6    C     C_3   0.950191 0.177019 0.227749 0.530261
C7    C     C_1   0.890875 0.189294 0.110529 0.099321
C8    C     C_3   0.819773 0.153658 0.295857 -0.109950
C9    C     C_3   0.738772 0.048604 0.216668 0.623076
C10   C     C_3   0.841726 0.163719 0.202694 -0.107384
C11   C     C_3   0.820936 0.259571 0.220641 0.220152
C12   C     C_1   0.365202 0.723571 0.389468 0.101605
C13   C     C_3   0.811770 0.255613 0.275680 0.638330
C14   C     C_1   0.860752 0.172486 0.151154 0.165647
C15   C     C_1   0.801867 0.147065 0.347467 0.172369
C16   C     C_R   0.721984 0.120571 0.433811 0.544180
C17   C     C_1   0.773247 0.137681 0.388257 0.114395
C18   C     C_3   0.450249 0.178045 0.272057 0.519905
C19   C     C_3   0.322519 0.260737 0.282153 0.593880
C20   C     C_3   0.318384 0.267616 0.226463 0.642635
C21   C     C_1   0.306279 0.193765 0.109544 0.089775
C22   C     C_3   0.337237 0.158125 0.295353 0.028214
C23   C     C_3   0.285456 0.553948 0.240152 0.324176
C24   C     C_3   0.441522 0.177322 0.217089 -0.191617
C25   C     C_3   0.330440 0.171665 0.202010 -0.182233
C26   C     C_3   0.231961 0.057032 0.218991 -0.167427
C27   C     C_3   0.234362 0.046783 0.274371 0.366069
C28   C     C_R   0.378365 0.101918 0.565459 0.544857
C29   C     C_1   0.323194 0.181142 0.150325 0.045116
C30   C     C_1   0.345435 0.148943 0.347137 0.099715
C31   C     C_1   0.358050 0.132403 0.387966 0.068630
C32   C     C_3   0.442996 0.783186 0.730354 0.096801
C33   C     C_3   0.333091 0.575393 0.718951 0.263860
C34   C     C_3   0.325329 0.651472 0.204587 -0.111946
C35   C     C_3   0.312878 0.556716 0.773614 0.584696
C36   C     C_1   0.300245 0.612303 0.890340 0.107502
C37   C     C_3   0.336820 0.686326 0.705105 -0.166705
C38   C     C_3   0.437281 0.767204 0.785626 0.502886
C39   C     C_3   0.321287 0.663198 0.798334 -0.107090
C40   C     C_R   0.399725 0.779069 0.566649 0.545306
C41   C     C_3   0.227063 0.684763 0.778541 0.229775
C42   C     C_3   0.227304 0.682799 0.723241 0.716376
C43   C     C_1   0.310548 0.642960 0.849825 0.141686
C44   C     C_1   0.349088 0.703757 0.653586 0.153221
C45   C     C_3   0.394031 0.621587 0.269158 0.398691
C46   C     C_1   0.367406 0.730356 0.612612 0.111636
C47   C     C_3   0.726169 0.183006 0.728061 0.560819
C48   C     C_3   0.936259 0.253483 0.718857 0.531464
C49   C     C_3   0.942584 0.262309 0.774562 0.540886
C50   C     C_1   0.885703 0.192571 0.889523 0.103676
C51   C     C_3   0.815886 0.158112 0.704506 -0.125243
C52   C     C_R   0.722696 0.122341 0.566135 0.541467
C53   C     C_3   0.729195 0.173884 0.783465 0.550976
C54   C     C_3   0.834104 0.164076 0.797813 -0.127702
C55   C     C_3   0.816964 0.049691 0.778504 0.746889
C56   C     C_3   0.334993 0.671547 0.298462 -0.104772
C57   C     C_3   0.798898 0.043634 0.723710 0.718356
C58   C     C_1   0.852712 0.172200 0.849331 0.146825
C59   C     C_1   0.800540 0.151029 0.652772 0.104131
C60   C     C_1   0.773447 0.140597 0.611784 0.078430
C61   C     C_3   0.336587 0.066681 0.726036 0.203555
C62   C     C_3   0.238172 0.180561 0.715851 0.614257
C63   C     C_3   0.233598 0.186753 0.771724 0.428093
C64   C     C_3   0.226108 0.603797 0.269556 0.339612
C65   C     C_1   0.310957 0.202245 0.887589 0.086212
C66   C     C_3   0.343706 0.172169 0.701942 -0.126146
C67   C     C_3   0.434295 0.718629 0.233479 0.364648
C68   C     C_3   0.338010 0.075358 0.780884 0.647101
C69   C     C_3   0.338144 0.185155 0.795181 -0.085569
C70   C     C_3   0.448836 0.288139 0.775685 0.552594
C71   C     C_3   0.452192 0.278809 0.720338 0.690214
C72   C     C_1   0.330565 0.192388 0.846959 0.149486
C73   C     C_1   0.350590 0.159518 0.650568 0.114254
C74   C     C_1   0.360216 0.138115 0.610205 0.091206
C75   C     C_R   0.943613 0.224306 0.065352 0.544478
C76   C     C_3   0.266397 0.701595 0.233950 0.334507
C77   C     C_R   0.283214 0.552409 0.067483 0.549186
C78   C     C_3   0.375754 0.769396 0.262855 0.325928
C79   C     C_R   0.272448 0.213212 0.064245 0.553331
C80   C     C_R   0.942930 0.229241 0.933763 0.549535
C81   C     C_R   0.283687 0.558673 0.935312 0.547659
C82   C     C_R   0.273877 0.218927 0.932452 0.539354
C83   C     C_1   0.301353 0.602350 0.113137 0.088396
C84   C     C_1   0.314277 0.631092 0.153829 0.119232
Cr1   Cr    Cr6+3 0.582410 0.169020 0.499790 1.133500
Cr2   Cr    Cr6+3 0.330970 0.913410 0.499920 1.128240
Cr3   Cr    Cr6+3 0.586650 0.917610 0.500320 1.131260
Cr4   Cr    Cr6+3 0.083990 0.164050 0.998170 1.130479
Cr5   Cr    Cr6+3 0.080550 0.415820 0.000690 1.113363
Cr6   Cr    Cr6+3 0.335830 0.419220 0.999920 1.125423
F1    F     F_    0.201598 0.744076 0.215538 -0.546702
F2    F     F_    0.412102 0.358785 0.300694 -0.503043
F3    F     F_    0.214397 0.251513 0.213044 -0.463621
F4    F     F_    0.422008 0.880182 0.275730 -0.527579
F5    F     F_    0.524331 0.749007 0.799694 -0.477247
F6    F     F_    0.252148 0.485360 0.692762 -0.479644
F7    F     F_    0.394942 0.537107 0.792336 -0.454744
F8    F     F_    0.219581 0.772914 0.705830 -0.502870
F9    F     F_    0.133310 0.586739 0.706513 -0.460856
F10   F     F_    0.541598 0.773594 0.214919 -0.488337
F11   F     F_    0.122006 0.607191 0.795983 -0.522910
F12   F     F_    0.949248 0.082936 0.300943 -0.463256
F13   F     F_    0.750114 0.291079 0.715837 -0.513945
F14   F     F_    0.015877 0.226502 0.702792 -0.450066
F15   F     F_    0.033053 0.252001 0.789438 -0.466444
F16   F     F_    0.691543 0.958406 0.712647 -0.517674
F17   F     F_    0.459213 0.579530 0.287473 -0.449929
F18   F     F_    0.873022 0.016763 0.701769 -0.455329
F19   F     F_    0.725318 0.960340 0.800230 -0.444217
F20   F     F_    0.632049 0.078645 0.798686 -0.457065
F21   F     F_    0.909677 0.038721 0.789279 -0.449305
F22   F     F_    0.246931 0.981071 0.800249 -0.532903
F23   F     F_    0.969507 0.091834 0.212545 -0.422207
F24   F     F_    0.240858 0.970055 0.710970 -0.503400
F25   F     F_    0.247242 0.277699 0.695958 -0.431934
F26   F     F_    0.244054 0.444392 0.227033 -0.511861
F27   F     F_    0.546002 0.272484 0.706940 -0.540493
F28   F     F_    0.462019 0.374869 0.699399 -0.455013
F29   F     F_    0.433223 0.076740 0.798367 -0.483704
F30   F     F_    0.451665 0.387521 0.787722 -0.479659
F31   F     F_    0.754825 0.961990 0.200256 -0.451524
F32   F     F_    0.734898 0.951440 0.288848 -0.429702
F33   F     F_    0.711308 0.247942 0.289152 -0.432894
F34   F     F_    0.897750 0.355198 0.294452 -0.549404
F35   F     F_    0.724793 0.251234 0.200249 -0.524553
F36   F     F_    0.623186 0.025283 0.285217 -0.505399
F37   F     F_    0.119022 0.543279 0.288212 -0.504994
F38   F     F_    0.539205 0.281946 0.285992 -0.476912
H1    H     H_    0.890758 0.342985 0.209404 0.179988
H2    H     H_    0.003347 0.248430 0.300077 0.179775
H3    H     H_    0.042302 0.341534 0.231487 0.336746
H4    H     H_    0.579331 0.960109 0.200136 0.417501
H5    H     H_    0.226641 0.321958 0.300236 0.407786
H6    H     H_    0.475296 0.389428 0.219855 0.371751
H7    H     H_    0.289081 0.939892 0.264646 0.407470
H8    H     H_    0.126711 0.011625 0.325983 0.386562
H9    H     H_    0.506455 0.112620 0.318564 0.401102
H10   H     H_    0.151714 0.461531 0.762208 0.445842
H11   H     H_    0.401823 0.899833 0.732324 0.406085
H12   H     H_    0.515284 0.252782 0.201863 0.222778
H13   H     H_    0.473284 0.861578 0.842162 0.386106
H14   H     H_    0.708223 0.248643 0.838277 0.372394
H15   H     H_    0.983213 0.356601 0.664933 0.394950
H16   H     H_    0.914520 0.390837 0.774076 0.423673
H17   H     H_    0.607752 0.131608 0.679838 0.358493
H18   H     H_    0.133053 0.101559 0.663818 0.386200
H19   H     H_    0.115011 0.026209 0.776457 0.434552
H20   H     H_    0.220537 0.287332 0.817402 0.384931
H21   H     H_    0.609379 0.365828 0.789110 0.428939
H22   H     H_    0.236151 0.987298 0.200675 0.158171
H23   H     H_    0.444183 0.103506 0.202080 0.203375
H24   H     H_    0.150178 0.048279 0.207460 0.279743
H25   H     H_    0.517321 0.778743 0.717493 0.262359
H26   H     H_    0.415218 0.581815 0.710008 0.218921
H27   H     H_    0.243215 0.768664 0.790802 0.231238
H28   H     H_    0.410132 0.060028 0.714376 0.213321
O1    O     O_R   0.697410 0.194200 0.448260 -0.474114
O2    O     O_R   0.358220 0.530810 0.052620 -0.479960
O3    O     O_R   0.327700 0.313010 0.046780 -0.485696
O4    O     O_R   0.476980 0.157590 0.451760 -0.478882
O5    O     O_R   0.175720 0.143820 0.946060 -0.475967
O6    O     O_R   0.988130 0.174220 0.950720 -0.479783
O7    O     O_R   0.966820 0.326980 0.948540 -0.484925
O8    O     O_R   0.184860 0.514240 0.953480 -0.485224
O9    O     O_R   0.358870 0.535710 0.949380 -0.474232
O10   O     O_R   0.328300 0.317550 0.951070 -0.486903
O11   O     O_3   0.166790 0.333030 0.999590 -0.294725
O12   O     O_R   0.341890 0.819480 0.547990 -0.479465
O13   O     O_R   0.305060 0.002060 0.448040 -0.486518
O14   O     O_R   0.341740 0.818420 0.452260 -0.488691
O15   O     O_R   0.497310 0.801990 0.448770 -0.473737
O16   O     O_R   0.680990 0.022320 0.452370 -0.483732
O17   O     O_R   0.697560 0.195350 0.551530 -0.483305
O18   O     O_R   0.477130 0.158650 0.547490 -0.486285
O19   O     O_R   0.305220 0.003210 0.551310 -0.475658
O20   O     O_3   0.043894 0.279454 0.214180 -0.541974
O21   O     O_3   0.641177 0.038053 0.195023 -0.568703
O22   O     O_3   0.223084 0.248017 0.302462 -0.570598
O23   O     O_R   0.497470 0.803140 0.552040 -0.487048
O24   O     O_3   0.399836 0.374534 0.209662 -0.524462
O25   O     O_3   0.241426 0.951143 0.287682 -0.592257
O26   O     O_3   0.131829 0.032210 0.291960 -0.474894
O27   O     O_3   0.474817 0.094396 0.285961 -0.520093
O28   O     O_3   0.208556 0.461925 0.783842 -0.472161
O29   O     O_3   0.460456 0.889222 0.716908 -0.547407
O30   O     O_3   0.450847 0.864176 0.808895 -0.532444
O31   O     O_3   0.732589 0.268299 0.804834 -0.583470
O32   O     O_3   0.960807 0.356964 0.698350 -0.538149
O33   O     O_3   0.962047 0.367488 0.791625 -0.557694
O34   O     O_R   0.681130 0.023390 0.548100 -0.482657
O35   O     O_3   0.617262 0.106459 0.711646 -0.506327
O36   O     O_3   0.139025 0.087769 0.697977 -0.504258
O37   O     O_3   0.131123 0.099218 0.790097 -0.513942
O38   O     O_3   0.238915 0.288881 0.783274 -0.401174
O39   O     O_3   0.543498 0.291131 0.796551 -0.537698
O40   O     O_3   0.500010 0.000010 0.500010 -0.304777
O41   O     O_R   0.175070 0.138920 0.049300 -0.487100
O42   O     O_R   0.987530 0.169680 0.046430 -0.478446
O43   O     O_R   0.966170 0.322080 0.051780 -0.496709
O44   O     O_R   0.184260 0.509700 0.049190 -0.492659

loop_
_geom_bond_atom_site_label_1
_geom_bond_atom_site_label_2
_ccdc_geom_bond_type
C53   F20   S    
C20   F3    S    
C61   H28   S    
C62   O36   S    
C8    C13   S    
C23   C45   S    
C4    O15   A    
Cr6   O11   S    
Cr2   O13   S    
H15   O32   S    
C19   C20   S    
C68   F22   S    
C2    C12   T    
C3    F36   S    
C20   O24   S    
C53   C54   S    
C24   H12   S    
C40   C46   S    
H14   O31   S    
C26   C27   S    
C4    O14   A    
C32   O29   S    
C83   C84   T    
C79   O41   A    
C11   F35   S    
C76   C78   S    
Cr3   O40   S    
C48   O32   S    
C35   F7    S    
C42   F8    S    
C68   F29   S    
C79   O3    A    
C30   C31   T    
C13   F33   S    
H5    O22   S    
C49   O33   S    
C20   C25   S    
C77   C83   S    
C49   C54   S    
C48   F14   S    
H3    O20   S    
C1    C31   S    
C56   C78   S    
Cr2   O19   S    
C41   C42   S    
Cr4   O42   S    
C37   C42   S    
Cr5   O11   S    
C19   F2    S    
C52   C60   S    
Cr2   O40   S    
C23   F26   S    
C54   C55   S    
C61   C66   S    
C7    C14   T    
C63   C69   S    
C45   C56   S    
C70   F30   S    
C68   C69   S    
C38   F5    S    
C45   C67   S    
Cr1   O17   S    
C56   C64   S    
C70   C71   S    
C51   C57   S    
Cr1   O4    S    
C32   C38   S    
C4    C12   S    
H10   O28   S    
C9    C10   S    
Cr5   O8    S    
C3    F32   S    
C77   O2    A    
C47   C53   S    
C18   F38   S    
Cr4   O11   S    
C57   F16   S    
C28   C74   S    
C59   C60   T    
Cr2   O14   S    
C55   F19   S    
H18   O36   S    
C67   C78   S    
C34   C84   S    
C11   H1    S    
C44   C46   T    
C48   C51   S    
C73   C74   T    
C25   C29   S    
C38   C39   S    
Cr5   O43   S    
C47   F13   S    
C71   F27   S    
C50   C58   T    
C26   H22   S    
C19   C22   S    
Cr2   O12   S    
C24   C25   S    
C39   C41   S    
C3    C8    S    
C10   C14   S    
C13   F34   S    
C62   C66   S    
C33   H26   S    
C70   O39   S    
C47   C51   S    
C25   C26   S    
C38   O30   S    
C66   C73   S    
C21   C29   T    
C33   C37   S    
Cr4   O41   S    
Cr6   O2    S    
C69   C72   S    
C35   C39   S    
C27   O25   S    
C6    F23   S    
C62   C63   S    
C3    C9    S    
C24   H23   S    
C5    C8    S    
C40   O23   A    
C16   O16   A    
C9    F31   S    
C66   C71   S    
C36   C81   S    
C64   F37   S    
Cr3   O15   S    
C21   C79   S    
C63   O37   S    
Cr1   O18   S    
C64   C76   S    
C63   O38   S    
Cr1   O40   S    
C52   O34   A    
C32   C37   S    
C19   O22   S    
C80   O6    A    
C67   F10   S    
Cr3   O34   S    
H20   O38   S    
C23   C64   S    
C8    C15   S    
C22   C27   S    
C55   C57   S    
Cr6   O9    S    
C81   O8    A    
C18   C24   S    
C51   C59   S    
Cr6   O3    S    
C33   F6    S    
C9    O21   S    
C54   C58   S    
C75   O42   A    
C15   C17   T    
Cr5   O44   S    
C5    F12   S    
C48   C49   S    
C23   C34   S    
C81   O9    A    
C22   C30   S    
C71   F28   S    
C55   F21   S    
C16   O1    A    
C18   C22   S    
C1    O4    A    
C49   F15   S    
Cr6   O10   S    
C50   C80   S    
C34   C67   S    
C6    C10   S    
C80   O7    A    
C7    C75   S    
C28   O19   A    
H9    O27   S    
C82   O5    A    
C75   O43   A    
C65   C72   T    
H4    O21   S    
C45   F17   S    
C53   O31   S    
C82   O10   A    
C37   C44   S    
C26   H24   S    
C35   O28   S    
C27   O26   S    
C62   F25   S    
C2    C56   S    
C42   F9    S    
H21   O39   S    
C11   C13   S    
C61   C68   S    
C28   O18   A    
C65   C82   S    
C5    C6    S    
C6    O20   S    
C18   O27   S    
C78   F4    S    
Cr4   O6    S    
Cr3   O16   S    
C1    O13   A    
C33   C35   S    
C41   F11   S    
H19   O37   S    
C47   O35   S    
C69   C70   S    
C77   O44   A    
C40   O12   A    
C10   C11   S    
C76   F1    S    
Cr3   O23   S    
C32   H25   S    
C5    H2    S    
C57   F18   S    
C39   C43   S    
H16   O33   S    
H8    O26   S    
C61   F24   S    
Cr1   O1    S    
H7    O25   S    
C36   C43   T    
H13   O30   S    
H6    O24   S    
H11   O29   S    
C52   O17   A    
Cr5   O7    S    
H17   O35   S    
Cr4   O5    S    
C16   C17   S    
C34   C76   S    
C41   H27   S    
