data_mof_unit_37285.cif
_audit_creation_date              2012-12-10T19:52:20-0500
_audit_creation_method            fapswitch 2.2
_symmetry_space_group_name_H-M    P1
_symmetry_Int_Tables_number       1
_space_group_crystal_system       triclinic
_cell_length_a                    14.859515
_cell_length_b                    14.150813
_cell_length_c                    10.696208
_cell_angle_alpha                 89.902476
_cell_angle_beta                  88.871673
_cell_angle_gamma                 90.805333
_cell_volume                      2248.47413114

loop_
_atom_site_label
_atom_site_type_symbol
_atom_type_description
_atom_site_fract_x
_atom_site_fract_y
_atom_site_fract_z
_atom_type_partial_charge
C1    C     C_R   0.327738 0.499544 0.496872 0.872017
C2    C     C_3   0.598716 0.524420 0.920012 -0.121853
C3    C     C_R   0.103990 0.557669 0.371729 0.104134
C4    C     C_R   0.085585 0.440928 0.542153 0.120383
C5    C     C_R   0.196391 0.557067 0.389116 -0.242097
C6    C     C_R   0.178133 0.440322 0.554241 -0.263432
C7    C     C_R   0.232491 0.498904 0.480110 -0.079378
C8    C     C_R   0.048570 0.499865 0.449786 0.028351
C9    C     C_R   0.902124 0.435558 0.389463 -0.170173
C10   C     C_R   0.910943 0.579666 0.513039 -0.180733
C11   C     C_R   0.809901 0.432449 0.408572 -0.154761
C12   C     C_R   0.818550 0.577831 0.529743 -0.165676
C13   C     C_R   0.768479 0.502881 0.480198 -0.041658
C14   C     C_R   0.952276 0.507614 0.444983 0.110589
C15   C     C_R   0.456298 0.104675 0.406570 -0.270708
C16   C     C_R   0.427131 0.893810 0.452773 -0.270941
C17   C     C_R   0.501007 0.500021 0.257771 0.818215
C18   C     C_R   0.456892 0.203992 0.408406 0.023669
C19   C     C_R   0.428728 0.794542 0.452937 0.031393
C20   C     C_R   0.543272 0.205153 0.591551 -0.006724
C21   C     C_R   0.571083 0.796433 0.547578 0.010935
C22   C     C_R   0.543596 0.105862 0.593949 -0.268216
C23   C     C_R   0.572552 0.895771 0.548300 -0.260028
C24   C     C_R   0.499874 0.053407 0.500408 0.137342
C25   C     C_R   0.499840 0.946653 0.500559 0.135290
C26   C     C_R   0.672528 0.500699 0.497251 0.841908
C27   C     C_R   0.495704 0.499502 0.742252 0.809786
C28   C     C_3   0.424026 0.560674 0.076158 -0.387825
C29   C     C_3   0.488173 0.397276 0.073933 -0.443953
C30   C     C_3   0.430557 0.574663 0.933591 -0.057506
C31   C     C_3   0.468996 0.396392 0.933422 -0.007942
C32   C     C_3   0.598493 0.538605 0.069408 -0.080133
C33   C     C_3   0.504247 0.500048 0.121391 -0.029967
C34   C     C_3   0.496881 0.498609 0.878791 -0.066433
H1    H     H_    0.421270 0.630973 0.122214 0.209479
H2    H     H_    0.546839 0.352066 0.093098 0.202509
H3    H     H_    0.771085 0.375291 0.367951 0.152271
H4    H     H_    0.786548 0.632914 0.584215 0.170436
H5    H     H_    0.422940 0.068680 0.330900 0.135169
H6    H     H_    0.368591 0.928549 0.416870 0.131130
H7    H     H_    0.423050 0.242419 0.335989 0.120276
H8    H     H_    0.372552 0.755081 0.415527 0.125210
H9    H     H_    0.577159 0.244524 0.663829 0.138179
H10   H     H_    0.627228 0.758395 0.584869 0.132262
H11   H     H_    0.576908 0.070787 0.669763 0.142573
H12   H     H_    0.631030 0.932110 0.584442 0.140215
H13   H     H_    0.360163 0.523878 0.104642 0.148732
H14   H     H_    0.431328 0.364415 0.128692 0.176708
H15   H     H_    0.463001 0.644645 0.918145 0.198324
H16   H     H_    0.513224 0.342079 0.890891 0.192470
H17   H     H_    0.240568 0.600992 0.330824 0.137866
H18   H     H_    0.207464 0.396791 0.624922 0.157498
H19   H     H_    0.934957 0.379490 0.337853 0.131804
H20   H     H_    0.950632 0.634738 0.556908 0.136215
N1    N     N_R   0.499980 0.252470 0.500000 -0.095884
N2    N     N_R   0.499980 0.747530 0.500000 -0.098105
O1    O     O_R   0.369070 0.579480 0.500010 -0.622582
O2    O     O_R   0.369070 0.420520 0.500010 -0.625929
O3    O     O_R   0.499990 0.579480 0.314790 -0.620026
O4    O     O_R   0.499990 0.420520 0.314790 -0.633844
O5    O     O_R   0.630940 0.579480 0.499990 -0.627671
O6    O     O_R   0.630940 0.420520 0.499990 -0.620733
O7    O     O_R   0.500020 0.579480 0.685200 -0.642033
O8    O     O_R   0.500020 0.420520 0.685200 -0.645897
Zn1   Zn    Zn3+2 0.500010 0.606140 0.500000 0.932126
Zn2   Zn    Zn3+2 0.500010 0.393860 0.500000 0.920844
C35   C     C_3   0.335525 0.580639 0.872830 -0.416826
C36   C     C_3   0.315415 0.680322 0.824558 -0.342201
C37   C     C_3   0.222713 0.683920 0.765724 -0.876970
H21   H     H_    0.219371 0.635210 0.684684 0.271211
H22   H     H_    0.169452 0.663620 0.835369 0.256803
H23   H     H_    0.209957 0.756801 0.732526 0.250435
H24   H     H_    0.317687 0.731288 0.903461 0.221659
H25   H     H_    0.367038 0.702060 0.753146 0.246413
H26   H     H_    0.329513 0.531221 0.793245 0.203032
H27   H     H_    0.280854 0.560839 0.940653 0.197623
C38   C     C_3   0.371049 0.356146 0.916226 -0.459468
C39   C     C_3   0.349671 0.318289 0.786100 -0.294725
C40   C     C_3   0.262772 0.259143 0.788019 -0.945402
H28   H     H_    0.269919 0.195869 0.848417 0.268508
H29   H     H_    0.205510 0.301744 0.823592 0.261827
H30   H     H_    0.247968 0.234894 0.691806 0.258417
H31   H     H_    0.341174 0.378221 0.721925 0.238741
H32   H     H_    0.405130 0.273074 0.751286 0.241097
H33   H     H_    0.362621 0.293657 0.978992 0.210503
H34   H     H_    0.319141 0.406147 0.948112 0.208091
C41   C     C_2   0.612116 0.642054 0.111951 0.472823
H35   H     H_    0.659146 0.658802 0.185606 0.095346
O9    O     O_2   0.569107 0.707139 0.069461 -0.624185
C42   C     C_2   0.676226 0.486411 0.129736 0.384018
H36   H     H_    0.663739 0.428864 0.195122 0.069514
O10   O     O_2   0.754366 0.508855 0.105230 -0.541547
C43   C     C_2   0.637396 0.614348 0.856817 0.362915
H37   H     H_    0.594271 0.668869 0.821524 0.114740
O11   O     O_2   0.718544 0.630086 0.853467 -0.568071
C44   C     C_2   0.660539 0.445194 0.870411 0.484981
H38   H     H_    0.690821 0.451604 0.777378 0.067269
O12   O     O_2   0.673257 0.372179 0.928064 -0.614792
C45   C     C_3   0.066810 0.620730 0.270969 -0.425951
C46   C     C_3   0.050685 0.564859 0.150616 -0.343348
C47   C     C_3   0.013112 0.628144 0.049032 -0.816286
H39   H     H_    0.946626 0.655982 0.079197 0.291010
H40   H     H_    0.060123 0.688190 0.028742 0.244504
H41   H     H_    0.004410 0.586885 0.961922 0.249769
H42   H     H_    0.115240 0.534636 0.116137 0.208767
H43   H     H_    0.002259 0.505751 0.169280 0.240677
H44   H     H_    0.003491 0.654148 0.303880 0.214192
H45   H     H_    0.115061 0.679747 0.249975 0.193179
C48   C     C_3   0.029203 0.382496 0.634451 -0.424469
C49   C     C_3   0.018072 0.434913 0.759078 -0.370905
C50   C     C_3   0.959176 0.378212 0.851450 -0.799549
H46   H     H_    0.890717 0.367312 0.813586 0.280417
H47   H     H_    0.989686 0.308491 0.870032 0.248202
H48   H     H_    0.953023 0.417187 0.941124 0.264195
H49   H     H_    0.085132 0.447614 0.800788 0.216499
H50   H     H_    0.986422 0.504458 0.742969 0.239291
H51   H     H_    0.961989 0.364625 0.597502 0.216499
H52   H     H_    0.062565 0.313775 0.650664 0.198059

loop_
_geom_bond_atom_site_label_1
_geom_bond_atom_site_label_2
_ccdc_geom_bond_type
C19   N2    A    
C15   C18   A    
C4    C48   S    
O7    Zn1   S    
C28   H13   S    
C43   H37   S    
C50   H46   S    
C4    C8    A    
C20   H9    S    
C48   H51   S    
C38   C39   S    
C45   H45   S    
C29   H2    S    
C46   H42   S    
C47   H39   S    
C26   O5    A    
C36   H25   S    
N2    Zn1   S    
C3    C45   S    
C29   C33   S    
C2    C32   S    
C11   H3    S    
C49   C50   S    
C39   H31   S    
O2    Zn2   S    
C32   C42   S    
C28   H1    S    
C36   C37   S    
C44   O12   D    
C30   C35   S    
C19   H8    S    
C2    C34   S    
C38   H33   S    
C43   O11   D    
C23   H12   S    
C17   C33   S    
C20   N1    A    
C48   H52   S    
C31   C38   S    
C27   C34   S    
C37   H22   S    
O6    Zn2   S    
C29   H14   S    
C35   C36   S    
C24   C25   S    
C4    C6    A    
C3    C8    A    
C10   C14   A    
C18   H7    S    
C5    C7    A    
C30   C34   S    
C39   C40   S    
C36   H24   S    
C32   C41   S    
O8    Zn2   S    
C37   H23   S    
C9    C14   A    
C1    O1    A    
C40   H30   S    
C21   H10   S    
C42   O10   D    
C45   C46   S    
C44   H38   S    
C31   C34   S    
C50   H47   S    
C9    C11   A    
C15   H5    S    
C10   C12   A    
C18   N1    A    
C17   O3    A    
C15   C24   A    
C30   H15   S    
C20   C22   A    
C28   C33   S    
C47   H41   S    
C21   C23   A    
C22   C24   A    
C13   C26   S    
C35   H26   S    
C31   H16   S    
C49   H50   S    
C16   H6    S    
N1    Zn2   S    
C40   H29   S    
C16   C25   A    
C8    C14   S    
C1    C7    S    
C2    C43   S    
C5    H17   S    
O1    Zn1   S    
C3    C5    A    
C38   H34   S    
C21   N2    A    
C6    C7    A    
C45   H44   S    
C46   H43   S    
C32   C33   S    
C2    C44   S    
C26   O6    A    
C29   C31   S    
C48   C49   S    
O3    Zn1   S    
C11   C13   A    
C42   H36   S    
C16   C19   A    
C28   C30   S    
C46   C47   S    
C50   H48   S    
C23   C25   A    
O5    Zn1   S    
C12   H4    S    
C37   H21   S    
C10   H20   S    
C27   O8    A    
C17   O4    A    
O4    Zn2   S    
C40   H28   S    
C39   H32   S    
C22   H11   S    
C9    H19   S    
C12   C13   A    
C41   H35   S    
C47   H40   S    
C41   O9    D    
C27   O7    A    
C35   H27   S    
C6    H18   S    
C1    O2    A    
C49   H49   S    
