data_mof_unit_57491.cif
_audit_creation_date              2013-03-05T16:06:21-0500
_audit_creation_method            fapswitch 2.2
_symmetry_space_group_name_H-M    P1
_symmetry_Int_Tables_number       1
_space_group_crystal_system       triclinic
_cell_length_a                    10.817407
_cell_length_b                    9.639168
_cell_length_c                    27.756315
_cell_angle_alpha                 89.999986
_cell_angle_beta                  89.998271
_cell_angle_gamma                 89.999657
_cell_volume                      2894.17326303

loop_
_atom_site_label
_atom_site_type_symbol
_atom_site_description
_atom_site_fract_x
_atom_site_fract_y
_atom_site_fract_z
_atom_type_partial_charge
O1    O     O_R   0.319640 0.618740 0.500000 -0.583724
O2    O     O_R   0.680360 0.381260 0.500000 -0.575934
O3    O     O_R   0.680360 0.618740 0.500000 -0.583705
O4    O     O_R   0.319640 0.381260 0.500000 -0.575956
C1    C     C_R   0.262443 0.500049 0.500080 0.758588
C2    C     C_R   0.737557 0.500048 0.499920 0.758603
O5    O     O_R   0.500020 0.618770 0.430260 -0.539758
O6    O     O_R   0.499980 0.381230 0.569740 -0.523283
O7    O     O_R   0.499980 0.618770 0.569740 -0.539761
O8    O     O_R   0.500020 0.381230 0.430260 -0.523286
C3    C     C_R   0.498140 0.499546 0.407708 0.811239
C4    C     C_R   0.501854 0.499546 0.592292 0.811254
Cu1   Cu    Cu3+1 0.500000 0.640660 0.500000 0.978740
Cu2   Cu    Cu3+1 0.500000 0.359340 0.500000 0.997628
C5    C     C_R   0.379427 0.473082 0.177132 0.584649
C6    C     C_R   0.620474 0.472947 0.822867 0.584587
O9    O     O_2   0.271940 0.454238 0.200925 -0.558776
O10   O     O_2   0.727941 0.453952 0.799074 -0.558870
N1    N     N_R   0.487255 0.488826 0.202338 -0.444612
N2    N     N_R   0.512665 0.488843 0.797661 -0.444598
C7    C     C_R   0.598248 0.502752 0.179154 0.548695
C8    C     C_R   0.401686 0.502915 0.820844 0.548721
C9    C     C_R   0.542386 0.382994 0.279662 -0.198612
C10   C     C_R   0.457466 0.383061 0.720337 -0.198572
C11   C     C_R   0.546213 0.385959 0.329727 -0.207651
C12   C     C_R   0.453664 0.386019 0.670271 -0.207716
C13   C     C_R   0.431046 0.601492 0.329642 -0.366235
C14   C     C_R   0.568986 0.601447 0.670359 -0.366124
C15   C     C_R   0.425431 0.598793 0.278958 0.489475
C16   C     C_R   0.574581 0.598748 0.721042 0.489486
C17   C     C_R   0.484514 0.490134 0.254080 0.298372
C18   C     C_R   0.515410 0.490150 0.745919 0.298341
C19   C     C_R   0.493546 0.488112 0.101977 -0.044088
C20   C     C_R   0.506371 0.488123 0.898022 -0.044085
C21   C     C_R   0.380255 0.475368 0.126566 -0.027971
C22   C     C_R   0.619649 0.475230 0.873433 -0.027948
C23   C     C_R   0.270614 0.463970 0.100287 -0.156571
C24   C     C_R   0.729276 0.463679 0.899711 -0.156590
C25   C     C_R   0.603662 0.500572 0.128649 -0.023524
C26   C     C_R   0.396268 0.500735 0.871349 -0.023527
C27   C     C_R   0.492604 0.496542 0.354959 -0.075507
C28   C     C_R   0.507366 0.496547 0.645041 -0.075554
H1    H     H_    0.387476 0.684608 0.349434 0.189358
H2    H     H_    0.612626 0.684522 0.650569 0.189298
H3    H     H_    0.182402 0.452151 0.118321 0.181785
H4    H     H_    0.817476 0.451744 0.881678 0.181794
C29   C     C_R   0.387553 0.492807 0.973401 0.042113
C30   C     C_R   0.612368 0.492652 0.026598 0.042116
C31   C     C_R   0.615580 0.483389 0.975547 0.043753
C32   C     C_R   0.384331 0.483539 0.024452 0.043753
C33   C     C_R   0.503159 0.488127 0.949185 0.070523
C34   C     C_R   0.496757 0.488121 0.050814 0.070523
C35   C     C_R   0.278894 0.507909 0.945520 -0.205731
C36   C     C_R   0.721042 0.507604 0.054478 -0.205729
C37   C     C_R   0.283471 0.512230 0.895524 -0.146513
C38   C     C_R   0.716470 0.511921 0.104474 -0.146498
O11   O     O_2   0.296930 0.519706 0.795070 -0.544277
O12   O     O_2   0.703022 0.519401 0.204929 -0.544241
C39   C     C_R   0.272295 0.468472 0.050254 -0.202884
C40   C     C_R   0.727600 0.468175 0.949745 -0.202893
H5    H     H_    0.406518 0.303344 0.651275 0.170786
H6    H     H_    0.593306 0.303242 0.348722 0.170891
H7    H     H_    0.413803 0.298240 0.739446 0.165300
H8    H     H_    0.585980 0.298129 0.260553 0.165321
H9    H     H_    0.197610 0.524169 0.875854 0.184183
H10   H     H_    0.802345 0.523743 0.124145 0.184192
H11   H     H_    0.188602 0.520451 0.961305 0.135551
H12   H     H_    0.811348 0.520030 0.038694 0.135540
H13   H     H_    0.184066 0.456071 0.032778 0.135151
H14   H     H_    0.815815 0.455652 0.967221 0.135165
C41   C     C_R   0.063863 0.374366 0.500266 -0.190012
C42   C     C_R   0.936051 0.626391 0.499992 -0.190206
C43   C     C_R   0.936138 0.374365 0.499739 -0.190030
C44   C     C_R   0.063947 0.626391 0.499998 -0.190210
H15   H     H_    0.111646 0.275835 0.500783 0.142601
H16   H     H_    0.888012 0.724997 0.500033 0.143529
H17   H     H_    0.888355 0.275835 0.499228 0.142617
H18   H     H_    0.111986 0.724997 0.499951 0.143529
C45   C     C_R   0.871599 0.500279 0.499854 -0.011532
C46   C     C_R   0.128401 0.500280 0.500144 -0.011518
C47   C     C_R   0.453777 0.074842 0.461952 0.362129
C48   C     C_R   0.529259 0.928240 0.540657 0.339833
C49   C     C_R   0.546226 0.074843 0.538048 0.362113
C50   C     C_R   0.470752 0.928242 0.459342 0.339816
N3    N     N_R   0.500000 0.852070 0.500000 -0.275846
N4    N     N_R   0.500000 0.147930 0.500000 -0.274364
O13   O     O_3   0.402390 0.145660 0.423694 -0.532496
C51   C     C_3   0.275730 0.112203 0.419742 0.092053
H19   H     H_    0.228528 0.113418 0.455436 0.106125
H20   H     H_    0.263875 0.008234 0.403030 0.167231
C52   C     C_3   0.213208 0.218778 0.387489 -0.771859
H21   H     H_    0.256263 0.217732 0.351151 0.250741
H22   H     H_    0.113351 0.194066 0.383993 0.194358
H23   H     H_    0.223078 0.324116 0.403242 0.248349
O14   O     O_3   0.539526 0.865874 0.585206 -0.564187
C53   C     C_3   0.432617 0.896209 0.613281 0.123946
H24   H     H_    0.384429 0.797408 0.621595 0.169708
H25   H     H_    0.362748 0.964214 0.595269 0.093595
C54   C     C_3   0.469149 0.963640 0.660924 -0.793275
H26   H     H_    0.509627 0.067636 0.654839 0.270540
H27   H     H_    0.386059 0.975635 0.684041 0.206066
H28   H     H_    0.537536 0.899032 0.680287 0.261941
O15   O     O_3   0.597638 0.145664 0.576300 -0.532487
C55   C     C_3   0.724293 0.112176 0.580252 0.092159
H29   H     H_    0.771490 0.113357 0.544556 0.106084
H30   H     H_    0.736132 0.008216 0.596970 0.167318
C56   C     C_3   0.786838 0.218749 0.612497 -0.771937
H31   H     H_    0.743776 0.217741 0.648834 0.250771
H32   H     H_    0.886687 0.194001 0.615999 0.194355
H33   H     H_    0.777001 0.324080 0.596736 0.248344
O16   O     O_3   0.460592 0.865900 0.414785 -0.564156
C57   C     C_3   0.567589 0.896232 0.386760 0.124042
H34   H     H_    0.615832 0.797439 0.378482 0.169662
H35   H     H_    0.637377 0.964285 0.404797 0.093592
C58   C     C_3   0.531199 0.963614 0.339092 -0.793541
H36   H     H_    0.490304 0.067415 0.345155 0.270671
H37   H     H_    0.614429 0.976021 0.316078 0.206001
H38   H     H_    0.463199 0.898746 0.319629 0.261943
O17   O     O_3   0.373325 0.706320 0.252572 -0.579875
C59   C     C_3   0.251774 0.735043 0.268449 0.067358
H39   H     H_    0.254012 0.803607 0.300628 0.131591
H40   H     H_    0.199298 0.638521 0.277102 0.171434
C60   C     C_3   0.182742 0.810895 0.228648 -0.712615
H41   H     H_    0.178160 0.744962 0.195870 0.262457
H42   H     H_    0.087231 0.835009 0.240692 0.197773
H43   H     H_    0.230911 0.909388 0.219751 0.245737
O18   O     O_3   0.626768 0.706228 0.747425 -0.579871
C61   C     C_3   0.748405 0.734677 0.731589 0.067389
H44   H     H_    0.746360 0.803161 0.699387 0.131470
H45   H     H_    0.800758 0.638034 0.722985 0.171531
C62   C     C_3   0.817446 0.810493 0.771395 -0.712624
H46   H     H_    0.821821 0.744640 0.804197 0.262425
H47   H     H_    0.913032 0.834372 0.759385 0.197819
H48   H     H_    0.769415 0.909111 0.780238 0.245728

loop_
_geom_bond_atom_site_label_1
_geom_bond_atom_site_label_2
_geom_bond_distance
_ccdc_geom_bond_type
C41   H15   1.081393 S    
O13   C51   1.411850 S    
C13   C15   1.408340 A    
O14   C53   1.424820 S    
O16   C57   1.424832 S    
C42   H16   1.083259 S    
C62   H48   1.110777 S    
N1    C17   1.436544 S    
C61   H44   1.111366 S    
C8    O11   1.349878 S    
C57   H35   1.118442 S    
C60   H41   1.110903 S    
C19   C34   1.420523 A    
O5    C3    1.308800 A    
C15   O17   1.388670 S    
C20   C33   1.420520 A    
C19   C25   1.407646 A    
C31   C40   1.415172 A    
C49   O15   1.379353 S    
O1    C1    1.300681 A    
C32   C39   1.415174 A    
N1    C7    1.368806 A    
C12   H5    1.083148 S    
C10   C12   1.390558 A    
C42   C45   1.401370 A    
C60   H42   1.110503 S    
C36   H12   1.077284 S    
C58   H36   1.106856 S    
C53   C54   1.525595 S    
C14   C28   1.400221 A    
O7    Cu1   1.947191 S    
C41   C46   1.400177 A    
C4    C28   1.465613 S    
C5    N1    1.368606 A    
C25   C38   1.396881 A    
C58   H37   1.110370 S    
C53   H25   1.118431 S    
C32   C34   1.420012 A    
C56   H31   1.110978 S    
C20   C22   1.408100 A    
C47   N4    1.364436 A    
O3    Cu1   1.962434 S    
C59   C60   1.520752 S    
C6    N2    1.368602 A    
C29   C35   1.414805 A    
C26   C37   1.396880 A    
C44   C46   1.401368 A    
Cu1   Cu2   2.711691 S    
C56   H32   1.110396 S    
O2    C2    1.301501 A    
O2    Cu2   1.962437 S    
C5    C21   1.403710 A    
C55   H29   1.114623 S    
C37   H9    1.083524 S    
C59   H40   1.116036 S    
C29   C32   1.420231 A    
C35   C37   1.389213 A    
C36   C38   1.389208 A    
C50   O16   1.379394 S    
C50   N3    1.383032 A    
Cu2   N4    2.037817 S    
C42   C44   1.383506 A    
O8    Cu2   1.947191 S    
C11   C27   1.401047 A    
C52   H21   1.110977 S    
C41   C43   1.381726 A    
C60   H43   1.110778 S    
C29   C33   1.420448 A    
C31   C33   1.420013 A    
C14   H2    1.079726 S    
C9    C17   1.400948 A    
C30   C36   1.414804 A    
C10   C18   1.400945 A    
C52   H22   1.110397 S    
C13   C27   1.400221 A    
C54   H26   1.106856 S    
C7    C25   1.403209 A    
C51   C52   1.521242 S    
C40   H14   1.077275 S    
O6    C4    1.301115 A    
C58   H38   1.106300 S    
C8    C26   1.403213 A    
C53   H24   1.109935 S    
C49   N4    1.364432 A    
C43   C45   1.400175 A    
C47   O13   1.379344 S    
C55   C56   1.521235 S    
C1    C46   1.449987 S    
C23   C39   1.389539 A    
C39   H13   1.077275 S    
C24   C40   1.389537 A    
C9    H8    1.082982 S    
C54   H27   1.110368 S    
C51   H20   1.111730 S    
C10   H7    1.082982 S    
C56   H33   1.110660 S    
C20   C26   1.407646 A    
O1    Cu1   1.962437 S    
C23   H3    1.083534 S    
C62   H46   1.110904 S    
C61   C62   1.520752 S    
C47   C50   1.426818 A    
C59   H39   1.111369 S    
C12   C28   1.401046 A    
N2    C18   1.436531 S    
C5    O9    1.349460 S    
C16   O18   1.388640 S    
C30   C31   1.420228 A    
O6    Cu2   1.947191 S    
C48   O14   1.379391 S    
C21   C23   1.396716 A    
N2    C8    1.368806 A    
O4    C1    1.301499 A    
C62   H47   1.110503 S    
C61   H45   1.116038 S    
O17   C59   1.414108 S    
C55   H30   1.111721 S    
C48   N3    1.383035 A    
C22   C24   1.396711 A    
C7    O12   1.349878 S    
C15   C17   1.407931 A    
C6    C22   1.403707 A    
C52   H23   1.110664 S    
C16   C18   1.407928 A    
C2    C45   1.449988 S    
C38   H10   1.083524 S    
C14   C16   1.408311 A    
C19   C21   1.408102 A    
C3    C27   1.465632 S    
C57   H34   1.109940 S    
C11   H6    1.083147 S    
C9    C11   1.390551 A    
O4    Cu2   1.962434 S    
C35   H11   1.077284 S    
O7    C4    1.308791 A    
C24   H4    1.083534 S    
O8    C3    1.301116 A    
C13   H1    1.079719 S    
O5    Cu1   1.947192 S    
C54   H28   1.106323 S    
C51   H19   1.114625 S    
C6    O10   1.349456 S    
C48   C49   1.426839 A    
C44   H18   1.083261 S    
O3    C2    1.300677 A    
Cu1   N3    2.037817 S    
O15   C55   1.411855 S    
C43   H17   1.081393 S    
C30   C34   1.420445 A    
C57   C58   1.525578 S    
O18   C61   1.414111 S    
