data_mof_unit_32528.cif
_audit_creation_date              2012-12-10T18:13:31-0500
_audit_creation_method            fapswitch 2.2
_symmetry_space_group_name_H-M    P1
_symmetry_Int_Tables_number       1
_space_group_crystal_system       triclinic
_cell_length_a                    12.826144
_cell_length_b                    13.117936
_cell_length_c                    16.367375
_cell_angle_alpha                 85.459995
_cell_angle_beta                  98.178134
_cell_angle_gamma                 97.854295
_cell_volume                      2695.2633737

loop_
_atom_site_label
_atom_site_type_symbol
_atom_type_description
_atom_site_fract_x
_atom_site_fract_y
_atom_site_fract_z
_atom_type_partial_charge
C1    C     C_R   0.559093 0.690939 0.512143 0.871704
C2    C     C_R   0.573887 0.450767 0.219890 0.177496
C3    C     C_R   0.635350 0.637113 0.843335 -0.156973
C4    C     C_R   0.612248 0.594044 0.767176 -0.235155
C5    C     C_R   0.422594 0.595580 0.769520 0.145692
C6    C     C_R   0.448574 0.640840 0.846131 -0.141867
C7    C     C_R   0.553072 0.656507 0.884517 0.135413
C8    C     C_2   0.624366 0.612861 0.025788 -0.186211
C9    C     C_2   0.570458 0.676263 0.972603 -0.222597
C10   C     C_R   0.506608 0.565096 0.731473 -0.123658
C11   C     C_R   0.282573 0.052614 0.508731 -0.215784
C12   C     C_R   0.512719 0.498758 0.348619 0.857800
C13   C     C_R   0.404716 0.200003 0.474221 -0.136532
C14   C     C_R   0.702199 0.837069 0.515023 -0.237497
C15   C     C_R   0.738935 0.941044 0.516471 0.211003
C16   C     C_R   0.667662 0.013147 0.520130 0.115302
C17   C     C_R   0.556791 0.975854 0.523829 0.003931
C18   C     C_R   0.528552 0.868997 0.539815 0.015011
C19   C     C_R   0.471478 0.037147 0.511546 0.069470
C20   C     C_R   0.368782 0.995477 0.531914 0.083607
C21   C     C_R   0.353908 0.895964 0.570364 0.143116
C22   C     C_R   0.433478 0.833305 0.572551 -0.191575
C23   C     C_R   0.440941 0.309661 0.484902 0.905424
C24   C     C_R   0.482413 0.136550 0.474447 -0.302827
C25   C     C_R   0.299718 0.154487 0.477784 0.230009
C26   C     C_R   0.597078 0.800141 0.524415 -0.149176
C27   C     C_R   0.904366 0.362873 0.635022 0.103993
C28   C     C_R   0.206080 0.602761 0.383596 -0.028744
C29   C     C_R   0.103074 0.596119 0.343489 0.137044
C30   C     C_R   0.021276 0.546204 0.384636 -0.152038
C31   C     C_R   0.040080 0.513274 0.468849 -0.006861
C32   C     C_R   0.147528 0.504804 0.502194 0.170493
C33   C     C_R   0.956505 0.476549 0.517076 -0.073146
C34   C     C_R   0.492089 0.515377 0.650755 0.866494
C35   C     C_R   0.982535 0.423128 0.594085 0.060650
C36   C     C_R   0.087578 0.426880 0.628657 -0.275104
C37   C     C_R   0.167459 0.449266 0.580307 0.176346
C38   C     C_R   0.849554 0.495418 0.495963 0.188768
C39   C     C_R   0.798331 0.378240 0.608884 0.196313
C40   C     C_R   0.527006 0.519000 0.262053 -0.029853
C41   C     C_R   0.514328 0.618293 0.227457 -0.218052
C42   C     C_R   0.549896 0.651775 0.152485 -0.130511
C43   C     C_R   0.596362 0.585169 0.109667 0.158559
C44   C     C_R   0.608169 0.485243 0.143755 -0.186756
H1    H     H_    0.482007 0.672158 0.260854 0.155131
H2    H     H_    0.387457 0.658527 0.879910 0.149021
H3    H     H_    0.201618 0.018399 0.512301 0.191723
H4    H     H_    0.551406 0.168332 0.446801 0.200792
H5    H     H_    0.757943 0.784677 0.508744 0.219890
H6    H     H_    0.420982 0.756143 0.601148 0.162804
H7    H     H_    0.678477 0.583817 0.736082 0.179886
H8    H     H_    0.107701 0.398173 0.691790 0.183895
H9    H     H_    0.271166 0.637038 0.351041 0.160449
H10   H     H_    0.944734 0.528923 0.348609 0.188513
H11   H     H_    0.514902 0.720227 0.993891 0.148759
H12   H     H_    0.642541 0.433311 0.109967 0.129220
H13   H     H_    0.717283 0.652412 0.871239 0.149022
H14   H     H_    0.672244 0.562738 0.001809 0.155919
H15   H     H_    0.542247 0.730236 0.129168 0.140766
N1    N     N_R   0.774070 0.445420 0.541180 -0.152364
N2    N     N_R   0.226730 0.554050 0.459240 -0.151619
O1    O     O_R   0.631480 0.627510 0.519670 -0.584285
O2    O     O_R   0.455770 0.662400 0.493360 -0.621640
O3    O     O_R   0.598240 0.480510 0.398910 -0.586800
O4    O     O_R   0.422540 0.515400 0.372600 -0.612950
O5    O     O_R   0.544230 0.337600 0.506640 -0.646467
O6    O     O_R   0.368520 0.372490 0.480330 -0.543828
O7    O     O_R   0.577460 0.484600 0.627400 -0.609972
O8    O     O_R   0.401760 0.519490 0.601090 -0.609638
Zn1   Zn    Zn3+2 0.617320 0.476700 0.517570 0.946702
Zn2   Zn    Zn3+2 0.382680 0.523300 0.482430 0.966026
I1    I     I_    0.164592 0.224394 0.421535 -0.306501
C45   C     C_3   0.255502 0.854016 0.609704 -0.448997
C46   C     C_3   0.177099 0.785783 0.551956 -0.783216
H16   H     H_    0.151037 0.830180 0.493777 0.278100
H17   H     H_    0.214909 0.719813 0.537069 0.251772
H18   H     H_    0.106369 0.755449 0.582651 0.260967
H19   H     H_    0.278938 0.808197 0.667714 0.212157
H20   H     H_    0.215861 0.916834 0.628524 0.223671
C47   C     C_3   0.716212 0.123173 0.535472 -0.423210
C48   C     C_3   0.754105 0.182940 0.458199 -0.795243
H21   H     H_    0.840667 0.183135 0.458820 0.286542
H22   H     H_    0.711914 0.149569 0.400394 0.257334
H23   H     H_    0.739299 0.264438 0.457038 0.244773
H24   H     H_    0.660021 0.164624 0.560498 0.203303
H25   H     H_    0.783969 0.122902 0.585809 0.227884
I2    I     I_    0.905744 0.978835 0.514782 -0.420554
C49   C     C_3   0.714924 0.328347 0.662534 -0.337877
C50   C     C_3   0.728943 0.374525 0.747366 -0.852105
H26   H     H_    0.774101 0.452832 0.745744 0.253255
H27   H     H_    0.650205 0.378086 0.766990 0.261133
H28   H     H_    0.772600 0.326212 0.795518 0.236423
H29   H     H_    0.634333 0.330770 0.633108 0.269402
H30   H     H_    0.715797 0.244298 0.672151 0.150315
C51   C     C_3   0.935253 0.279545 0.702983 -0.427197
C52   C     C_3   0.991567 0.197781 0.670802 -0.781240
H31   H     H_    0.980873 0.200335 0.602099 0.293319
H32   H     H_    0.959677 0.119261 0.693732 0.248359
H33   H     H_    0.077537 0.209206 0.693991 0.273864
H34   H     H_    0.985047 0.315753 0.756762 0.201367
H35   H     H_    0.868430 0.236115 0.730890 0.213667
I3    I     I_    0.807327 0.623883 0.414520 -0.335288
I4    I     I_    0.072233 0.652565 0.219342 -0.351383
I5    I     I_    0.264185 0.328973 0.624384 -0.403165
C53   C     C_3   0.307113 0.576965 0.731215 -0.392623
C54   C     C_3   0.224313 0.613309 0.777364 -0.921905
H36   H     H_    0.221196 0.569612 0.838123 0.268922
H37   H     H_    0.241867 0.697245 0.786144 0.260387
H38   H     H_    0.144664 0.599037 0.740489 0.264666
H39   H     H_    0.298275 0.615923 0.668451 0.232651
H40   H     H_    0.286693 0.493084 0.728132 0.240136
C55   C     C_3   0.587828 0.341750 0.254039 -0.450191
C56   C     C_3   0.481018 0.274566 0.255947 -0.837938
H41   H     H_    0.432859 0.304662 0.297580 0.250057
H42   H     H_    0.436123 0.271936 0.192739 0.272286
H43   H     H_    0.494443 0.194899 0.279079 0.254264
H44   H     H_    0.634807 0.304812 0.215339 0.214815
H45   H     H_    0.633309 0.342238 0.316943 0.231167

loop_
_geom_bond_atom_site_label_1
_geom_bond_atom_site_label_2
_ccdc_geom_bond_type
C53   H39   S    
C45   C46   S    
C27   C51   S    
C51   C52   S    
C18   C26   A    
C8    C43   S    
C1    O1    A    
C29   I4    S    
C48   H21   S    
C5    C53   S    
C30   H10   S    
C2    C55   S    
C47   H24   S    
C46   H17   S    
C5    C6    A    
C23   O5    A    
C36   C37   A    
C32   N2    A    
C3    C7    A    
C30   C31   A    
C12   O3    A    
C14   H5    S    
C54   H36   S    
C11   C25   A    
C15   C16   A    
C52   H33   S    
C21   C45   S    
O1    Zn1   S    
C41   C42   A    
C23   O6    A    
O8    Zn2   S    
C47   H25   S    
C8    H14   S    
C11   H3    S    
C19   C20   A    
C2    C44   A    
C8    C9    D    
C46   H18   S    
C52   H32   S    
C45   H19   S    
C31   C33   A    
C9    H11   S    
O3    Zn1   S    
C50   H27   S    
C36   H8    S    
C22   H6    S    
C56   H43   S    
C28   N2    A    
N2    Zn2   S    
C53   H40   S    
C21   C22   A    
C13   C25   A    
C39   C49   S    
C1    O2    A    
C55   C56   S    
C48   H22   S    
C13   C23   S    
C49   H30   S    
C11   C20   A    
C46   H16   S    
C4    H7    S    
C24   H4    S    
C27   C39   A    
C51   H34   S    
C16   C17   A    
C27   C35   A    
O4    Zn2   S    
C13   C24   A    
C16   C47   S    
C35   C36   A    
C12   C40   S    
C43   C44   A    
C29   C30   A    
C44   H12   S    
C31   C32   A    
N1    Zn1   S    
C52   H31   S    
C20   C21   A    
C17   C18   A    
C45   H20   S    
C10   C34   S    
C25   I1    S    
C32   C37   A    
C14   C26   A    
C50   H28   S    
C34   O8    A    
C38   N1    A    
C3    H13   S    
C40   C41   A    
O2    Zn2   S    
C1    C26   S    
C42   C43   A    
C4    C10   A    
C3    C4    A    
C48   H23   S    
C15   I2    S    
C56   H41   S    
C12   O4    A    
C7    C9    S    
C49   H29   S    
C28   C29   A    
C6    H2    S    
C18   C22   A    
C47   C48   S    
C42   H15   S    
C37   I5    S    
C28   H9    S    
C6    C7    A    
C53   C54   S    
O5    Zn1   S    
C33   C38   A    
C19   C24   A    
C5    C10   A    
C38   I3    S    
C34   O7    A    
C55   H45   S    
C33   C35   A    
C55   H44   S    
C54   H37   S    
C39   N1    A    
C17   C19   A    
O6    Zn2   S    
C2    C40   A    
C49   C50   S    
O7    Zn1   S    
C41   H1    S    
C14   C15   A    
C50   H26   S    
C51   H35   S    
C56   H42   S    
C54   H38   S    
