data_mof_unit_58178.cif
_audit_creation_date              2012-12-10T17:50:39-0500
_audit_creation_method            fapswitch 2.2
_symmetry_space_group_name_H-M    P1
_symmetry_Int_Tables_number       1
_space_group_crystal_system       triclinic
_cell_length_a                    15.684618
_cell_length_b                    10.746729
_cell_length_c                    10.031213
_cell_angle_alpha                 92.885845
_cell_angle_beta                  90.934453
_cell_angle_gamma                 94.555821
_cell_volume                      1683.01449932

loop_
_atom_site_label
_atom_site_type_symbol
_atom_type_description
_atom_site_fract_x
_atom_site_fract_y
_atom_site_fract_z
_atom_type_partial_charge
C1    C     C_R   0.509718 0.262527 0.498071 0.979951
C2    C     C_R   0.616091 0.115472 0.847124 0.385155
C3    C     C_R   0.591928 0.989608 0.866106 0.402043
C4    C     C_R   0.338681 0.504231 0.499237 0.964075
C5    C     C_R   0.554528 0.912047 0.760405 -0.417306
C6    C     C_R   0.545397 0.955653 0.630343 -0.038678
C7    C     C_R   0.562120 0.084799 0.616542 -0.077455
C8    C     C_R   0.534802 0.135553 0.497477 -0.094974
C9    C     C_R   0.531047 0.062327 0.380030 -0.256844
C10   C     C_R   0.537778 0.935500 0.386622 0.047921
C11   C     C_R   0.527089 0.878640 0.510197 -0.036958
C12   C     C_3   0.085849 0.534723 0.497369 -0.081595
C13   C     C_R   0.404253 0.303040 0.122660 0.483499
C14   C     C_R   0.388493 0.188227 0.049734 0.332680
C15   C     C_R   0.390301 0.188664 0.910662 -0.166333
C16   C     C_R   0.507681 0.741662 0.503982 0.844715
C17   C     C_R   0.404692 0.303143 0.851504 0.553635
C18   C     C_R   0.450948 0.406654 0.922004 -0.079194
C19   C     C_R   0.451181 0.406349 0.065704 -0.196900
C20   C     C_R   0.558365 0.572926 0.077525 0.580192
C21   C     C_R   0.557942 0.573774 0.934035 0.037435
C22   C     C_R   0.661727 0.505197 0.501005 0.890649
C23   C     C_3   0.979104 0.602755 0.606845 0.430464
C24   C     C_3   0.967442 0.417922 0.503270 0.050644
C25   C     C_3   0.024054 0.466743 0.391418 -0.027832
C26   C     C_1   0.250891 0.518127 0.497701 -0.238642
C27   C     C_1   0.750906 0.518900 0.502412 -0.189058
C28   C     C_3   0.028365 0.484617 0.609239 0.008855
C29   C     C_3   0.697235 0.947739 0.015112 -0.328448
C30   C     C_3   0.698985 0.588966 0.144888 -0.248356
C31   C     C_3   0.275372 0.333979 0.211755 -0.231402
C32   C     C_3   0.386955 0.980067 0.098104 -0.305290
C33   C     C_3   0.273746 0.333446 0.766025 -0.307443
C34   C     C_3   0.917570 0.535169 0.499664 -0.082216
C35   C     C_3   0.000615 0.662679 0.178995 -0.338782
C36   C     C_3   0.019079 0.864392 0.484990 -0.293621
C37   C     C_3   0.014852 0.714285 0.805186 -0.321985
C38   C     C_3   0.727560 0.240219 0.621274 -0.363995
C39   C     C_3   0.720854 0.253254 0.951552 -0.264448
C40   C     C_3   0.035488 0.653610 0.493419 0.349040
C41   C     C_3   0.974547 0.584624 0.386133 0.391221
C42   C     C_1   0.176374 0.528343 0.497003 0.025961
C43   C     C_1   0.826469 0.528955 0.501534 0.058950
C44   C     C_R   0.607479 0.159772 0.719163 0.401204
H1    H     H_    0.532907 0.819717 0.785317 0.220082
H2    H     H_    0.733912 0.614204 0.053702 0.168707
H3    H     H_    0.691145 0.485299 0.149963 0.161378
H4    H     H_    0.740324 0.626211 0.230852 0.212193
H5    H     H_    0.244007 0.263486 0.137844 0.158736
H6    H     H_    0.269915 0.429325 0.175776 0.133258
H7    H     H_    0.238554 0.325168 0.304565 0.189879
H8    H     H_    0.454184 0.994789 0.064869 0.181725
H9    H     H_    0.350227 0.912902 0.027001 0.164249
H10   H     H_    0.386905 0.936429 0.195897 0.200574
H11   H     H_    0.399833 0.012230 0.833508 0.195388
H12   H     H_    0.526769 0.103461 0.283944 0.192279
H13   H     H_    0.297697 0.049148 0.861499 0.213307
H14   H     H_    0.269121 0.427548 0.815629 0.149142
H15   H     H_    0.243653 0.260581 0.829129 0.142506
H16   H     H_    0.235588 0.327618 0.671778 0.185009
H17   H     H_    0.610020 0.657860 0.774461 0.237235
H18   H     H_    0.638378 0.727108 0.918727 0.225570
H19   H     H_    0.978543 0.230982 0.503629 0.193644
H20   H     H_    0.891264 0.270898 0.422368 0.177730
H21   H     H_    0.009299 0.577900 0.114552 0.167017
H22   H     H_    0.063060 0.701565 0.224107 0.192880
H23   H     H_    0.997103 0.367664 0.215894 0.193915
H24   H     H_    0.977764 0.734087 0.113989 0.185155
H25   H     H_    0.979402 0.865163 0.575637 0.192847
H26   H     H_    0.977627 0.851567 0.393795 0.196469
H27   H     H_    0.054536 0.957733 0.482550 0.182129
H28   H     H_    0.073423 0.750944 0.754176 0.187035
H29   H     H_    0.029961 0.638578 0.870702 0.172972
H30   H     H_    0.993619 0.792098 0.870021 0.175860
H31   H     H_    0.079522 0.340952 0.697588 0.182845
H32   H     H_    0.111364 0.482480 0.766690 0.161960
H33   H     H_    0.753435 0.151208 0.649821 0.140344
H34   H     H_    0.095794 0.442196 0.226336 0.171875
H35   H     H_    0.714767 0.236248 0.511858 0.168113
H36   H     H_    0.778770 0.315022 0.646301 0.221442
H37   H     H_    0.719445 0.345475 0.906845 0.228569
H38   H     H_    0.765769 0.193997 0.897837 0.137288
H39   H     H_    0.746687 0.271584 0.054884 0.152684
H40   H     H_    0.715471 0.031976 0.080835 0.201971
H41   H     H_    0.737341 0.947180 0.924203 0.143792
H42   H     H_    0.713308 0.866183 0.071168 0.197189
H43   H     H_    0.523573 0.871230 0.192885 0.223383
H44   H     H_    0.625890 0.909709 0.248239 0.224030
N1    N     N_R   0.499210 0.498800 0.142780 -0.130426
N2    N     N_R   0.499180 0.498720 0.857170 -0.112933
N3    N     N_3   0.050508 0.388783 0.278975 -0.462656
N4    N     N_3   0.566439 0.867455 0.272293 -0.362413
N5    N     N_3   0.357630 0.082134 0.827823 -0.398444
N6    N     N_3   0.627717 0.639618 0.870766 -0.444576
N7    N     N_3   0.928998 0.290447 0.508846 -0.461035
N8    N     N_3   0.057976 0.427148 0.728194 -0.443829
O1    O     O_R   0.500000 0.316780 0.614690 -0.542246
O2    O     O_3   0.620440 0.645043 0.152503 -0.601810
O3    O     O_3   0.362145 0.314874 0.240699 -0.522854
O4    O     O_3   0.345022 0.090862 0.112898 -0.578215
O5    O     O_3   0.359842 0.314834 0.734959 -0.528832
O6    O     O_3   0.937654 0.635876 0.274193 -0.616726
O7    O     O_3   0.078884 0.773427 0.488294 -0.604051
O8    O     O_3   0.947350 0.672186 0.715668 -0.596332
O9    O     O_3   0.653154 0.269699 0.690241 -0.577721
O10   O     O_3   0.637126 0.195287 0.958277 -0.606048
O11   O     O_R   0.499990 0.316750 0.385360 -0.593426
O12   O     O_R   0.376780 0.500000 0.614650 -0.563443
O13   O     O_R   0.376770 0.499980 0.385310 -0.566673
O14   O     O_R   0.500010 0.683250 0.614640 -0.674994
O15   O     O_R   0.500000 0.683220 0.385310 -0.567980
O16   O     O_R   0.623230 0.500020 0.614690 -0.576154
O17   O     O_R   0.623220 0.500000 0.385350 -0.612141
O18   O     O_3   0.607853 0.938411 0.986947 -0.626029
Zn1   Zn    Zn3+2 0.500010 0.500020 0.653130 1.009249
Zn2   Zn    Zn3+2 0.499990 0.499980 0.346870 1.027845

loop_
_geom_bond_atom_site_label_1
_geom_bond_atom_site_label_2
_ccdc_geom_bond_type
C39   O10   S    
C4    O13   A    
C13   O3    S    
C33   H14   S    
C1    C8    S    
H11   N5    S    
C35   O6    S    
C37   H30   S    
C16   O14   A    
C7    C8    A    
C44   O9    S    
C4    O12   A    
C12   C28   S    
C36   O7    S    
C33   O5    S    
O12   Zn1   S    
C30   H4    S    
C5    C6    A    
C38   H35   S    
C35   H21   S    
C23   C40   S    
H19   N7    S    
C41   O6    S    
C18   C19   A    
C17   O5    S    
C32   H8    S    
C12   C42   S    
O13   Zn2   S    
C22   O17   A    
H44   N4    S    
C2    C44   A    
C8    C9    A    
O15   Zn2   S    
C31   O3    S    
O1    Zn1   S    
C9    C10   A    
C29   H41   S    
C36   H27   S    
O17   Zn2   S    
N1    Zn2   S    
C10   N4    S    
C33   H15   S    
H13   N5    S    
C13   C14   A    
C34   C41   S    
C31   H5    S    
C32   H10   S    
C36   H26   S    
H31   N8    S    
C21   N2    A    
C25   N3    S    
C13   C19   A    
C18   N2    A    
C30   H3    S    
C24   C25   S    
C39   H37   S    
C29   H40   S    
C24   N7    S    
C1    O1    A    
C6    C11   A    
C29   O18   S    
H17   N6    S    
C35   H22   S    
C23   C28   S    
C5    H1    S    
C2    O10   S    
C24   C34   S    
C32   O4    S    
C12   C40   S    
C19   N1    A    
C11   C16   S    
C23   O8    S    
C23   C34   S    
H23   N3    S    
C17   C18   A    
C9    H12   S    
N2    Zn1   S    
C29   H42   S    
C1    O11   A    
C40   C41   S    
C33   H16   S    
C22   O16   A    
C22   C27   S    
H18   N6    S    
C31   H6    S    
C25   C41   S    
C32   H9    S    
C36   H25   S    
C26   C42   T    
C15   C17   A    
C37   H29   S    
C39   H38   S    
C30   H2    S    
C34   C43   S    
C24   C28   S    
H20   N7    S    
C31   H7    S    
C3    C5    A    
C3    O18   S    
C15   N5    S    
C37   O8    S    
C4    C26   S    
C14   O4    S    
C6    C7    A    
C38   H33   S    
H34   N3    S    
C20   N1    A    
C30   O2    S    
C12   C25   S    
C28   N8    S    
C38   O9    S    
C2    C3    A    
C39   H39   S    
H32   N8    S    
C40   O7    S    
C38   H36   S    
C35   H24   S    
O11   Zn2   S    
C10   C11   A    
C27   C43   T    
C20   O2    S    
C20   C21   A    
C21   N6    S    
C37   H28   S    
C14   C15   A    
C7    C44   A    
H43   N4    S    
O14   Zn1   S    
O16   Zn1   S    
C16   O15   A    
