data_mof_unit_38432.cif
_audit_creation_date              2012-12-10T16:52:13-0500
_audit_creation_method            fapswitch 2.2
_symmetry_space_group_name_H-M    P1
_symmetry_Int_Tables_number       1
_space_group_crystal_system       triclinic
_cell_length_a                    10.98606
_cell_length_b                    10.937754
_cell_length_c                    9.813925
_cell_angle_alpha                 93.205208
_cell_angle_beta                  102.86123
_cell_angle_gamma                 91.420936
_cell_volume                      1147.04448272

loop_
_atom_site_label
_atom_site_type_symbol
_atom_type_description
_atom_site_fract_x
_atom_site_fract_y
_atom_site_fract_z
_atom_type_partial_charge
C1    C     C_R   0.496025 0.265884 0.495061 0.768228
C2    C     C_2   0.522203 0.869022 0.520969 0.345833
C3    C     C_2   0.550975 0.064488 0.420197 0.393094
C4    C     C_2   0.472275 0.133571 0.476581 0.333734
C5    C     C_2   0.464024 0.407207 0.908753 -0.041468
C6    C     C_2   0.482464 0.401372 0.065946 0.610270
C7    C     C_R   0.262511 0.499332 0.443199 0.701884
C8    C     C_R   0.504399 0.735039 0.505156 0.688585
C9    C     C_R   0.737127 0.501084 0.557195 0.885206
C10   C     C_2   0.125867 0.504343 0.415163 0.348576
C11   C     C_2   0.071311 0.523742 0.524248 -0.390967
C12   C     C_2   0.872851 0.496990 0.587739 -0.476181
C13   C     C_2   0.938563 0.548767 0.504714 0.559692
C14   C     C_2   0.531772 0.930376 0.408729 -0.294652
Cu1   Cu    Cu3+1 0.500020 0.500020 0.638640 0.945544
Cu2   Cu    Cu3+1 0.499980 0.499980 0.361360 1.039917
H1    H     H_    0.124696 0.523736 0.631765 0.125595
H2    H     H_    0.919235 0.446047 0.675357 0.120007
H3    H     H_    0.524464 0.883044 0.306847 0.132202
H4    H     H_    0.431116 0.324157 0.844646 0.107100
N1    N     N_2   0.498650 0.498660 0.846590 -0.005166
N2    N     N_2   0.498620 0.498630 0.152710 0.023303
O1    O     O_R   0.500020 0.321960 0.617050 -0.600561
O2    O     O_R   0.499980 0.321920 0.382890 -0.538765
O3    O     O_R   0.320700 0.500020 0.574050 -0.605748
O4    O     O_R   0.320660 0.499980 0.339890 -0.568292
O5    O     O_R   0.500020 0.678080 0.617110 -0.581294
O6    O     O_R   0.499980 0.678040 0.382950 -0.547560
O7    O     O_R   0.679340 0.500020 0.660110 -0.615900
O8    O     O_R   0.679300 0.499980 0.425950 -0.513996
O9    O     O_3   0.882252 0.625748 0.402869 -0.552770
C15   C     C_3   0.934890 0.746343 0.437099 0.068132
H5    H     H_    0.914077 0.797193 0.340483 0.157303
H6    H     H_    0.038769 0.748912 0.470704 0.136119
C16   C     C_3   0.877487 0.812800 0.548673 -0.379499
H7    H     H_    0.777983 0.829354 0.502956 0.224648
H8    H     H_    0.881177 0.755313 0.639120 0.200492
C17   C     C_3   0.946901 0.934457 0.603480 -0.876598
H9    H     H_    0.044486 0.918199 0.658376 0.239936
H10   H     H_    0.899230 0.982155 0.678657 0.273267
H11   H     H_    0.948714 0.994428 0.516632 0.248479
O10   O     O_3   0.542651 0.601812 0.926352 -0.494012
C18   C     C_3   0.664796 0.636013 0.917140 0.208204
H12   H     H_    0.690352 0.721568 0.984862 0.129650
H13   H     H_    0.669268 0.663976 0.812486 0.172799
C19   C     C_3   0.762151 0.542529 0.974723 -0.364448
H14   H     H_    0.759403 0.526691 0.084938 0.246937
H15   H     H_    0.741705 0.453400 0.912918 0.222708
C20   C     C_3   0.892975 0.590452 0.969775 -0.874211
H16   H     H_    0.894526 0.621023 0.864181 0.230684
H17   H     H_    0.961001 0.517242 0.992996 0.268182
H18   H     H_    0.922712 0.668876 0.048135 0.266919
O11   O     O_3   0.485467 0.287673 0.121095 -0.608624
C21   C     C_3   0.373167 0.218943 0.064393 -0.449204
H19   H     H_    0.381063 0.164495 0.968041 0.167618
H20   H     H_    0.289208 0.275944 0.042936 0.141646
H21   H     H_    0.357998 0.153196 0.141631 0.196490
O12   O     O_3   0.440141 0.601833 0.106943 -0.444023
C22   C     C_3   0.308299 0.582670 0.068659 -0.114446
H22   H     H_    0.275477 0.599646 0.956208 0.124668
H23   H     H_    0.264891 0.650440 0.129733 0.164805
H24   H     H_    0.273399 0.489596 0.084466 0.118734
O13   O     O_3   0.054762 0.493177 0.279262 -0.545271
C23   C     C_3   0.043096 0.367581 0.234785 -0.345515
H25   H     H_    0.012483 0.309976 0.312202 0.159108
H26   H     H_    0.132156 0.335014 0.212550 0.146472
H27   H     H_    0.970243 0.354469 0.136447 0.186271
O14   O     O_3   0.551356 0.930936 0.653203 -0.577029
C24   C     C_3   0.459404 0.908458 0.730253 -0.192308
H28   H     H_    0.491112 0.838273 0.806367 0.177717
H29   H     H_    0.365506 0.880914 0.663683 0.160606
H30   H     H_    0.448594 0.994111 0.791803 0.170718
O15   O     O_3   0.656955 0.117746 0.388486 -0.632284
C25   C     C_3   0.658696 0.092921 0.245622 0.125871
H31   H     H_    0.685048 0.180152 0.205066 0.208720
H32   H     H_    0.566562 0.060431 0.178393 0.140966
C26   C     C_3   0.757821 0.001004 0.229927 -0.407495
H33   H     H_    0.850029 0.035825 0.293098 0.221821
H34   H     H_    0.733585 0.911913 0.267617 0.228708
C27   C     C_3   0.767038 0.981687 0.077350 -0.915212
H35   H     H_    0.675578 0.948116 0.010838 0.262970
H36   H     H_    0.837971 0.912802 0.068777 0.248847
H37   H     H_    0.795722 0.068932 0.038528 0.258928
O16   O     O_3   0.367475 0.077581 0.509390 -0.598898
C28   C     C_3   0.264086 0.153949 0.490355 -0.397437
H38   H     H_    0.247471 0.195380 0.387110 0.138945
H39   H     H_    0.275912 0.225826 0.577300 0.184811
H40   H     H_    0.179411 0.097296 0.492346 0.191170

loop_
_geom_bond_atom_site_label_1
_geom_bond_atom_site_label_2
_ccdc_geom_bond_type
Cu2   O6    S    
C7    C10   S    
O15   C25   S    
C16   H7    S    
C5    H4    S    
C26   H33   S    
C19   C20   S    
C7    O4    A    
C25   H32   S    
C16   H8    S    
C2    O14   S    
C28   H38   S    
C17   H9    S    
Cu1   O3    S    
Cu2   O8    S    
Cu1   Cu2   S    
C6    N2    D    
C24   H29   S    
C21   H19   S    
C10   O13   S    
O14   C24   S    
C20   H17   S    
C25   C26   S    
C9    O7    A    
Cu1   O1    S    
C22   H22   S    
Cu2   O2    S    
C27   H37   S    
C3    O15   S    
C9    C12   S    
Cu1   O7    S    
C19   H15   S    
C26   H34   S    
Cu2   O4    S    
C21   H20   S    
C22   H23   S    
C25   H31   S    
C28   H39   S    
C23   H27   S    
C16   C17   S    
O16   C28   S    
C17   H11   S    
C27   H36   S    
O12   C22   S    
O11   C21   S    
N1    O10   S    
C15   H6    S    
C24   H30   S    
C18   H12   S    
C15   C16   S    
Cu1   O5    S    
O9    C15   S    
C4    O16   S    
C20   H18   S    
C18   H13   S    
C3    C14   S    
C9    O8    A    
C1    O1    A    
C8    O6    A    
O10   C18   S    
C6    O11   S    
C3    C4    D    
C28   H40   S    
C19   H14   S    
C11   H1    S    
C22   H24   S    
Cu2   N2    S    
C14   H3    S    
C13   O9    S    
C2    C8    S    
C27   H35   S    
N2    O12   S    
C7    O3    A    
C1    C4    S    
C23   H25   S    
C15   H5    S    
C17   H10   S    
C11   C13   S    
C5    C6    S    
C26   C27   S    
C24   H28   S    
C2    C14   D    
C18   C19   S    
C10   C11   D    
O13   C23   S    
Cu1   N1    S    
C5    N1    D    
C12   C13   D    
C1    O2    A    
C20   H16   S    
C12   H2    S    
C8    O5    A    
C23   H26   S    
C21   H21   S    
