data_mof_unit_44169.cif
_audit_creation_date              2012-12-11T17:01:21-0500
_audit_creation_method            fapswitch 2.2
_symmetry_space_group_name_H-M    P1
_symmetry_Int_Tables_number       1
_space_group_crystal_system       triclinic
_cell_length_a                    19.395436
_cell_length_b                    7.093751
_cell_length_c                    17.625208
_cell_angle_alpha                 89.999987
_cell_angle_beta                  108.617658
_cell_angle_gamma                 89.999966
_cell_volume                      2298.08929694

loop_
_atom_site_label
_atom_site_type_symbol
_atom_type_description
_atom_site_fract_x
_atom_site_fract_y
_atom_site_fract_z
_atom_type_partial_charge
O1    O     O_R   0.413720 0.494330 0.415730 -0.545437
O2    O     O_R   0.586280 0.994330 0.584270 -0.545437
O3    O     O_R   0.560210 0.819300 0.430070 -0.538466
O4    O     O_R   0.439790 0.319300 0.569930 -0.538467
C1    C     C_R   0.583393 0.655318 0.416611 0.702538
C2    C     C_R   0.416607 0.155318 0.583389 0.702541
O5    O     O_R   0.412670 0.823730 0.406310 -0.542476
O6    O     O_R   0.587330 0.323730 0.593690 -0.542477
O7    O     O_R   0.437690 0.998790 0.560340 -0.532967
O8    O     O_R   0.562310 0.498790 0.439660 -0.532969
C3    C     C_R   0.385187 0.655117 0.383638 0.715530
C4    C     C_R   0.614813 0.155117 0.616362 0.715528
O9    O     O_3   0.508380 0.662350 0.550560 -0.378238
O10   O     O_3   0.491620 0.162350 0.449440 -0.378238
V1    V     V_3+5 0.498450 0.935370 0.490620 1.424282
V2    V     V_3+5 0.501550 0.435370 0.509380 1.424280
C5    C     C_R   0.733909 0.996843 0.690106 0.088188
C6    C     C_R   0.266091 0.496843 0.309894 0.088186
C7    C     C_R   0.685064 0.147044 0.682468 -0.152537
C8    C     C_R   0.314936 0.647044 0.317532 -0.152537
C9    C     C_R   0.707565 0.296468 0.737615 -0.133834
C10   C     C_R   0.292435 0.796468 0.262385 -0.133834
H1    H     H_    0.672881 0.417967 0.733356 0.121558
H2    H     H_    0.327118 0.917967 0.266644 0.121558
C11   C     C_R   0.772948 0.285192 0.802196 -0.137707
C12   C     C_R   0.227052 0.785191 0.197803 -0.137707
H3    H     H_    0.786412 0.398847 0.845381 0.123283
H4    H     H_    0.213588 0.898847 0.154618 0.123283
C13   C     C_R   0.818075 0.124458 0.813511 -0.128864
C14   C     C_R   0.181925 0.624458 0.186489 -0.128864
C15   C     C_R   0.798512 0.985941 0.753824 0.044208
C16   C     C_R   0.201488 0.485941 0.246176 0.044208
C17   C     C_3   0.793818 0.777091 0.759941 0.056510
C18   C     C_3   0.206182 0.277091 0.240060 0.056510
C19   C     C_3   0.722447 0.788666 0.690461 0.168500
C20   C     C_3   0.277553 0.288666 0.309540 0.168500
H5    H     H_    0.785952 0.733488 0.817180 0.038072
H6    H     H_    0.214049 0.233488 0.182821 0.038072
H7    H     H_    0.673489 0.747780 0.706707 0.036053
H8    H     H_    0.326511 0.247780 0.293294 0.036054
C21   C     C_R   0.315946 0.991464 0.622766 0.312655
C22   C     C_R   0.684055 0.491464 0.377235 0.312658
C23   C     C_R   0.364139 0.146836 0.629368 -0.160814
C24   C     C_R   0.635862 0.646836 0.370633 -0.160816
C25   C     C_R   0.362336 0.296816 0.681054 -0.240969
C26   C     C_R   0.637665 0.796816 0.318947 -0.240967
C27   C     C_R   0.315526 0.293110 0.727355 0.090620
C28   C     C_R   0.684475 0.793110 0.272646 0.090620
C29   C     C_R   0.270131 0.135718 0.723348 -0.012444
C30   C     C_R   0.729870 0.635720 0.276653 -0.012445
C31   C     C_R   0.270896 0.983713 0.671773 0.053342
C32   C     C_R   0.729106 0.483715 0.328228 0.053343
C33   C     C_R   0.313654 0.444347 0.778072 -0.167032
C34   C     C_R   0.686347 0.944348 0.221929 -0.167031
C35   C     C_R   0.266751 0.440652 0.824083 -0.199027
C36   C     C_R   0.733249 0.940653 0.175917 -0.199027
C37   C     C_R   0.221186 0.285100 0.820626 0.097820
C38   C     C_R   0.778814 0.785101 0.179374 0.097820
C39   C     C_R   0.223139 0.131422 0.770415 0.077678
C40   C     C_R   0.776862 0.631424 0.229585 0.077678
C41   C     C_R   0.177921 0.973812 0.766981 0.087269
C42   C     C_R   0.822080 0.473813 0.233020 0.087270
C43   C     C_R   0.179201 0.823278 0.716002 -0.200609
C44   C     C_R   0.820800 0.323279 0.284000 -0.200608
C45   C     C_R   0.224818 0.828417 0.668657 -0.124170
C46   C     C_R   0.775184 0.328419 0.331344 -0.124169
C47   C     C_R   0.173901 0.280319 0.866637 -0.217360
C48   C     C_R   0.826099 0.780319 0.133364 -0.217360
C49   C     C_R   0.129417 0.122152 0.864367 -0.080365
C50   C     C_R   0.870583 0.622153 0.135633 -0.080366
C51   C     C_R   0.131995 0.969370 0.814369 -0.199936
C52   C     C_R   0.868005 0.469371 0.185632 -0.199936
H9    H     H_    0.398094 0.416874 0.685891 0.152459
H10   H     H_    0.601907 0.916875 0.314110 0.152459
H11   H     H_    0.348183 0.566395 0.781774 0.129008
H12   H     H_    0.651817 0.066395 0.218227 0.129008
H13   H     H_    0.266035 0.559826 0.862293 0.127281
H14   H     H_    0.733965 0.059826 0.137707 0.127281
H15   H     H_    0.172688 0.398418 0.905239 0.122358
H16   H     H_    0.827312 0.898417 0.094760 0.122358
H17   H     H_    0.097603 0.847338 0.811584 0.147289
H18   H     H_    0.902398 0.347339 0.188417 0.147289
H19   H     H_    0.144734 0.701206 0.712584 0.151890
H20   H     H_    0.855267 0.201207 0.287417 0.151890
H21   H     H_    0.224044 0.709390 0.629910 0.187159
H22   H     H_    0.775957 0.209391 0.370092 0.187160
O11   O     O_R   0.937800 0.775460 0.060470 -0.537371
O12   O     O_R   0.062200 0.275460 0.939530 -0.537371
O13   O     O_R   0.087350 0.441340 0.093710 -0.538125
O14   O     O_R   0.912650 0.941340 0.906290 -0.538125
C53   C     C_R   0.114760 0.610403 0.116446 0.710205
C54   C     C_R   0.885240 0.110404 0.883554 0.710206
O15   O     O_R   0.939820 0.446010 0.069950 -0.544951
O16   O     O_R   0.060180 0.946010 0.930050 -0.544951
O17   O     O_R   0.913690 0.271230 0.915700 -0.533272
O18   O     O_R   0.086310 0.771230 0.084300 -0.533272
C55   C     C_R   0.918915 0.614422 0.085227 0.710028
C56   C     C_R   0.081084 0.114422 0.914773 0.710027
O19   O     O_3   0.991670 0.603050 0.949510 -0.364160
O20   O     O_3   0.008330 0.103050 0.050490 -0.364160
V3    V     V_3+5 0.001550 0.329940 0.009370 1.455814
V4    V     V_3+5 0.998450 0.829940 0.990630 1.455814
I1    I     I_    0.883532 0.642161 0.734899 -0.286999
I2    I     I_    0.116468 0.142161 0.265101 -0.286999
O21   O     O_3   0.726723 0.704314 0.620200 -0.601529
H23   H     H_    0.676369 0.702015 0.582413 0.296187
O22   O     O_3   0.273277 0.204314 0.379800 -0.601530
H24   H     H_    0.323630 0.202019 0.417589 0.296188
O23   O     O_3   0.310203 0.848558 0.567892 -0.639737
H25   H     H_    0.313313 0.905702 0.517814 0.311610
O24   O     O_3   0.689798 0.348556 0.432109 -0.639737
H26   H     H_    0.686684 0.405698 0.482185 0.311610

loop_
_geom_bond_atom_site_label_1
_geom_bond_atom_site_label_2
_ccdc_geom_bond_type
C48   H16   S    
C43   C45   A    
O18   V4    S    
O24   H26   S    
O1    C3    A    
O2    C4    A    
C2    O7    A    
O12   V3    S    
C32   C46   A    
C27   C29   A    
C28   C34   A    
C40   C42   A    
C7    C9    A    
C35   H13   S    
C37   C39   A    
O16   C56   A    
C38   C40   A    
C36   H14   S    
C25   H9    S    
C31   C45   A    
C25   C27   A    
C49   C51   A    
C44   H20   S    
C42   C44   A    
C17   C19   S    
C53   O18   A    
O14   V4    S    
C29   C31   A    
C30   C32   A    
O22   H24   S    
C15   C17   S    
O13   C53   A    
C18   C20   S    
C50   C55   S    
C27   C33   A    
C49   C56   S    
C41   C51   A    
C28   C30   A    
O6    V2    S    
C21   O23   S    
C20   O22   S    
C21   C23   A    
C33   H11   S    
C22   C24   A    
C37   C47   A    
C24   C26   A    
O5    C3    A    
C26   C28   A    
C33   C35   A    
C11   C13   A    
C34   C36   A    
C3    C8    S    
C39   C41   A    
C20   H8    S    
C47   H15   S    
O4    C2    A    
O15   V3    S    
C54   O17   A    
C17   H5    S    
C43   H19   S    
C47   C49   A    
C44   C46   A    
O4    V2    S    
C19   H7    S    
C22   O24   S    
C19   O21   S    
O11   V4    S    
O14   C54   A    
O6    C4    A    
O20   V4    S    
C42   C52   A    
O1    V2    S    
O2    V1    S    
C23   C25   A    
C17   I1    S    
C34   H12   S    
C38   C48   A    
O19   V3    S    
C1    C24   S    
C8    C10   A    
C12   C14   A    
C2    C23   S    
C35   C37   A    
C5    C15   A    
C10   H2    S    
C6    C16   A    
O15   C55   A    
C26   H10   S    
O3    V1    S    
C9    C11   A    
O13   V3    S    
C18   H6    S    
C41   C43   A    
C14   C53   S    
O3    C1    A    
C46   H22   S    
C45   H21   S    
C11   H3    S    
O21   H23   S    
C12   H4    S    
C29   C39   A    
C30   C40   A    
C9    H1    S    
O7    V1    S    
C1    O8    A    
C13   C15   A    
O8    V2    S    
O23   H25   S    
C14   C16   A    
C52   H18   S    
C4    C7    S    
O5    V1    S    
O20   V3    S    
C5    C7    A    
C36   C38   A    
C6    C8    A    
C18   I2    S    
O19   V4    S    
O16   V4    S    
C48   C50   A    
C10   C12   A    
O9    V2    S    
C22   C32   A    
O10   V1    S    
C50   C52   A    
C5    C19   S    
O11   C55   A    
C6    C20   S    
C21   C31   A    
C13   C54   S    
O12   C56   A    
O17   V3    S    
C16   C18   S    
C51   H17   S    
