data_mof_unit_5428.cif
_audit_creation_date              2012-12-10T17:39:11-0500
_audit_creation_method            fapswitch 2.2
_symmetry_space_group_name_H-M    P1
_symmetry_Int_Tables_number       1
_space_group_crystal_system       triclinic
_cell_length_a                    11.986759
_cell_length_b                    12.750831
_cell_length_c                    23.412045
_cell_angle_alpha                 89.906296
_cell_angle_beta                  86.339274
_cell_angle_gamma                 94.760816
_cell_volume                      3558.61539213

loop_
_atom_site_label
_atom_site_type_symbol
_atom_type_description
_atom_site_fract_x
_atom_site_fract_y
_atom_site_fract_z
_atom_type_partial_charge
C1    C     C_R   0.523402 0.699981 0.500149 0.917444
C2    C     C_R   0.601155 0.497630 0.294037 -0.236985
C3    C     C_R   0.403376 0.506143 0.765900 -0.115557
C4    C     C_R   0.601972 0.501315 0.234859 -0.124489
C5    C     C_R   0.503218 0.491330 0.791333 0.343178
C6    C     C_R   0.501986 0.510290 0.208490 0.342678
C7    C     C_R   0.459868 0.188773 0.495886 -0.107180
C8    C     C_R   0.540088 0.811242 0.504102 -0.107139
C9    C     C_R   0.554004 0.957043 0.568357 -0.282942
C10   C     C_R   0.445963 0.042993 0.431627 -0.282970
C11   C     C_R   0.567845 0.852658 0.557122 0.160164
C12   C     C_R   0.476594 0.300024 0.499849 0.917624
C13   C     C_R   0.432195 0.147389 0.442849 0.160538
C14   C     C_R   0.505819 0.873470 0.460005 0.004685
C15   C     C_R   0.493967 0.126513 0.540012 0.004903
C16   C     C_R   0.500327 0.499695 0.610643 0.879662
C17   C     C_R   0.499765 0.500298 0.389348 0.879920
C18   C     C_R   0.488409 0.979071 0.472471 0.093796
C19   C     C_R   0.511463 0.020934 0.527533 0.094011
C20   C     C_R   0.953392 0.413825 0.439437 0.013461
C21   C     C_R   0.046615 0.586210 0.560550 0.013167
C22   C     C_R   0.836556 0.421843 0.446848 0.005684
C23   C     C_R   0.601828 0.478791 0.757930 -0.122865
C24   C     C_R   0.163448 0.578179 0.553143 0.006568
C25   C     C_R   0.858035 0.533829 0.526652 -0.087472
C26   C     C_R   0.141965 0.466173 0.473349 -0.086942
C27   C     C_R   0.975957 0.530472 0.522172 0.015749
C28   C     C_R   0.024045 0.469542 0.477825 0.015942
C29   C     C_R   0.505935 0.414720 0.120929 0.505001
C30   C     C_R   0.509704 0.587922 0.878519 0.504839
C31   C     C_R   0.503622 0.601872 0.118684 0.483940
C32   C     C_R   0.505154 0.400283 0.881064 0.483625
C33   C     C_R   0.510622 0.603197 0.058150 -0.042462
C34   C     C_R   0.400929 0.516212 0.241016 -0.114331
C35   C     C_R   0.511445 0.400021 0.941160 -0.042489
C36   C     C_R   0.510628 0.504325 0.029736 -0.047407
C37   C     C_R   0.511450 0.498890 0.969558 -0.047062
C38   C     C_R   0.509372 0.410354 0.061477 -0.032139
C39   C     C_R   0.511788 0.592759 0.937821 -0.031926
C40   C     C_R   0.517490 0.697596 0.024733 0.095821
C41   C     C_R   0.516867 0.306553 0.974187 0.095863
C42   C     C_R   0.515689 0.690035 0.965314 -0.202257
C43   C     C_R   0.513332 0.313667 0.033748 -0.202038
C44   C     C_3   0.530856 0.808414 0.048564 -0.356297
C45   C     C_R   0.601044 0.481873 0.698756 -0.238039
C46   C     C_3   0.416454 0.850327 0.063915 -0.307546
C47   C     C_3   0.430110 0.960226 0.089599 -0.851244
C48   C     C_3   0.530781 0.197885 0.949527 -0.357121
C49   C     C_3   0.416620 0.137671 0.941617 -0.306162
C50   C     C_3   0.430774 0.030017 0.915004 -0.853099
C51   C     C_3   0.003753 0.347202 0.391860 -0.453230
C52   C     C_3   0.920471 0.291050 0.352415 -0.353211
C53   C     C_3   0.981388 0.227353 0.306889 -0.860093
C54   C     C_3   0.996268 0.652887 0.608107 -0.452244
C55   C     C_3   0.079568 0.709120 0.647517 -0.354618
C56   C     C_R   0.399738 0.512554 0.300338 -0.238291
C57   C     C_3   0.018676 0.772913 0.693007 -0.859284
C58   C     C_3   0.512378 0.173839 0.599284 -0.410917
C59   C     C_3   0.415754 0.136911 0.642790 -0.386971
C60   C     C_3   0.435879 0.180980 0.702207 -0.797165
C61   C     C_3   0.487001 0.826082 0.400788 -0.410350
C62   C     C_3   0.583495 0.862725 0.357151 -0.386720
C63   C     C_3   0.562318 0.819567 0.297660 -0.799337
C64   C     C_3   0.279339 0.218721 0.398328 -0.779041
C65   C     C_3   0.720823 0.781403 0.601573 -0.777605
C66   C     C_R   0.501183 0.497207 0.672793 -0.041656
C67   C     C_R   0.499957 0.503037 0.327152 -0.041958
C68   C     C_R   0.402159 0.508982 0.706691 -0.237834
H1    H     H_    0.183001 0.421208 0.440454 0.134947
H2    H     H_    0.320747 0.516918 0.325051 0.157905
H3    H     H_    0.324186 0.520861 0.687582 0.156567
H4    H     H_    0.679550 0.490414 0.313718 0.158757
H5    H     H_    0.327291 0.516198 0.792101 0.132791
H6    H     H_    0.679927 0.496329 0.209339 0.132319
H7    H     H_    0.574777 0.985380 0.610089 0.161146
H8    H     H_    0.425266 0.014691 0.389877 0.161408
H9    H     H_    0.473892 0.958062 0.129945 0.278954
H10   H     H_    0.478967 0.015665 0.058942 0.251123
H11   H     H_    0.346249 0.989358 0.099250 0.249072
H12   H     H_    0.816999 0.578787 0.559550 0.135334
H13   H     H_    0.369428 0.854088 0.024628 0.207889
H14   H     H_    0.365963 0.796889 0.094968 0.258113
H15   H     H_    0.586039 0.813344 0.084838 0.243332
H16   H     H_    0.576578 0.862270 0.015896 0.164918
H17   H     H_    0.474532 0.039220 0.871791 0.279151
H18   H     H_    0.479852 0.982404 0.942448 0.251537
H19   H     H_    0.347075 0.987473 0.910827 0.248519
H20   H     H_    0.369549 0.126361 0.983962 0.207891
H21   H     H_    0.365978 0.183038 0.913858 0.258816
H22   H     H_    0.585993 0.201716 0.909646 0.242774
H23   H     H_    0.220905 0.618214 0.581109 0.131482
H24   H     H_    0.576702 0.151496 0.979264 0.165036
H25   H     H_    0.041917 0.279834 0.279853 0.261588
H26   H     H_    0.027146 0.166522 0.327331 0.259765
H27   H     H_    0.919486 0.187525 0.279066 0.251822
H28   H     H_    0.859505 0.236381 0.377974 0.222555
H29   H     H_    0.874419 0.350016 0.330522 0.218861
H30   H     H_    0.065052 0.398958 0.364744 0.204048
H31   H     H_    0.049468 0.286156 0.412140 0.209839
H32   H     H_    0.972913 0.833701 0.672531 0.259917
H33   H     H_    0.958157 0.720488 0.720080 0.262299
H34   H     H_    0.779104 0.381817 0.418877 0.132003
H35   H     H_    0.080594 0.812803 0.720800 0.251172
H36   H     H_    0.125622 0.650197 0.669443 0.218193
H37   H     H_    0.140532 0.763736 0.621923 0.222520
H38   H     H_    0.950536 0.713895 0.587806 0.209725
H39   H     H_    0.934989 0.601161 0.635250 0.204445
H40   H     H_    0.514470 0.153997 0.717673 0.264469
H41   H     H_    0.442065 0.268334 0.701116 0.271915
H42   H     H_    0.364869 0.152982 0.732703 0.253637
H43   H     H_    0.336202 0.164244 0.628596 0.230592
H44   H     H_    0.405600 0.049705 0.645697 0.228621
H45   H     H_    0.518052 0.761816 0.940194 0.186604
H46   H     H_    0.594717 0.155212 0.614022 0.199371
H47   H     H_    0.517636 0.260997 0.598794 0.199096
H48   H     H_    0.554654 0.732200 0.298507 0.272431
H49   H     H_    0.484183 0.847944 0.282419 0.265571
H50   H     H_    0.633531 0.846864 0.267127 0.251911
H51   H     H_    0.594501 0.949937 0.354528 0.228874
H52   H     H_    0.662871 0.834465 0.371016 0.230267
H53   H     H_    0.481502 0.738920 0.401304 0.199274
H54   H     H_    0.404629 0.844880 0.386164 0.199992
H55   H     H_    0.434846 0.197856 0.358753 0.231383
H56   H     H_    0.514657 0.242132 0.058733 0.186582
H57   H     H_    0.261266 0.279070 0.366709 0.236266
H58   H     H_    0.243871 0.240944 0.441163 0.250806
H59   H     H_    0.238244 0.141376 0.386106 0.231857
H60   H     H_    0.565361 0.802214 0.641216 0.231365
H61   H     H_    0.738977 0.721088 0.633194 0.237252
H62   H     H_    0.761914 0.858771 0.613760 0.231624
H63   H     H_    0.756225 0.759158 0.558729 0.250487
H64   H     H_    0.679057 0.467863 0.777954 0.130592
H65   H     H_    0.323581 0.522561 0.220243 0.131563
H66   H     H_    0.678392 0.472357 0.673484 0.159525
N1    N     N_R   0.502903 0.509019 0.147776 -0.352108
N2    N     N_R   0.505683 0.493072 0.851930 -0.352063
N3    N     N_R   0.207800 0.519350 0.510590 -0.112169
N4    N     N_R   0.792200 0.480650 0.489410 -0.112257
N5    N     N_2   0.399219 0.213336 0.398824 -0.303125
N6    N     N_2   0.600930 0.786740 0.601131 -0.303175
O1    O     O_R   0.421690 0.658830 0.502820 -0.627159
O2    O     O_2   0.511573 0.677300 0.847278 -0.573293
O3    O     O_2   0.496190 0.691036 0.148934 -0.592636
O4    O     O_2   0.495892 0.309870 0.851433 -0.592179
O5    O     O_R   0.578310 0.341170 0.497180 -0.627111
O6    O     O_R   0.609320 0.646410 0.496030 -0.606749
O7    O     O_R   0.390680 0.353590 0.503970 -0.606698
O8    O     O_R   0.406170 0.506240 0.587240 -0.630814
O9    O     O_R   0.593830 0.493760 0.412760 -0.631375
O10   O     O_R   0.593790 0.493820 0.580450 -0.622586
O11   O     O_R   0.406210 0.506180 0.419550 -0.622151
O12   O     O_2   0.505079 0.325349 0.152093 -0.572763
Zn1   Zn    Zn3+2 0.374720 0.508290 0.504530 0.939427
Zn2   Zn    Zn3+2 0.625280 0.491710 0.495470 0.938943

loop_
_geom_bond_atom_site_label_1
_geom_bond_atom_site_label_2
_ccdc_geom_bond_type
C5    N2    S    
C66   C68   A    
C34   C56   A    
C23   C45   A    
C53   H27   S    
C1    C8    S    
C14   C18   A    
C3    C68   A    
C47   H11   S    
O9    Zn2   S    
C44   H15   S    
C65   H62   S    
C15   C19   A    
C45   H66   S    
C62   C63   S    
C54   H39   S    
C55   H37   S    
C13   N5    S    
C12   O7    A    
C36   C37   A    
C35   C37   A    
C20   C51   S    
C8    C11   A    
C21   C54   S    
C63   H49   S    
C2    H4    S    
C54   C55   S    
C25   H12   S    
H55   N5    S    
C52   H29   S    
C33   C36   A    
C61   H53   S    
C18   C19   A    
C60   H41   S    
C50   H17   S    
C46   H14   S    
C65   N6    S    
C10   H8    S    
C9    C19   A    
O6    Zn2   S    
C29   C38   A    
C30   C39   A    
C59   H43   S    
C31   C33   A    
C62   H52   S    
C60   H40   S    
N4    Zn2   S    
C51   H30   S    
C40   C42   A    
C21   C27   A    
C59   C60   S    
C48   H22   S    
C41   C43   A    
C49   H20   S    
C1    O6    A    
C17   O11   A    
C35   C41   A    
C65   H63   S    
C44   C46   S    
C39   C42   A    
C51   H31   S    
C7    C12   S    
C57   H35   S    
C17   C67   S    
C33   C40   A    
C54   H38   S    
C53   H25   S    
C51   C52   S    
C32   C35   A    
C60   H42   S    
C4    C6    A    
C2    C67   A    
C32   N2    A    
C63   H50   S    
C7    C15   A    
C20   C28   A    
C34   H65   S    
C44   H16   S    
C58   C59   S    
C57   H32   S    
C55   H36   S    
C6    C34   A    
C61   H54   S    
C12   O5    A    
C2    C4    A    
C11   N6    S    
C6    N1    S    
C46   H13   S    
C42   H45   S    
C5    C23   A    
C7    C13   A    
C64   H59   S    
C59   H44   S    
C26   N3    A    
N3    Zn1   S    
C9    C11   A    
C62   H51   S    
C50   H19   S    
O5    Zn2   S    
C31   N1    A    
C48   C49   S    
C29   N1    A    
C20   C22   A    
C64   H57   S    
C64   H58   S    
C55   C57   S    
O10   Zn2   S    
C58   H47   S    
C47   H10   S    
C15   C58   S    
C16   C66   S    
O8    Zn1   S    
C63   H48   S    
C24   H23   S    
C45   C66   A    
C52   C53   S    
C46   C47   S    
C8    C14   A    
C53   H26   S    
C4    H6    S    
C17   O9    A    
C49   H21   S    
C3    C5    A    
C10   C13   A    
C30   O2    S    
C65   H61   S    
C24   N3    A    
C25   C27   A    
C56   C67   A    
C57   H33   S    
C22   N4    A    
C26   C28   A    
C22   H34   S    
C16   O8    A    
C36   C38   A    
C25   N4    A    
H60   N6    S    
C38   C43   A    
C37   C39   A    
C30   N2    A    
C14   C61   S    
O1    Zn1   S    
C10   C18   A    
C68   H3    S    
C56   H2    S    
C41   C48   S    
C23   H64   S    
C52   H28   S    
O11   Zn1   S    
C31   O3    S    
C61   C62   S    
O7    Zn1   S    
C32   O4    S    
C1    O1    A    
C50   H18   S    
C40   C44   S    
C49   C50   S    
C48   H24   S    
C21   C24   A    
C27   C28   A    
C58   H46   S    
C26   H1    S    
C47   H9    S    
C16   O10   A    
C9    H7    S    
C3    H5    S    
C43   H56   S    
C29   O12   S    
C64   N5    S    
