data_mof_unit_65071.cif
_audit_creation_date              2012-12-10T17:23:35-0500
_audit_creation_method            fapswitch 2.2
_symmetry_space_group_name_H-M    P1
_symmetry_Int_Tables_number       1
_space_group_crystal_system       triclinic
_cell_length_a                    18.748517
_cell_length_b                    18.80824
_cell_length_c                    18.747139
_cell_angle_alpha                 109.396168
_cell_angle_beta                  109.288882
_cell_angle_gamma                 109.323721
_cell_volume                      5114.21743307

loop_
_atom_site_label
_atom_site_type_symbol
_atom_type_description
_atom_site_fract_x
_atom_site_fract_y
_atom_site_fract_z
_atom_type_partial_charge
C1    C     C_R   0.381155 0.500041 0.381295 0.742511
C2    C     C_R   0.823335 0.809574 0.570847 0.018798
C3    C     C_3   0.842811 0.881771 0.652620 -0.023802
C4    C     C_3   0.770104 0.813525 0.652965 -0.218196
C5    C     C_R   0.234165 0.424272 0.255873 -0.159004
C6    C     C_R   0.169449 0.424736 0.192901 -0.174395
C7    C     C_R   0.185886 0.500348 0.186942 -0.025095
C8    C     C_R   0.266795 0.576045 0.245848 -0.160517
C9    C     C_R   0.330473 0.576254 0.310556 -0.178524
C10   C     C_R   0.314360 0.500158 0.314913 0.005644
C11   C     C_R   0.318206 0.245983 0.500158 -0.158918
C12   C     C_R   0.616641 0.618414 0.497515 0.811207
C13   C     C_R   0.255382 0.183191 0.501879 -0.162956
C14   C     C_R   0.184485 0.191072 0.503924 -0.126311
C15   C     C_R   0.176439 0.263805 0.505349 -0.008867
C16   C     C_R   0.235675 0.322912 0.494095 -0.007354
C17   C     C_R   0.309325 0.315812 0.496748 -0.123589
C18   C     C_R   0.757706 0.495234 0.675951 0.301593
C19   C     C_R   0.820084 0.494942 0.742381 -0.175743
C20   C     C_R   0.814835 0.503347 0.817230 -0.143495
C21   C     C_R   0.747412 0.513636 0.828343 -0.011820
C22   C     C_R   0.684539 0.512627 0.761762 -0.176915
C23   C     C_R   0.620174 0.501165 0.618850 0.822955
C24   C     C_R   0.688783 0.502843 0.686145 -0.116144
C25   C     C_R   0.999900 0.881002 0.381095 0.774090
C26   C     C_R   0.881336 0.879763 0.498555 0.809949
C27   C     C_R   0.999935 0.119094 0.618970 0.799463
C28   C     C_R   0.118591 0.121293 0.502225 0.767969
C29   C     C_R   0.999677 0.618789 0.118865 0.762658
C30   C     C_R   0.118959 0.500214 0.119363 0.796166
C31   C     C_R   0.999986 0.381640 0.881242 0.803688
C32   C     C_R   0.881309 0.501590 0.882754 0.749167
C33   C     C_R   0.998048 0.820397 0.241428 -0.159857
C34   C     C_R   0.378910 0.381490 0.498036 0.759806
C35   C     C_R   0.999210 0.756904 0.177921 -0.171046
C36   C     C_R   0.999020 0.685274 0.185530 -0.013790
C37   C     C_R   0.998813 0.677820 0.257354 -0.154693
C38   C     C_R   0.000630 0.742825 0.322359 -0.168895
C39   C     C_R   0.999679 0.813895 0.314163 -0.018005
C40   C     C_R   0.928810 0.200845 0.664919 -0.140320
C41   C     C_R   0.927565 0.265079 0.728218 -0.063135
C42   C     C_R   0.999381 0.315190 0.813568 -0.119072
C43   C     C_R   0.071278 0.301558 0.834417 0.265844
C44   C     C_R   0.070934 0.237223 0.770111 -0.236344
C45   C     C_R   0.757627 0.748640 0.570654 0.135235
C46   C     C_R   0.999841 0.186572 0.685711 -0.112050
C47   C     C_R   0.681552 0.683083 0.493475 -0.257675
C48   C     C_R   0.675847 0.673166 0.412867 -0.069706
C49   C     C_R   0.743371 0.736801 0.413271 0.234173
C50   C     C_R   0.815333 0.808043 0.493845 -0.216844
Cu1   Cu    Cu3+1 0.499970 0.561780 0.561770 0.973873
Cu2   Cu    Cu3+1 0.500030 0.438220 0.438230 0.990184
Cu3   Cu    Cu3+1 0.061810 0.000000 0.561760 0.959299
Cu4   Cu    Cu3+1 0.938190 0.000070 0.438240 0.951561
Cu5   Cu    Cu3+1 0.938200 0.438300 0.000110 0.970070
Cu6   Cu    Cu3+1 0.061800 0.561880 0.000070 0.980176
H1    H     H_    0.392640 0.635106 0.356253 0.126276
H2    H     H_    0.373990 0.239907 0.501161 0.155521
H3    H     H_    0.262207 0.128155 0.501810 0.153699
H4    H     H_    0.873686 0.488599 0.737115 0.146866
H5    H     H_    0.631616 0.519531 0.768578 0.196663
H6    H     H_    0.997457 0.875261 0.234700 0.144766
H7    H     H_    0.998942 0.762893 0.122322 0.142844
H8    H     H_    0.998943 0.622706 0.263803 0.148093
H9    H     H_    0.001335 0.737083 0.378181 0.145864
H10   H     H_    0.874109 0.161486 0.599224 0.198230
H11   H     H_    0.126356 0.226874 0.786393 0.162243
H12   H     H_    0.828602 0.931318 0.641334 0.135220
H13   H     H_    0.713326 0.823980 0.642530 0.107653
H14   H     H_    0.221437 0.365354 0.259448 0.137316
H15   H     H_    0.107369 0.365710 0.147806 0.152235
H16   H     H_    0.280257 0.635130 0.242518 0.149448
O1    O     O_R   0.409790 0.552170 0.461990 -0.590887
O2    O     O_R   0.947790 0.909920 0.357650 -0.585424
O3    O     O_R   0.962030 0.909820 0.552150 -0.587500
O4    O     O_R   0.857630 0.909880 0.447840 -0.584558
O5    O     O_R   0.052210 0.090150 0.642360 -0.587413
O6    O     O_R   0.947820 0.090210 0.538040 -0.594789
O7    O     O_R   0.142360 0.090190 0.552160 -0.571905
O8    O     O_R   0.037970 0.090250 0.447850 -0.596919
O9    O     O_R   0.947800 0.538090 0.090240 -0.583253
O10   O     O_R   0.052170 0.642450 0.090210 -0.584765
O11   O     O_R   0.038000 0.447920 0.090280 -0.588101
O12   O     O_R   0.409840 0.447810 0.357660 -0.586617
O13   O     O_R   0.142370 0.552280 0.090250 -0.577005
O14   O     O_R   0.947830 0.357730 0.909970 -0.597030
O15   O     O_R   0.052200 0.462090 0.909940 -0.559921
O16   O     O_R   0.857630 0.447900 0.909930 -0.590352
O17   O     O_R   0.962000 0.552260 0.909900 -0.578752
O18   O     O_R   0.590140 0.642360 0.552170 -0.578891
O19   O     O_R   0.590190 0.538010 0.447840 -0.587060
O20   O     O_R   0.590160 0.552190 0.642340 -0.568823
O21   O     O_R   0.590210 0.447830 0.538010 -0.568294
O22   O     O_R   0.409810 0.461990 0.552160 -0.595035
O23   O     O_R   0.409860 0.357640 0.447830 -0.576024
O24   O     O_R   0.052180 0.909860 0.461960 -0.581247
C51   C     C_2   0.597583 0.599727 0.329238 0.438833
H17   H     H_    0.535014 0.571940 0.325912 0.048372
O25   O     O_2   0.602294 0.568298 0.263708 -0.503376
C52   C     C_2   0.112665 0.282313 0.527633 0.420795
H18   H     H_    0.053229 0.230925 0.513559 0.086037
O26   O     O_2   0.128226 0.356802 0.566732 -0.503205
C53   C     C_2   0.216484 0.385558 0.470560 0.408167
H19   H     H_    0.267830 0.445181 0.484994 0.087552
O27   O     O_2   0.141600 0.368838 0.430074 -0.508329
N1    N     N_2   0.764106 0.490985 0.600634 -0.411017
H20   H     H_    0.752576 0.534194 0.582980 0.272111
C54   C     C_3   0.829858 0.475293 0.585853 -0.630625
H21   H     H_    0.819570 0.466897 0.521115 0.236211
H22   H     H_    0.824805 0.414800 0.585997 0.245608
H23   H     H_    0.895664 0.531381 0.636238 0.224519
C55   C     C_2   0.743722 0.529139 0.909900 0.388408
H24   H     H_    0.797502 0.541535 0.966684 0.081204
O28   O     O_2   0.680513 0.529243 0.915105 -0.530070
N2    N     N_2   0.738071 0.729512 0.333198 -0.374534
H25   H     H_    0.795916 0.749802 0.332337 0.248625
C56   C     C_3   0.678969 0.752484 0.286719 -0.545437
H26   H     H_    0.640458 0.702657 0.216721 0.245810
H27   H     H_    0.716197 0.816144 0.293046 0.214532
H28   H     H_    0.633210 0.756275 0.311449 0.197541
C57   C     C_2   0.852227 0.280397 0.703966 0.366772
H29   H     H_    0.851477 0.332106 0.751156 0.068072
O29   O     O_2   0.789807 0.235481 0.630369 -0.538405
N3    N     N_2   0.144141 0.352447 0.920089 -0.422612
H30   H     H_    0.202707 0.365998 0.921354 0.261761
C58   C     C_3   0.135213 0.319033 0.977706 -0.695921
H31   H     H_    0.129513 0.253754 0.953099 0.223920
H32   H     H_    0.076994 0.314699 0.983381 0.233060
H33   H     H_    0.193534 0.363333 0.043378 0.238888
N4    N     N_2   0.929576 0.918120 0.723606 -0.388637
H34   H     H_    0.975995 0.922126 0.704811 0.287052
C59   C     C_3   0.958390 0.998083 0.798797 -0.694484
H35   H     H_    0.020449 0.015805 0.852882 0.234019
H36   H     H_    0.909430 0.990478 0.820724 0.225207
H37   H     H_    0.969273 0.051286 0.782842 0.227388
C60   C     C_2   0.798302 0.795112 0.727049 0.497812
H38   H     H_    0.819499 0.843362 0.792128 0.057873
O30   O     O_2   0.796431 0.726401 0.714967 -0.554871

loop_
_geom_bond_atom_site_label_1
_geom_bond_atom_site_label_2
_ccdc_geom_bond_type
Cu5   Cu6   S    
C58   H31   S    
C31   C42   S    
C3    N4    S    
C41   C42   A    
C12   O19   A    
N4    C59   S    
C35   C36   A    
C15   C52   S    
C27   O6    A    
C21   C55   S    
C55   O28   D    
C51   H17   S    
C7    C8    A    
Cu3   Cu4   S    
C1    O12   A    
C40   C46   A    
C48   C51   S    
C29   C36   S    
C33   C39   A    
C18   C24   A    
C12   O18   A    
C36   C37   A    
Cu3   O7    S    
C18   C19   A    
C56   H27   S    
Cu1   O18   S    
C38   C39   A    
C16   C17   A    
N1    H20   S    
C15   C16   A    
C32   O16   A    
C30   O11   A    
C54   H21   S    
Cu2   O23   S    
C25   O2    A    
C41   C57   S    
Cu5   O16   S    
Cu2   O12   S    
C28   O7    A    
C55   H24   S    
C2    C50   A    
Cu4   O2    S    
C3    H12   S    
C8    C9    A    
N2    C56   S    
C26   O4    A    
C23   C24   S    
Cu5   O9    S    
C11   H2    S    
C9    C10   A    
C4    C60   S    
C31   O14   A    
C40   H10   S    
C21   C22   A    
Cu3   O24   S    
Cu3   O3    S    
C12   C47   S    
C4    H13   S    
C51   O25   D    
C44   C46   A    
Cu4   O8    S    
C4    C45   S    
C45   C47   A    
C2    C45   A    
C6    H15   S    
C8    H16   S    
C31   O15   A    
C44   H11   S    
Cu1   Cu2   S    
C34   O22   A    
C34   O23   A    
C60   O30   D    
C56   H28   S    
C59   H35   S    
Cu6   O15   S    
C58   H33   S    
C33   H6    S    
C23   O21   A    
Cu3   O5    S    
C43   C44   A    
C18   N1    S    
C29   O9    A    
C37   C38   A    
Cu1   O20   S    
C16   C53   S    
C47   C48   A    
C38   H9    S    
C52   O26   D    
C26   O3    A    
Cu2   O21   S    
C53   O27   D    
C30   O13   A    
C57   H29   S    
Cu4   O4    S    
C27   C46   S    
C40   C41   A    
C49   N2    S    
C32   O17   A    
C22   C24   A    
C42   C43   A    
Cu5   O11   S    
C3    C4    S    
C37   H8    S    
N3    C58   S    
C20   C32   S    
Cu6   O17   S    
C11   C17   A    
C58   H32   S    
C14   C15   A    
C1    C10   S    
Cu1   O1    S    
C60   H38   S    
C27   O5    A    
C5    H14   S    
Cu6   O10   S    
C6    C7    A    
C13   H3    S    
C19   H4    S    
C54   H23   S    
C1    O1    A    
C19   C20   A    
C26   C50   S    
C2    C3    S    
C29   O10   A    
C56   H26   S    
C25   C39   S    
C22   H5    S    
C11   C13   A    
Cu6   O13   S    
C5    C6    A    
N1    C54   S    
Cu5   O14   S    
C59   H37   S    
C48   C49   A    
C52   H18   S    
C33   C35   A    
C54   H22   S    
N4    H34   S    
C9    H1    S    
C28   O8    A    
C57   O29   D    
Cu1   O22   S    
C5    C10   A    
C20   C21   A    
C25   O24   A    
C59   H36   S    
C49   C50   A    
C17   C34   S    
C53   H19   S    
C7    C30   S    
C23   O20   A    
Cu2   O19   S    
C35   H7    S    
C14   C28   S    
C13   C14   A    
C43   N3    S    
N2    H25   S    
N3    H30   S    
Cu4   O6    S    
