data_mof_unit_12859.cif
_audit_creation_date              2012-12-10T19:11:31-0500
_audit_creation_method            fapswitch 2.2
_symmetry_space_group_name_H-M    P1
_symmetry_Int_Tables_number       1
_space_group_crystal_system       triclinic
_cell_length_a                    10.734038
_cell_length_b                    9.913233
_cell_length_c                    10.572406
_cell_angle_alpha                 88.170474
_cell_angle_beta                  89.974166
_cell_angle_gamma                 91.280991
_cell_volume                      1124.14410131

loop_
_atom_site_label
_atom_site_type_symbol
_atom_type_description
_atom_site_fract_x
_atom_site_fract_y
_atom_site_fract_z
_atom_type_partial_charge
C1    C     C_R   0.258723 0.499047 0.495669 0.966092
C2    C     C_3   0.934477 0.614140 0.400070 0.560182
C3    C     C_3   0.404686 0.080284 0.404928 0.661818
C4    C     C_3   0.389755 0.919160 0.424683 0.641298
C5    C     C_3   0.624228 0.084613 0.459398 0.101126
C6    C     C_3   0.618633 0.923556 0.447108 0.090603
C7    C     C_3   0.479915 0.076675 0.627428 0.034770
C8    C     C_3   0.489918 0.916290 0.629582 0.116089
C9    C     C_R   0.502348 0.502219 0.258070 1.044793
C10   C     C_R   0.742327 0.501097 0.497659 0.909879
C11   C     C_R   0.504170 0.497937 0.741691 0.972171
C12   C     C_3   0.506577 0.506485 0.123382 -0.206861
C13   C     C_3   0.503699 0.628100 0.030625 0.445940
C14   C     C_3   0.409231 0.432870 0.044181 0.327371
C15   C     C_3   0.402533 0.556548 0.952176 -0.354242
C16   C     C_3   0.508986 0.494164 0.876230 -0.384822
C17   C     C_3   0.608733 0.568680 0.953554 0.247965
C18   C     C_3   0.512988 0.369780 0.967537 0.351803
C19   C     C_3   0.610225 0.446081 0.045813 0.284805
C20   C     C_3   0.074743 0.533382 0.627381 0.179966
C21   C     C_3   0.069799 0.358424 0.455802 0.110935
C22   C     C_3   0.930667 0.529327 0.631459 0.201108
C23   C     C_3   0.926979 0.359560 0.456082 0.199452
C24   C     C_3   0.077142 0.602567 0.391641 -0.345275
C25   C     C_3   0.122506 0.498505 0.492734 -0.156420
C26   C     C_3   0.880090 0.501561 0.496266 -0.219752
Cl1   Cl    Cl    0.905598 0.782929 0.447421 -0.522263
Cl2   Cl    Cl    0.867860 0.599882 0.245336 -0.433357
Cl3   Cl    Cl    0.444941 0.124400 0.242291 -0.311582
Cl4   Cl    Cl    0.365740 0.841014 0.276875 -0.385113
Cl5   Cl    Cl    0.346461 0.139769 0.709014 -0.488174
Cl6   Cl    Cl    0.371899 0.836900 0.730877 -0.441390
Cl7   Cl    Cl    0.740775 0.663302 0.895166 -0.513936
Cl8   Cl    Cl    0.532273 0.195906 0.938698 -0.411919
H1    H     H_    0.316183 0.600796 0.912727 0.239715
H2    H     H_    0.123808 0.702229 0.403971 0.297483
H3    H     H_    0.106199 0.572351 0.295748 0.245440
H4    H     H_    0.259403 0.146205 0.497586 0.346180
H5    H     H_    0.252211 0.945317 0.548943 0.378212
H6    H     H_    0.757328 0.118064 0.336824 0.367037
H7    H     H_    0.609221 0.935734 0.261250 0.426026
H8    H     H_    0.500935 0.815746 0.981487 0.405275
H9    H     H_    0.260748 0.325640 0.021233 0.387186
H10   H     H_    0.768864 0.364533 0.025017 0.389454
H11   H     H_    0.109949 0.666952 0.753772 0.378514
H12   H     H_    0.556382 0.114158 0.688849 0.198578
H13   H     H_    0.083917 0.230532 0.321047 0.391043
H14   H     H_    0.801017 0.444318 0.738240 0.353720
H15   H     H_    0.906038 0.168497 0.500900 0.337506
H16   H     H_    0.576350 0.890513 0.682609 0.141943
H17   H     H_    0.692291 0.106126 0.536044 0.152045
H18   H     H_    0.693984 0.885575 0.509029 0.203209
H19   H     H_    0.111691 0.456554 0.696542 0.158254
H20   H     H_    0.101591 0.282369 0.527828 0.187752
H21   H     H_    0.896894 0.628451 0.662701 0.205941
H22   H     H_    0.890651 0.340218 0.359313 0.194836
N1    N     N_3   0.499750 0.138610 0.497240 -0.201950
N2    N     N_3   0.499750 0.861390 0.497240 -0.201876
O1    O     O_R   0.314910 0.616040 0.499970 -0.517223
O2    O     O_3   0.276703 0.880619 0.485510 -0.651451
O3    O     O_3   0.672614 0.152789 0.350980 -0.614711
O4    O     O_3   0.647083 0.876515 0.326454 -0.575257
O5    O     O_3   0.503803 0.763403 0.062808 -0.593370
O6    O     O_3   0.304894 0.363571 0.094823 -0.613673
O7    O     O_3   0.716873 0.388329 0.098168 -0.629428
O8    O     O_3   0.119369 0.661973 0.660607 -0.662154
O9    O     O_3   0.113286 0.324496 0.335452 -0.662949
O10   O     O_3   0.890345 0.429260 0.720780 -0.671426
O11   O     O_3   0.883280 0.254943 0.538916 -0.688507
O12   O     O_R   0.314910 0.383960 0.499970 -0.584265
O13   O     O_R   0.500080 0.616020 0.313900 -0.537550
O14   O     O_R   0.500080 0.383980 0.313900 -0.504996
O15   O     O_R   0.685320 0.616040 0.499930 -0.590858
O16   O     O_R   0.685320 0.383960 0.499930 -0.549264
O17   O     O_R   0.500150 0.616060 0.686000 -0.569096
O18   O     O_R   0.500150 0.383940 0.686000 -0.588280
O19   O     O_3   0.288842 0.141948 0.410822 -0.672182
Zn1   Zn    Zn3+2 0.500150 0.654960 0.499940 1.117520
Zn2   Zn    Zn3+2 0.500150 0.345040 0.499940 1.104535

loop_
_geom_bond_atom_site_label_1
_geom_bond_atom_site_label_2
_ccdc_geom_bond_type
C23   O11   S    
O18   Zn2   S    
C7    C8    S    
C24   H2    S    
C20   O8    S    
O14   Zn2   S    
C11   O18   A    
C1    O1    A    
C5    C6    S    
C10   O15   A    
C20   C25   S    
C15   C16   S    
C18   C19   S    
C23   C26   S    
C15   H1    S    
C3    Cl3   S    
N1    Zn2   S    
C8    N2    S    
C16   C17   S    
O15   Zn1   S    
C9    O14   A    
C2    Cl1   S    
C10   C26   S    
H15   O11   S    
C21   O9    S    
C1    C25   S    
H10   O7    S    
C17   Cl7   S    
H7    O4    S    
O1    Zn1   S    
H13   O9    S    
C9    C12   S    
H9    O6    S    
C7    Cl5   S    
C8    Cl6   S    
C7    H12   S    
C23   H22   S    
C24   C25   S    
H6    O3    S    
C11   C16   S    
C13   O5    S    
C14   O6    S    
C4    O2    S    
C24   H3    S    
C5    O3    S    
C2    C26   S    
H14   O10   S    
C18   Cl8   S    
C22   O10   S    
C3    N1    S    
C12   C14   S    
O16   Zn2   S    
C21   C23   S    
C2    C24   S    
C3    C4    S    
C3    O19   S    
C8    H16   S    
C21   C25   S    
O12   Zn2   S    
C14   C18   S    
C9    O13   A    
C20   C22   S    
C20   H19   S    
C22   H21   S    
H4    O19   S    
C13   C17   S    
C1    O12   A    
C5    N1    S    
C6    O4    S    
C13   C15   S    
C11   O17   A    
C10   O16   A    
C21   H20   S    
H5    O2    S    
C12   C19   S    
C17   C19   S    
C19   O7    S    
C6    N2    S    
O17   Zn1   S    
N2    Zn1   S    
C12   C13   S    
C16   C18   S    
C22   C26   S    
C4    N2    S    
H11   O8    S    
C14   C15   S    
C5    H17   S    
C2    Cl2   S    
C6    H18   S    
H8    O5    S    
C7    N1    S    
O13   Zn1   S    
C4    Cl4   S    
