data_mof_unit_28977.cif
_audit_creation_date              2012-12-11T15:17:32-0500
_audit_creation_method            fapswitch 2.2
_symmetry_space_group_name_H-M    P1
_symmetry_Int_Tables_number       1
_space_group_crystal_system       triclinic
_cell_length_a                    15.72021
_cell_length_b                    15.743884
_cell_length_c                    34.472096
_cell_angle_alpha                 89.702215
_cell_angle_beta                  90.181702
_cell_angle_gamma                 119.739944
_cell_volume                      7407.89286514

loop_
_atom_site_label
_atom_site_type_symbol
_atom_type_description
_atom_site_fract_x
_atom_site_fract_y
_atom_site_fract_z
_atom_type_partial_charge
C1    C     C_R   0.578350 0.441369 0.554846 0.553043
C2    C     C_R   0.499570 0.987355 0.211944 0.348756
C3    C     C_R   0.488222 0.500049 0.211982 0.348857
C4    C     C_R   0.012260 0.511878 0.211926 0.348768
C5    C     C_R   0.020087 0.440130 0.851283 -0.116268
C6    C     C_R   0.559405 0.584198 0.850423 -0.119914
C7    C     C_R   0.342439 0.838487 0.835588 -0.113872
C8    C     C_R   0.434782 0.010092 0.353177 -0.116496
C9    C     C_R   0.573531 0.566366 0.353289 -0.116589
C10   C     C_R   0.991931 0.425998 0.353505 -0.116578
C11   C     C_R   0.047448 0.449860 0.890097 -0.126344
C12   C     C_R   0.558809 0.137239 0.555174 0.553445
C13   C     C_R   0.549900 0.601071 0.889296 -0.132730
C14   C     C_R   0.332598 0.827764 0.875731 -0.126964
C15   C     C_R   0.446792 0.042268 0.391358 -0.128717
C16   C     C_R   0.594178 0.554045 0.391480 -0.128883
C17   C     C_R   0.959480 0.405657 0.391699 -0.128741
C18   C     C_R   0.077646 0.616477 0.889553 -0.136519
C19   C     C_R   0.384140 0.463783 0.889448 -0.128522
C20   C     C_R   0.486627 0.828228 0.879687 -0.128490
C21   C     C_R   0.614254 0.074124 0.390599 -0.130210
C22   C     C_R   0.459082 0.387229 0.390829 -0.130399
C23   C     C_R   0.863228 0.421437 0.554844 0.553326
C24   C     C_R   0.925738 0.540063 0.390375 -0.130368
C25   C     C_R   0.050604 0.606900 0.850562 -0.120269
C26   C     C_R   0.393743 0.446736 0.850484 -0.115904
C27   C     C_R   0.497059 0.840019 0.839432 -0.115023
C28   C     C_R   0.602242 0.041909 0.352323 -0.117209
C29   C     C_R   0.438426 0.399542 0.352547 -0.117385
C30   C     C_R   0.958199 0.560421 0.352079 -0.117224
C31   C     C_R   0.026122 0.520094 0.830667 0.036092
C32   C     C_R   0.479933 0.509657 0.830224 0.035173
C33   C     C_R   0.425530 0.846405 0.817020 0.036135
C34   C     C_R   0.441482 0.578427 0.054941 0.555398
C35   C     C_R   0.513857 0.014150 0.332725 0.034720
C36   C     C_R   0.498728 0.487630 0.332876 0.034888
C37   C     C_R   0.986928 0.500402 0.332755 0.034778
C38   C     C_R   0.081323 0.539716 0.908950 0.025024
C39   C     C_R   0.460635 0.543935 0.908601 0.023789
C40   C     C_R   0.405237 0.824165 0.898297 0.020046
C41   C     C_R   0.538049 0.079015 0.409712 0.022488
C42   C     C_R   0.540307 0.462839 0.409839 0.022401
C43   C     C_R   0.921565 0.459413 0.409759 0.022493
C44   C     C_R   0.577881 0.442374 0.445619 0.552436
C45   C     C_R   0.137125 0.558616 0.054961 0.556391
C46   C     C_R   0.557829 0.135739 0.445598 0.553513
C47   C     C_R   0.864363 0.422113 0.445609 0.552753
C48   C     C_R   0.442094 0.578412 0.945425 0.542736
C49   C     C_R   0.135789 0.558084 0.945512 0.544499
C50   C     C_R   0.392022 0.809952 0.940680 0.567458
C51   C     C_R   0.920483 0.456578 0.590791 0.022563
C52   C     C_R   0.542598 0.462965 0.590710 0.022737
C53   C     C_R   0.533759 0.072332 0.589350 0.021517
C54   C     C_R   0.455151 0.916511 0.091681 0.022344
C55   C     C_R   0.462116 0.544230 0.091596 0.022457
C56   C     C_R   0.421489 0.862793 0.054973 0.567756
C57   C     C_R   0.082961 0.538173 0.091640 0.022480
C58   C     C_R   0.953273 0.399089 0.609757 -0.129565
C59   C     C_R   0.598534 0.553643 0.608968 -0.129004
C60   C     C_R   0.438347 0.026737 0.604498 -0.129397
C61   C     C_R   0.396554 0.947297 0.110803 -0.128052
C62   C     C_R   0.551218 0.602406 0.110819 -0.128715
C63   C     C_R   0.053219 0.449352 0.111106 -0.128463
C64   C     C_R   0.987074 0.419977 0.647790 -0.116516
C65   C     C_R   0.577516 0.566919 0.646890 -0.116114
C66   C     C_R   0.416741 0.974487 0.639269 -0.116984
C67   C     C_R   0.004158 0.508014 0.709679 0.350206
C68   C     C_R   0.414676 0.976031 0.149443 -0.116416
C69   C     C_R   0.561948 0.584094 0.149521 -0.116592
C70   C     C_R   0.024358 0.438673 0.149762 -0.116355
C71   C     C_R   0.988601 0.498680 0.667443 0.035466
C72   C     C_R   0.500244 0.489704 0.667163 0.035007
C73   C     C_R   0.490227 0.967099 0.659800 0.033520
C74   C     C_R   0.491836 0.974678 0.169565 0.035085
C75   C     C_R   0.483824 0.507198 0.169555 0.035322
C76   C     C_R   0.024537 0.516549 0.169533 0.035194
C77   C     C_R   0.964769 0.561657 0.647187 -0.116957
C78   C     C_R   0.491025 0.496944 0.709329 0.349245
C79   C     C_R   0.438693 0.402181 0.647616 -0.117579
C80   C     C_R   0.584547 0.008491 0.643607 -0.116915
C81   C     C_R   0.555897 0.952675 0.149380 -0.116564
C82   C     C_R   0.398321 0.443223 0.149225 -0.116743
C83   C     C_R   0.045258 0.601898 0.148982 -0.116856
C84   C     C_R   0.930883 0.540708 0.609107 -0.130619
C85   C     C_R   0.459759 0.388892 0.609634 -0.130700
C86   C     C_R   0.606079 0.060551 0.608669 -0.131147
C87   C     C_R   0.537641 0.923729 0.110690 -0.129699
C88   C     C_R   0.387520 0.461650 0.110478 -0.129708
C89   C     C_R   0.470451 0.924474 0.699334 0.346016
C90   C     C_R   0.074335 0.612660 0.110285 -0.129975
C91   C     C_R   0.015210 0.515014 0.788203 0.348335
C92   C     C_R   0.484693 0.503222 0.787798 0.348203
C93   C     C_R   0.439550 0.867128 0.774921 0.350009
C94   C     C_R   0.506964 0.999469 0.290443 0.348569
C95   C     C_R   0.491354 0.494151 0.290543 0.348732
C96   C     C_R   0.001298 0.507947 0.290449 0.348633
Cr1   Cr    Cr6+3 0.522350 0.263930 0.500020 1.018505
Cr2   Cr    Cr6+3 0.736070 0.258420 0.500020 1.019327
Cr3   Cr    Cr6+3 0.741580 0.477650 0.500020 1.018146
Cr4   Cr    Cr6+3 0.263930 0.522350 0.000020 1.012202
Cr5   Cr    Cr6+3 0.258420 0.736070 0.000020 1.012370
Cr6   Cr    Cr6+3 0.477650 0.741580 0.000020 1.016287
H1    H     H_    0.947219 0.334498 0.596107 0.131139
H2    H     H_    0.584425 0.900986 0.096515 0.129639
H3    H     H_    0.318298 0.415074 0.096184 0.129492
H4    H     H_    0.096150 0.681699 0.095822 0.129208
H5    H     H_    0.048175 0.388973 0.904560 0.132818
H6    H     H_    0.610405 0.662825 0.903475 0.131291
H7    H     H_    0.268085 0.822739 0.889143 0.124714
H8    H     H_    0.386405 0.044008 0.405645 0.131098
H9    H     H_    0.656279 0.614028 0.405734 0.131182
H10   H     H_    0.958373 0.343935 0.406222 0.131037
H11   H     H_    0.966412 0.623606 0.661419 0.139736
H12   H     H_    0.662078 0.612453 0.594835 0.131538
H13   H     H_    0.377830 0.341781 0.662333 0.139502
H14   H     H_    0.642747 0.003817 0.658579 0.138880
H15   H     H_    0.616706 0.952172 0.164007 0.139680
H16   H     H_    0.337384 0.382541 0.163789 0.139637
H17   H     H_    0.044775 0.662677 0.163331 0.139491
H18   H     H_    0.999238 0.371462 0.836969 0.140124
H19   H     H_    0.627523 0.632680 0.835778 0.139266
H20   H     H_    0.285671 0.842659 0.819250 0.141152
H21   H     H_    0.365062 0.987094 0.339098 0.139931
H22   H     H_    0.619923 0.635892 0.339138 0.139990
H23   H     H_    0.380879 0.033875 0.590078 0.131181
H24   H     H_    0.015737 0.379791 0.339637 0.139874
H25   H     H_    0.102093 0.686101 0.903655 0.119123
H26   H     H_    0.314571 0.418352 0.903716 0.131292
H27   H     H_    0.542521 0.822921 0.896217 0.135781
H28   H     H_    0.685231 0.101419 0.404223 0.130106
H29   H     H_    0.415770 0.316369 0.404501 0.130187
H30   H     H_    0.897567 0.583176 0.403783 0.130166
H31   H     H_    0.054480 0.669308 0.835548 0.135257
H32   H     H_    0.331677 0.387924 0.835757 0.140285
H33   H     H_    0.561427 0.844836 0.825938 0.140423
H34   H     H_    0.333041 0.943399 0.096704 0.132589
H35   H     H_    0.664101 0.044586 0.337452 0.139791
H36   H     H_    0.379342 0.338002 0.337705 0.139837
H37   H     H_    0.954822 0.619149 0.336971 0.139891
H38   H     H_    0.006864 0.371201 0.662414 0.140006
H39   H     H_    0.625153 0.635962 0.660944 0.140791
H40   H     H_    0.343128 0.942982 0.650719 0.139825
H41   H     H_    0.365186 0.994577 0.164027 0.139987
H42   H     H_    0.629597 0.633419 0.164238 0.139882
H43   H     H_    0.006772 0.371171 0.164641 0.140005
H44   H     H_    0.610374 0.665875 0.096783 0.131830
H45   H     H_    0.058172 0.390326 0.097284 0.131886
H46   H     H_    0.906991 0.586874 0.594957 0.128971
H47   H     H_    0.414828 0.318493 0.596049 0.129883
H48   H     H_    0.680236 0.094681 0.597579 0.128328
N1    N     N_R   0.011440 0.438692 0.768652 -0.225386
N2    N     N_R   0.425756 0.987324 0.232208 -0.224236
N3    N     N_R   0.561099 0.574058 0.232275 -0.224307
N4    N     N_R   0.013611 0.438926 0.232511 -0.224156
N5    N     N_R   0.008366 0.584745 0.729180 -0.221562
N6    N     N_R   0.416070 0.423863 0.729426 -0.224985
N7    N     N_R   0.542717 0.923898 0.720864 -0.224237
N8    N     N_R   0.576981 0.992829 0.231705 -0.224041
N9    N     N_R   0.416340 0.423256 0.231730 -0.224143
N10   N     N_R   0.006079 0.583397 0.231373 -0.224262
N11   N     N_R   0.014474 0.588520 0.767714 -0.223609
N12   N     N_R   0.559223 0.576382 0.767661 -0.224841
N13   N     N_R   0.412617 0.427254 0.767924 -0.223899
N14   N     N_R   0.527538 0.895666 0.757898 -0.220636
N15   N     N_R   0.580923 0.999445 0.270214 -0.224204
N16   N     N_R   0.418257 0.420028 0.270283 -0.224259
N17   N     N_R   0.000014 0.581103 0.269898 -0.224186
N18   N     N_R   0.366746 0.865581 0.753125 -0.220421
N19   N     N_R   0.429541 0.993601 0.270644 -0.224446
N20   N     N_R   0.562840 0.570983 0.270755 -0.224518
N21   N     N_R   0.007879 0.436811 0.270964 -0.224519
N22   N     N_R   0.005672 0.435085 0.730206 -0.225105
N23   N     N_R   0.562503 0.573144 0.729236 -0.222767
N24   N     N_R   0.381858 0.893613 0.716143 -0.224421
O1    O     O_R   0.498680 0.159540 0.541860 -0.520785
O2    O     O_R   0.358060 0.532760 0.040030 -0.502464
O3    O     O_R   0.174700 0.641940 0.040030 -0.504595
O4    O     O_R   0.467240 0.825300 0.040030 -0.498839
O5    O     O_R   0.498590 0.161190 0.456930 -0.521773
O6    O     O_R   0.838810 0.337400 0.456930 -0.522060
O7    O     O_R   0.662600 0.501410 0.456930 -0.521696
O8    O     O_R   0.161190 0.498590 0.956930 -0.520378
O9    O     O_R   0.337400 0.838810 0.956930 -0.512409
O10   O     O_R   0.501410 0.662600 0.956930 -0.534850
O11   O     O_R   0.532680 0.359580 0.461300 -0.503702
O12   O     O_R   0.840460 0.339140 0.541860 -0.521641
O13   O     O_R   0.640420 0.173100 0.461300 -0.503393
O14   O     O_R   0.826900 0.467320 0.461300 -0.503292
O15   O     O_R   0.359580 0.532680 0.961300 -0.504812
O16   O     O_R   0.173100 0.640420 0.961300 -0.524129
O17   O     O_R   0.467320 0.826900 0.961300 -0.497255
O18   O     O_3   0.666667 0.333333 0.499990 -0.240232
O19   O     O_3   0.333333 0.666667 0.999990 -0.267487
O20   O     O_R   0.660860 0.501320 0.541860 -0.521063
O21   O     O_R   0.159540 0.498680 0.041860 -0.518012
O22   O     O_R   0.339140 0.840460 0.041860 -0.514278
O23   O     O_R   0.501320 0.660860 0.041860 -0.519025
O24   O     O_R   0.532760 0.358060 0.540030 -0.506262
O25   O     O_R   0.641940 0.174700 0.540030 -0.505016
O26   O     O_R   0.825300 0.467240 0.540030 -0.505515

loop_
_geom_bond_atom_site_label_1
_geom_bond_atom_site_label_2
_ccdc_geom_bond_type
C25   C31   A    
C14   H7    S    
C6    C32   A    
Cr6   O19   S    
C26   C32   A    
Cr1   O1    S    
C22   C29   A    
C79   H13   S    
C22   H29   S    
C4    N4    A    
C50   O9    A    
C34   O23   A    
C79   C85   A    
C20   H27   S    
Cr1   O18   S    
N12   N23   A    
C56   O4    A    
Cr4   O19   S    
N5    N11   A    
C69   H42   S    
Cr1   O11   S    
C29   H36   S    
C29   C36   A    
C45   C57   S    
C47   O6    A    
Cr2   O25   S    
C10   C37   A    
C60   H23   S    
C9    C16   A    
C5    C11   A    
C72   C79   A    
C86   H48   S    
C94   N19   A    
C54   C87   A    
C20   C40   A    
C82   C88   A    
C64   C71   A    
Cr4   O15   S    
C10   C17   A    
C68   C74   A    
C55   C62   A    
C81   H15   S    
C19   H26   S    
C3    N3    A    
C9    H22   S    
C76   C83   A    
C68   H41   S    
C67   N5    A    
N8    N15   A    
N10   N17   A    
C83   H17   S    
C55   C88   A    
C19   C26   A    
C80   C86   A    
C56   O22   A    
C73   C80   A    
C7    C14   A    
C1    O24   A    
C93   N18   A    
C96   N21   A    
Cr3   O26   S    
Cr4   O2    S    
C9    C36   A    
C72   C78   S    
C41   C46   S    
C36   C95   S    
C53   C86   A    
C46   O13   A    
C25   H31   S    
C12   C53   S    
C2    C74   S    
Cr5   O22   S    
C45   O3    A    
C44   O11   A    
C60   C66   A    
C34   C55   S    
C3    N9    A    
Cr1   O5    S    
C7    C33   A    
C15   H8    S    
C18   C25   A    
C42   C44   S    
C89   N24   A    
C13   H6    S    
C77   H11   S    
C46   O5    A    
C94   N15   A    
C63   H45   S    
Cr3   O14   S    
C95   N20   A    
C53   C60   A    
Cr5   O19   S    
C57   C63   A    
C24   C30   A    
C84   H46   S    
C58   C64   A    
C54   C56   S    
C91   N1    A    
C4    C76   S    
C57   C90   A    
C5    H18   S    
C80   H14   S    
C16   H9    S    
C34   O2    A    
N6    N13   A    
Cr2   O18   S    
Cr5   O16   S    
Cr6   O23   S    
C38   C49   S    
C49   O16   A    
C77   C84   A    
C66   C73   A    
C14   C40   A    
C23   O26   A    
C27   C33   A    
N1    N22   A    
C49   O8    A    
C37   C96   S    
C8    C35   A    
N3    N20   A    
C11   C38   A    
N18   N24   A    
C17   C43   A    
Cr2   O13   S    
C26   H32   S    
C52   C59   A    
C18   H25   S    
C78   N23   A    
C65   H39   S    
C24   H30   S    
C23   C51   S    
Cr3   O20   S    
C63   C70   A    
C2    N8    A    
C2    N2    A    
Cr6   O17   S    
C96   N17   A    
C8    H21   S    
C70   H43   S    
C50   O17   A    
N7    N14   A    
C15   C41   A    
C48   O15   A    
C81   C87   A    
C19   C39   A    
C12   O1    A    
C21   C41   A    
C62   C69   A    
C92   N13   A    
C54   C61   A    
C21   C28   A    
C8    C15   A    
C31   C91   S    
C70   C76   A    
Cr6   O4    S    
C88   H3    S    
C45   O21   A    
C51   C58   A    
C82   H16   S    
C74   C81   A    
Cr2   O6    S    
C17   H10   S    
C16   C42   A    
C71   C77   A    
Cr4   O8    S    
C3    C75   S    
C48   O10   A    
C64   H38   S    
Cr4   O21   S    
C92   N12   A    
C95   N16   A    
C28   C35   A    
C83   C90   A    
C52   C85   A    
C30   H37   S    
Cr1   O24   S    
C28   H35   S    
C33   C93   S    
C4    N10   A    
C23   O12   A    
C75   C82   A    
C89   N7    A    
C66   H40   S    
C20   C27   A    
C67   N22   A    
C65   C72   A    
C93   N14   A    
N9    N16   A    
C27   H33   S    
C35   C94   S    
C1    O20   A    
C18   C38   A    
Cr6   O10   S    
Cr2   O12   S    
C59   C65   A    
C6    C13   A    
C11   H5    S    
N2    N19   A    
C61   C68   A    
C78   N6    A    
Cr3   O18   S    
C59   H12   S    
C40   C50   S    
C44   O7    A    
C12   O25   A    
N4    N21   A    
C69   C75   A    
C67   C71   S    
C1    C52   S    
C85   H47   S    
C21   H28   S    
C13   C39   A    
Cr5   O3    S    
C32   C92   S    
C90   H4    S    
C73   C89   S    
C87   H2    S    
Cr5   O9    S    
C30   C37   A    
C62   H44   S    
C22   C42   A    
C24   C43   A    
C91   N11   A    
Cr3   O7    S    
C58   H1    S    
C7    H20   S    
C6    H19   S    
C47   O14   A    
C10   H24   S    
C43   C47   S    
C51   C84   A    
C61   H34   S    
C39   C48   S    
C5    C31   A    
