data_mof_unit_17903.cif
_audit_creation_date              2012-12-11T15:35:38-0500
_audit_creation_method            fapswitch 2.2
_symmetry_space_group_name_H-M    P1
_symmetry_Int_Tables_number       1
_space_group_crystal_system       triclinic
_cell_length_a                    17.42937
_cell_length_b                    24.377493
_cell_length_c                    14.903932
_cell_angle_alpha                 88.978924
_cell_angle_beta                  124.537232
_cell_angle_gamma                 90.843052
_cell_volume                      5215.49385064

loop_
_atom_site_label
_atom_site_type_symbol
_atom_type_description
_atom_site_fract_x
_atom_site_fract_y
_atom_site_fract_z
_atom_type_partial_charge
C1    C     C_R   0.348134 0.149733 0.904822 -0.134563
C2    C     C_R   0.310431 0.875118 0.908774 -0.118533
C3    C     C_R   0.848134 0.649733 0.904822 -0.134563
C4    C     C_R   0.810431 0.375118 0.908774 -0.118532
C5    C     C_R   0.647288 0.151460 0.091051 -0.090097
C6    C     C_R   0.676044 0.863253 0.090832 -0.067054
C7    C     C_R   0.147288 0.651460 0.091051 -0.090096
C8    C     C_R   0.176044 0.363254 0.090832 -0.067053
C9    C     C_R   0.586647 0.863017 0.909597 -0.128201
C10   C     C_R   0.554631 0.153801 0.910812 -0.138430
C11   C     C_R   0.086647 0.363017 0.909597 -0.128200
C12   C     C_R   0.054631 0.653801 0.910812 -0.138429
C13   C     C_R   0.544423 0.001879 0.718743 0.049000
C14   C     C_R   0.044423 0.501879 0.718743 0.049000
C15   C     C_R   0.824515 0.002161 0.297267 -0.019979
C16   C     C_R   0.324514 0.502161 0.297268 -0.019978
C17   C     C_R   0.613385 0.185695 0.001315 0.071253
C18   C     C_R   0.671537 0.846101 0.999605 0.061252
C19   C     C_R   0.113385 0.685695 0.001315 0.071252
C20   C     C_R   0.171537 0.346102 0.999605 0.061251
C21   C     C_3   0.061187 0.944847 0.515638 -0.437269
C22   C     C_3   0.038547 0.034088 0.576570 -0.299164
C23   C     C_3   0.561187 0.444847 0.515638 -0.437269
C24   C     C_3   0.538547 0.534088 0.576571 -0.299164
C25   C     C_3   0.958009 0.945894 0.431654 -0.383354
C26   C     C_3   0.939968 0.040751 0.475790 -0.391121
C27   C     C_3   0.458010 0.445894 0.431653 -0.383357
C28   C     C_3   0.439968 0.540751 0.475791 -0.391120
C29   C     C_3   0.092438 0.034011 0.445105 -0.155338
C30   C     C_3   0.592438 0.534011 0.445105 -0.155338
C31   C     C_3   0.099123 0.004416 0.545795 0.226514
C32   C     C_3   0.599123 0.504417 0.545795 0.226516
C33   C     C_3   0.925465 0.004540 0.382193 0.196888
C34   C     C_3   0.425465 0.504540 0.382193 0.196888
C35   C     C_R   0.402019 0.873440 0.092382 -0.109882
C36   C     C_R   0.440307 0.152030 0.087720 -0.085850
C37   C     C_R   0.902019 0.373440 0.092382 -0.109882
C38   C     C_R   0.940307 0.652030 0.087720 -0.085851
C39   C     C_3   0.986379 0.026794 0.339590 -0.215210
C40   C     C_3   0.486379 0.526794 0.339590 -0.215210
C41   C     C_R   0.163091 0.810198 0.900543 -0.153248
C42   C     C_R   0.270364 0.257310 0.890762 -0.162330
C43   C     C_R   0.663091 0.310198 0.900543 -0.153248
C44   C     C_R   0.770363 0.757310 0.890762 -0.162330
C45   C     C_R   0.611348 0.267100 0.900881 -0.156756
C46   C     C_R   0.717558 0.797188 0.894457 -0.151440
C47   C     C_R   0.111348 0.767100 0.900882 -0.156756
C48   C     C_R   0.217558 0.297189 0.894457 -0.151440
C49   C     C_R   0.633549 0.244517 0.999897 0.067912
C50   C     C_R   0.742094 0.816902 0.995498 0.058445
C51   C     C_R   0.133549 0.744517 0.999897 0.067911
C52   C     C_R   0.242094 0.316903 0.995498 0.058445
C53   C     C_R   0.691579 0.274985 0.096516 -0.074889
C54   C     C_R   0.832010 0.805425 0.089373 -0.071503
C55   C     C_R   0.191579 0.774985 0.096517 -0.074887
C56   C     C_R   0.332011 0.305425 0.089373 -0.071503
C57   C     C_R   0.247835 0.816424 0.096273 -0.206113
C58   C     C_R   0.384305 0.265278 0.084431 -0.184189
C59   C     C_R   0.747834 0.316424 0.096273 -0.206113
C60   C     C_R   0.884305 0.765278 0.084431 -0.184189
C61   C     C_R   0.239101 0.830450 0.999366 0.125823
C62   C     C_R   0.347963 0.237109 0.988215 0.123923
C63   C     C_R   0.739101 0.330450 0.999366 0.125822
C64   C     C_R   0.847963 0.737109 0.988215 0.123922
C65   C     C_R   0.604963 0.952932 0.627655 -0.151780
C66   C     C_R   0.597803 0.052181 0.618613 -0.150217
C67   C     C_R   0.104964 0.452932 0.627655 -0.151780
C68   C     C_R   0.097803 0.552181 0.618613 -0.150217
C69   C     C_R   0.606963 0.952300 0.536266 -0.160855
C70   C     C_R   0.601037 0.051647 0.528246 -0.158875
C71   C     C_R   0.106963 0.452300 0.536266 -0.160855
C72   C     C_R   0.101037 0.551647 0.528246 -0.158875
C73   C     C_R   0.594790 0.001454 0.479728 0.128899
C74   C     C_R   0.094790 0.501454 0.479728 0.128899
C75   C     C_R   0.544516 0.045707 0.300459 -0.109372
C76   C     C_R   0.546611 0.954707 0.303392 -0.135626
C77   C     C_R   0.044516 0.545707 0.300459 -0.109371
C78   C     C_R   0.046611 0.454707 0.303392 -0.135626
C79   C     C_R   0.588512 0.002544 0.660114 0.139393
C80   C     C_R   0.088512 0.502544 0.660114 0.139393
C81   C     C_R   0.243454 0.955445 0.699061 -0.137996
C82   C     C_R   0.242380 0.047597 0.703893 -0.154918
C83   C     C_R   0.743454 0.455445 0.699061 -0.137996
C84   C     C_R   0.742380 0.547597 0.703894 -0.154917
C85   C     C_R   0.377948 0.181844 0.993736 0.066682
C86   C     C_R   0.313304 0.860324 0.000964 0.054350
C87   C     C_R   0.877948 0.681844 0.993736 0.066682
C88   C     C_R   0.813304 0.360324 0.000964 0.054350
C89   C     C_R   0.561040 0.000403 0.365286 0.050377
C90   C     C_R   0.061040 0.500403 0.365286 0.050377
C91   C     C_R   0.193564 0.002413 0.644391 -0.033907
C92   C     C_R   0.693564 0.502413 0.644391 -0.033907
C93   C     C_R   0.517564 0.046952 0.749779 -0.122443
C94   C     C_R   0.510516 0.955767 0.741091 -0.116141
C95   C     C_R   0.017565 0.546952 0.749779 -0.122444
C96   C     C_R   0.010516 0.455768 0.741091 -0.116141
C97   C     C_R   0.768909 0.954980 0.265480 -0.056086
C98   C     C_R   0.767559 0.047606 0.260203 -0.156143
C99   C     C_R   0.268909 0.454979 0.265481 -0.056087
C100  C     C_R   0.267559 0.547606 0.260203 -0.156143
H1    H     H_    0.309837 0.162142 0.820201 0.093802
H2    H     H_    0.253605 0.870903 0.824595 0.091375
H3    H     H_    0.809837 0.662142 0.820201 0.093802
H4    H     H_    0.753605 0.370903 0.824595 0.091375
H5    H     H_    0.072702 0.921612 0.587386 0.164919
H6    H     H_    0.036633 0.009258 0.638823 0.157059
H7    H     H_    0.572703 0.421612 0.587385 0.164919
H8    H     H_    0.536634 0.509258 0.638823 0.157059
H9    H     H_    0.921695 0.931900 0.470162 0.159443
H10   H     H_    0.890185 0.028624 0.497094 0.163425
H11   H     H_    0.421696 0.431899 0.470162 0.159444
H12   H     H_    0.390186 0.528623 0.497094 0.163425
H13   H     H_    0.942361 0.915971 0.369613 0.209230
H14   H     H_    0.927052 0.084711 0.451800 0.184744
H15   H     H_    0.442361 0.415972 0.369613 0.209231
H16   H     H_    0.427052 0.584710 0.451801 0.184744
H17   H     H_    0.148652 0.822873 0.822677 0.106185
H18   H     H_    0.243745 0.238788 0.812940 0.119431
H19   H     H_    0.648653 0.322872 0.822677 0.106185
H20   H     H_    0.743745 0.738788 0.812940 0.119431
H21   H     H_    0.561621 0.248171 0.823597 0.112942
H22   H     H_    0.654085 0.808443 0.818232 0.113698
H23   H     H_    0.061621 0.748171 0.823597 0.112942
H24   H     H_    0.154085 0.308443 0.818232 0.113698
H25   H     H_    0.299234 0.836735 0.171437 0.159657
H26   H     H_    0.450638 0.253974 0.157505 0.185810
H27   H     H_    0.799233 0.336735 0.171436 0.159658
H28   H     H_    0.950638 0.753974 0.157505 0.185810
H29   H     H_    0.606211 0.914091 0.664646 0.111257
H30   H     H_    0.592025 0.091375 0.647039 0.113042
H31   H     H_    0.106211 0.414090 0.664646 0.111257
H32   H     H_    0.092025 0.591375 0.647039 0.113042
H33   H     H_    0.428092 0.867109 0.176990 0.106188
H34   H     H_    0.483492 0.166409 0.170512 0.119419
H35   H     H_    0.928092 0.367109 0.176990 0.106188
H36   H     H_    0.983492 0.666409 0.170512 0.119419
H37   H     H_    0.608767 0.913022 0.505019 0.115711
H38   H     H_    0.598294 0.090661 0.491112 0.115895
H39   H     H_    0.108767 0.413022 0.505019 0.115711
H40   H     H_    0.098294 0.590661 0.491112 0.115895
H41   H     H_    0.560067 0.088119 0.324524 0.092588
H42   H     H_    0.564531 0.912769 0.331927 0.093606
H43   H     H_    0.060067 0.588119 0.324524 0.092588
H44   H     H_    0.064531 0.412769 0.331927 0.093606
H45   H     H_    0.231224 0.913884 0.669527 0.093438
H46   H     H_    0.227738 0.090517 0.682794 0.110621
H47   H     H_    0.731224 0.413884 0.669527 0.093438
H48   H     H_    0.727738 0.590517 0.682794 0.110622
H49   H     H_    0.529708 0.089834 0.742607 0.098038
H50   H     H_    0.508675 0.914641 0.715526 0.089865
H51   H     H_    0.029707 0.589834 0.742607 0.098039
H52   H     H_    0.008675 0.414642 0.715526 0.089865
H53   H     H_    0.789759 0.913224 0.291127 0.100943
H54   H     H_    0.786380 0.090234 0.277914 0.089510
H55   H     H_    0.289759 0.413224 0.291127 0.100943
H56   H     H_    0.286380 0.590234 0.277915 0.089510
H57   H     H_    0.689103 0.162735 0.175559 0.103274
H58   H     H_    0.722863 0.849298 0.173607 0.089530
H59   H     H_    0.189103 0.662734 0.175560 0.103274
H60   H     H_    0.222863 0.349298 0.173607 0.089530
H61   H     H_    0.552295 0.849800 0.826990 0.088383
H62   H     H_    0.506620 0.168097 0.828044 0.088781
H63   H     H_    0.052295 0.349800 0.826990 0.088383
H64   H     H_    0.006620 0.668097 0.828044 0.088781
H65   H     H_    0.096219 0.921855 0.484764 0.188520
H66   H     H_    0.066597 0.074795 0.614085 0.188231
H67   H     H_    0.596219 0.421855 0.484763 0.188519
H68   H     H_    0.566596 0.574794 0.614086 0.188232
N1    N     N_R   0.392140 0.102630 0.941800 -0.041282
N2    N     N_R   0.392140 0.897370 0.941800 -0.043355
N3    N     N_R   0.892140 0.602630 0.941800 -0.041282
N4    N     N_R   0.892140 0.397370 0.941800 -0.043355
N5    N     N_R   0.450890 0.896450 0.057150 -0.045916
N6    N     N_R   0.450890 0.103550 0.057150 -0.046307
N7    N     N_R   0.950890 0.396450 0.057150 -0.045916
N8    N     N_R   0.950890 0.603550 0.057150 -0.046307
N9    N     N_R   0.525160 0.027960 0.206160 -0.041907
N10   N     N_R   0.525160 0.972040 0.206160 -0.043069
N11   N     N_R   0.025160 0.527960 0.206160 -0.041907
N12   N     N_R   0.025160 0.472040 0.206160 -0.043069
N13   N     N_R   0.317870 0.971120 0.792790 -0.033339
N14   N     N_R   0.317870 0.028880 0.792790 -0.031877
N15   N     N_R   0.817870 0.471120 0.792790 -0.033339
N16   N     N_R   0.817870 0.528880 0.792790 -0.031877
N17   N     N_R   0.473480 0.027920 0.793480 -0.044035
N18   N     N_R   0.473480 0.972080 0.793480 -0.041964
N19   N     N_R   0.973480 0.527920 0.793480 -0.044035
N20   N     N_R   0.973480 0.472080 0.793480 -0.041964
N21   N     N_R   0.681610 0.971120 0.207570 -0.048386
N22   N     N_R   0.681610 0.028880 0.207570 -0.036893
N23   N     N_R   0.181610 0.471120 0.207570 -0.048386
N24   N     N_R   0.181610 0.528880 0.207570 -0.036893
N25   N     N_R   0.605410 0.102620 0.056870 -0.043420
N26   N     N_R   0.605410 0.897380 0.056870 -0.048456
N27   N     N_R   0.105410 0.602620 0.056870 -0.043420
N28   N     N_R   0.105410 0.397380 0.056870 -0.048456
N29   N     N_R   0.549680 0.896430 0.944180 -0.042475
N30   N     N_R   0.549680 0.103570 0.944180 -0.042103
N31   N     N_R   0.049680 0.396430 0.944180 -0.042475
N32   N     N_R   0.049680 0.603570 0.944180 -0.042103
Ni1   Ni    Ni4+2 0.433410 0.064680 0.868830 0.212192
Ni2   Ni    Ni4+2 0.433410 0.935320 0.868830 0.219130
Ni3   Ni    Ni4+2 0.933410 0.564680 0.868830 0.212192
Ni4   Ni    Ni4+2 0.933410 0.435320 0.868830 0.219130
Ni5   Ni    Ni4+2 0.565650 0.934380 0.131170 0.217288
Ni6   Ni    Ni4+2 0.565650 0.065620 0.131170 0.225244
Ni7   Ni    Ni4+2 0.065650 0.434380 0.131170 0.217289
Ni8   Ni    Ni4+2 0.065650 0.565620 0.131170 0.225244
C101  C     C_2   0.163614 0.009472 0.428276 0.510055
H69   H     H_    0.207598 0.975560 0.478473 0.029483
O1    O     O_2   0.172385 0.027743 0.357609 -0.538365
C102  C     C_2   0.122759 0.094595 0.471785 0.490292
H70   H     H_    0.188159 0.108523 0.485561 0.045498
O2    O     O_2   0.076919 0.128319 0.481549 -0.620677
C103  C     C_2   0.663613 0.509472 0.428276 0.510054
H71   H     H_    0.707598 0.475561 0.478473 0.029483
O3    O     O_2   0.672384 0.527744 0.357609 -0.538365
C104  C     C_2   0.622759 0.594595 0.471786 0.490285
H72   H     H_    0.688158 0.608524 0.485560 0.045500
O4    O     O_2   0.576919 0.628319 0.481551 -0.620677
C105  C     C_2   0.973759 0.985947 0.254520 0.719239
H73   H     H_    0.913900 0.990007 0.170606 0.044765
O5    O     O_2   0.025167 0.946850 0.277947 -0.572539
C106  C     C_2   0.949580 0.081442 0.277379 0.467556
H74   H     H_    0.919236 0.111475 0.300750 0.070948
O6    O     O_2   0.960449 0.094494 0.205659 -0.558958
C107  C     C_2   0.473758 0.485947 0.254519 0.719241
H75   H     H_    0.413899 0.490008 0.170606 0.044767
O7    O     O_2   0.525167 0.446851 0.277946 -0.572539
C108  C     C_2   0.449579 0.581442 0.277380 0.467553
H76   H     H_    0.419237 0.611476 0.300754 0.070951
O8    O     O_2   0.460446 0.594494 0.205657 -0.558959
C109  C     C_2   0.692412 0.266523 0.195737 0.982493
O9    O     O_2   0.621927 0.250693 0.187837 -0.674514
O10   O     O_R   0.772595 0.278725 0.298106 -0.800223
H77   H     H_    0.764058 0.271827 0.359235 0.328148
C110  C     C_2   0.875775 0.834225 0.192643 0.995430
O11   O     O_2   0.868275 0.883818 0.191507 -0.682236
O12   O     O_R   0.929367 0.804871 0.290901 -0.809268
H78   H     H_    0.959343 0.828601 0.357692 0.313400
C111  C     C_2   0.192413 0.766523 0.195737 0.982491
O13   O     O_2   0.121928 0.750693 0.187838 -0.674513
O14   O     O_R   0.272598 0.778723 0.298107 -0.800223
H79   H     H_    0.264061 0.771825 0.359236 0.328148
C112  C     C_2   0.375775 0.334225 0.192643 0.995430
O15   O     O_2   0.368275 0.383818 0.191507 -0.682236
O16   O     O_R   0.429367 0.304872 0.290901 -0.809268
H80   H     H_    0.459343 0.328601 0.357691 0.313400

loop_
_geom_bond_atom_site_label_1
_geom_bond_atom_site_label_2
_ccdc_geom_bond_type
C68   C80   A    
C38   C87   A    
C30   C32   S    
C43   C63   A    
C98   H54   S    
C58   C62   A    
C65   C79   A    
C53   C109  S    
C63   C88   S    
N14   Ni1   S    
C96   N20   A    
C37   C88   A    
C93   H49   S    
O12   H78   S    
C81   N13   A    
N15   N16   A    
C106  H74   S    
C35   H33   S    
C13   C79   S    
C53   C59   A    
C95   N19   A    
C54   C60   A    
N13   N14   A    
C44   C64   A    
C36   N6    A    
C83   C92   A    
C21   C31   S    
C33   C39   S    
C8    C20   A    
C34   C40   S    
N15   Ni4   S    
C24   H68   S    
C28   H12   S    
C48   C52   A    
C76   N10   A    
C103  O3    D    
C57   H25   S    
C35   C86   A    
C49   C53   A    
N26   N29   A    
C7    H59   S    
C44   H20   S    
C10   C17   A    
C59   H27   S    
O14   H79   S    
C96   H52   S    
N10   Ni5   S    
N19   Ni3   S    
C21   H65   S    
N9    Ni6   S    
N18   Ni2   S    
C68   H32   S    
C111  O13   D    
C2    C86   A    
N17   Ni1   S    
C57   C61   A    
N4    Ni4   S    
C76   H42   S    
C75   H41   S    
C16   C34   S    
C30   C103  S    
C104  O4    D    
N22   Ni6   S    
N27   Ni8   S    
N13   Ni2   S    
N21   Ni5   S    
C99   H55   S    
C36   H34   S    
N1    N6    A    
C37   H35   S    
C69   C73   A    
C24   H8    S    
C23   C27   S    
N12   Ni7   S    
C28   H16   S    
C109  O9    D    
C26   H10   S    
C64   C87   S    
C51   C55   A    
N4    N7    A    
C25   H9    S    
C76   C89   A    
C30   C104  S    
C81   H45   S    
C100  H56   S    
C97   N21   A    
C27   H11   S    
C10   H62   S    
N16   Ni3   S    
C4    N4    A    
C110  O11   D    
C1    C85   A    
N24   Ni8   S    
C100  N24   A    
C15   C97   A    
N28   N31   A    
C10   N30   A    
C14   C96   A    
C6    H58   S    
C44   C46   A    
C46   C50   A    
C84   H48   S    
C27   C34   S    
C69   H37   S    
C110  O12   S    
C6    C18   A    
C62   C85   S    
C77   C90   A    
C22   C31   S    
C105  O5    D    
C3    C87   A    
N23   N24   A    
C35   N5    A    
C94   N18   A    
C84   N16   A    
C72   C74   A    
C17   C49   S    
C38   H36   S    
C16   C100  A    
C47   C51   A    
C32   C92   S    
C45   H21   S    
C22   H6    S    
C31   C91   S    
C11   C20   A    
N20   Ni4   S    
C108  H76   S    
C78   C90   A    
C41   C61   A    
C13   C93   A    
C68   C72   A    
C111  O14   S    
C81   C91   A    
C42   C48   A    
C9    H61   S    
C103  H71   S    
C24   C32   S    
C77   H43   S    
C66   C79   A    
C78   H44   S    
C65   H29   S    
C37   N7    A    
C105  H73   S    
C109  O10   S    
C26   C33   S    
C38   N8    A    
C107  H75   S    
C60   H28   S    
O10   H77   S    
C23   H7    S    
C29   C39   S    
C70   C73   A    
C11   H63   S    
C101  H69   S    
C41   C47   A    
C30   C40   S    
N29   Ni2   S    
C77   N11   A    
C108  O8    D    
C43   C45   A    
C82   C91   A    
C42   H18   S    
C98   N22   A    
C2    N2    A    
C83   H47   S    
C25   H13   S    
C12   N32   A    
C102  O2    D    
C58   H26   S    
C7    C19   A    
C14   C80   S    
C55   C57   A    
N31   Ni4   S    
C97   H53   S    
C23   H67   S    
C39   C106  S    
C95   H51   S    
C82   H46   S    
C15   C98   A    
C7    N27   A    
C8    H60   S    
C1    H1    S    
C14   C95   A    
C6    N26   A    
C18   C50   S    
C29   C102  S    
C5    N25   A    
N27   N32   A    
N3    N8    A    
C3    H3    S    
C26   H14   S    
N26   Ni5   S    
C21   C25   S    
N11   Ni8   S    
C83   N15   A    
N7    Ni7   S    
N25   Ni6   S    
C55   C111  S    
C107  O7    D    
N23   Ni7   S    
C59   C63   A    
C9    N29   A    
C104  H72   S    
C67   H31   S    
C67   C80   A    
C24   C28   S    
C54   C110  S    
C106  O6    D    
C48   H24   S    
C71   C74   A    
C71   H39   S    
O16   H80   S    
C16   C99   A    
C29   C101  S    
C47   H23   S    
C4    C88   A    
C42   C62   A    
C36   C85   A    
C94   H50   S    
C20   C52   S    
C56   C112  S    
C82   N14   A    
C5    H57   S    
C60   C64   A    
C13   C94   A    
C78   N12   A    
C23   C32   S    
N8    Ni8   S    
N28   Ni7   S    
C112  O16   S    
C73   C89   S    
N19   N20   A    
C50   C54   A    
C99   N23   A    
C70   H38   S    
C3    N3    A    
N17   N18   A    
C66   C70   A    
C52   C56   A    
C12   H64   S    
C40   C107  S    
N32   Ni3   S    
C65   C69   A    
C74   C90   S    
C4    H4    S    
C12   C19   A    
C1    N1    A    
C101  O1    D    
C56   C58   A    
C45   C49   A    
C8    N28   A    
N30   Ni1   S    
C67   C71   A    
C28   C34   S    
N3    Ni3   S    
N21   N22   A    
C75   N9    A    
C11   N31   A    
N2    Ni2   S    
C46   H22   S    
C25   C33   S    
C61   C86   S    
C75   C89   A    
N1    Ni1   S    
N11   N12   A    
C22   H66   S    
C19   C51   S    
C9    C18   A    
C72   H40   S    
C5    C17   A    
C102  H70   S    
C29   C31   S    
N9    N10   A    
C22   C26   S    
C43   H19   S    
N6    Ni6   S    
C2    H2    S    
C39   C105  S    
N5    Ni5   S    
C84   C92   A    
C41   H17   S    
C112  O15   D    
C40   C108  S    
C15   C33   S    
C21   H5    S    
N25   N30   A    
C93   N17   A    
C66   H30   S    
N2    N5    A    
C27   H15   S    
