data_mof_unit_62799.cif
_audit_creation_date              2012-12-10T21:09:19-0500
_audit_creation_method            fapswitch 2.2
_symmetry_space_group_name_H-M    P1
_symmetry_Int_Tables_number       1
_space_group_crystal_system       triclinic
_cell_length_a                    10.825129
_cell_length_b                    17.55499
_cell_length_c                    16.82865
_cell_angle_alpha                 89.348095
_cell_angle_beta                  104.652573
_cell_angle_gamma                 91.307211
_cell_volume                      3093.16770487

loop_
_atom_site_label
_atom_site_type_symbol
_atom_type_description
_atom_site_fract_x
_atom_site_fract_y
_atom_site_fract_z
_atom_type_partial_charge
Br1   Br    Br    0.870142 0.398295 0.424927 -0.523680
Br2   Br    Br    0.129858 0.601704 0.575072 -0.523678
Br3   Br    Br    0.252120 0.900179 0.378032 -0.472790
Br4   Br    Br    0.747872 0.099818 0.621969 -0.472792
Br5   Br    Br    0.306112 0.380781 0.668419 -0.484014
Br6   Br    Br    0.693887 0.619219 0.331581 -0.484013
C1    C     C_R   0.500482 0.353742 0.500621 0.920013
C2    C     C_R   0.579898 0.548236 0.262855 0.379992
C3    C     C_R   0.581319 0.548301 0.760732 0.311257
C4    C     C_R   0.418681 0.451699 0.239268 0.311260
C5    C     C_R   0.580821 0.550318 0.845023 -0.309493
C6    C     C_R   0.419179 0.449682 0.154976 -0.309496
C7    C     C_R   0.500030 0.501236 0.875975 0.074592
C8    C     C_R   0.499969 0.498765 0.124025 0.074592
C9    C     C_1   0.500219 0.500566 0.963593 0.002986
C10   C     C_1   0.499780 0.499436 0.036406 0.002987
C11   C     C_R   0.258883 0.502618 0.465441 0.951225
C12   C     C_R   0.499519 0.646258 0.499379 0.920011
C13   C     C_R   0.741117 0.497382 0.534559 0.951225
C14   C     C_2   0.122290 0.497248 0.444560 -0.382217
C15   C     C_2   0.877710 0.502751 0.555439 -0.382214
C16   C     C_2   0.060895 0.518649 0.499680 0.278265
C17   C     C_2   0.939104 0.481351 0.500320 0.278263
C18   C     C_R   0.597046 0.848235 0.549678 -0.240608
C19   C     C_R   0.402948 0.151765 0.450322 -0.240610
C20   C     C_R   0.599499 0.769237 0.549968 0.169621
C21   C     C_R   0.400498 0.230764 0.450031 0.169620
C22   C     C_R   0.498250 0.728390 0.497657 -0.148009
C23   C     C_R   0.496151 0.885936 0.497659 -0.021435
C24   C     C_R   0.501748 0.271610 0.502342 -0.148009
C25   C     C_R   0.396342 0.766527 0.443775 0.107572
C26   C     C_R   0.603654 0.233472 0.556225 0.107572
C27   C     C_R   0.395036 0.846163 0.444950 0.290007
C28   C     C_R   0.604957 0.153835 0.555050 0.290007
C29   C     C_3   0.801629 0.710000 0.561113 -0.662246
C30   C     C_3   0.198367 0.290000 0.438887 -0.662243
C31   C     C_3   0.299098 0.717664 0.307773 -0.636281
C32   C     C_3   0.700900 0.282335 0.692227 -0.636278
C33   C     C_3   0.799332 0.576102 0.759725 -0.741561
C34   C     C_R   0.503842 0.114064 0.502341 -0.021434
C35   C     C_3   0.200669 0.423898 0.240278 -0.741567
C36   C     C_1   0.498588 0.966211 0.499230 0.086324
C37   C     C_1   0.501403 0.033788 0.500770 0.086322
C38   C     C_R   0.419456 0.451749 0.820816 -0.275419
C39   C     C_R   0.580543 0.548252 0.179184 -0.275419
C40   C     C_R   0.420101 0.451764 0.737145 0.379992
H1    H     H_    0.644591 0.589430 0.886108 0.161292
H2    H     H_    0.879981 0.680742 0.605380 0.241468
H3    H     H_    0.842114 0.761470 0.537064 0.259722
H4    H     H_    0.760873 0.670382 0.509872 0.263745
H5    H     H_    0.255928 0.240590 0.343753 0.229240
H6    H     H_    0.120014 0.319258 0.394620 0.241468
H7    H     H_    0.239122 0.329619 0.490128 0.263746
H8    H     H_    0.157885 0.238529 0.462935 0.259721
H9    H     H_    0.266522 0.675232 0.416595 0.232804
H10   H     H_    0.381861 0.682709 0.304619 0.242632
H11   H     H_    0.308641 0.774306 0.279705 0.265932
H12   H     H_    0.355409 0.410570 0.113891 0.161293
H13   H     H_    0.210464 0.689188 0.271428 0.229499
H14   H     H_    0.733478 0.324765 0.583405 0.232804
H15   H     H_    0.618142 0.317295 0.695381 0.242631
H16   H     H_    0.789538 0.310806 0.728573 0.229501
H17   H     H_    0.691348 0.225693 0.720293 0.265931
H18   H     H_    0.654140 0.653555 0.742144 0.221995
H19   H     H_    0.858045 0.612186 0.728272 0.243529
H20   H     H_    0.811508 0.515462 0.745622 0.253923
H21   H     H_    0.834474 0.585088 0.827000 0.220207
H22   H     H_    0.345860 0.346443 0.257851 0.221990
H23   H     H_    0.922529 0.537242 0.608284 0.170265
H24   H     H_    0.141958 0.387814 0.271730 0.243530
H25   H     H_    0.165523 0.414915 0.173003 0.220208
H26   H     H_    0.188495 0.484536 0.254383 0.253924
H27   H     H_    0.077470 0.462758 0.391716 0.170265
H28   H     H_    0.674781 0.880352 0.589526 0.185485
H29   H     H_    0.325212 0.119649 0.410474 0.185484
H30   H     H_    0.355933 0.412847 0.842598 0.182530
H31   H     H_    0.644065 0.587155 0.157402 0.182530
H32   H     H_    0.744071 0.759413 0.656246 0.229241
N1    N     N_R   0.500030 0.500030 0.707240 -0.123346
N2    N     N_R   0.499970 0.499970 0.292760 -0.123345
N3    N     N_2   0.704973 0.731272 0.601890 -0.316522
N4    N     N_2   0.295025 0.268730 0.398110 -0.316518
N5    N     N_2   0.291806 0.725516 0.392013 -0.262093
N6    N     N_2   0.708192 0.274482 0.607987 -0.262095
N7    N     N_2   0.666701 0.596877 0.731475 -0.250180
N8    N     N_2   0.333301 0.403122 0.268524 -0.250177
O1    O     O_R   0.500000 0.389130 0.566570 -0.609657
O2    O     O_R   0.500000 0.610870 0.433430 -0.609656
O3    O     O_R   0.499990 0.389100 0.433480 -0.578611
O4    O     O_R   0.500010 0.610900 0.566520 -0.578614
O5    O     O_R   0.317810 0.500010 0.541690 -0.539789
O6    O     O_R   0.682190 0.499990 0.458310 -0.539789
O7    O     O_R   0.317800 0.499990 0.408610 -0.614077
O8    O     O_R   0.682200 0.500010 0.591390 -0.614076
Zn1   Zn    Zn3+2 0.500010 0.500020 0.588860 1.015907
Zn2   Zn    Zn3+2 0.499990 0.499980 0.411140 1.015908

loop_
_geom_bond_atom_site_label_1
_geom_bond_atom_site_label_2
_ccdc_geom_bond_type
O2    Zn2   S    
C23   C36   S    
H22   N8    S    
C5    H1    S    
C11   O5    A    
C29   N3    S    
O4    Zn1   S    
N1    Zn1   S    
C35   N8    S    
C28   C34   A    
C13   C15   S    
C18   C20   A    
C19   C34   A    
C40   N1    A    
H14   N6    S    
Br3   C27   S    
C9    C10   T    
C1    O3    A    
C23   C27   A    
O6    Zn2   S    
C11   C14   S    
C25   N5    S    
C3    N1    A    
C38   H30   S    
C2    C39   A    
C13   O6    A    
C3    N7    S    
C18   C23   A    
C31   H10   S    
C34   C37   S    
C1    O1    A    
C30   N4    S    
O1    Zn1   S    
C29   H3    S    
C25   C27   A    
C30   H7    S    
N2    Zn2   S    
C30   H6    S    
C35   H25   S    
C32   H15   S    
C6    H12   S    
C1    C24   S    
C21   C24   A    
C33   H19   S    
C29   H2    S    
C38   C40   A    
C8    C39   A    
C21   N4    S    
C26   N6    S    
Br4   C28   S    
C12   O4    A    
C12   C22   S    
C4    N2    A    
Br6   C2    S    
C12   O2    A    
C15   H23   S    
C19   H29   S    
C26   C28   A    
Br2   C16   S    
C29   H4    S    
C3    C5    A    
H5    N4    S    
C31   H13   S    
C13   O8    A    
C4    C6    A    
C35   H26   S    
C14   C16   D    
Br1   C17   S    
O7    Zn2   S    
C15   C17   D    
C19   C21   A    
C33   H20   S    
C8    C10   S    
C11   O7    A    
C36   C37   T    
C33   N7    S    
H9    N5    S    
H18   N7    S    
C32   H17   S    
C4    N8    S    
C32   N6    S    
C33   H21   S    
C22   C25   A    
C6    C8    A    
C20   N3    S    
Br5   C40   S    
C20   C22   A    
O3    Zn2   S    
C7    C9    S    
C24   C26   A    
C5    C7    A    
H32   N3    S    
C18   H28   S    
C14   H27   S    
O8    Zn1   S    
C30   H8    S    
O5    Zn1   S    
C2    N2    A    
C16   C17   S    
C31   N5    S    
C39   H31   S    
C7    C38   A    
C31   H11   S    
C35   H24   S    
C32   H16   S    
