data_mof_unit_13936.cif
_audit_creation_date              2012-12-11T14:40:49-0500
_audit_creation_method            fapswitch 2.2
_symmetry_space_group_name_H-M    P1
_symmetry_Int_Tables_number       1
_space_group_crystal_system       triclinic
_cell_length_a                    24.771533
_cell_length_b                    17.823935
_cell_length_c                    15.440638
_cell_angle_alpha                 89.801236
_cell_angle_beta                  128.999924
_cell_angle_gamma                 90.494325
_cell_volume                      5297.94237695

loop_
_atom_site_label
_atom_site_type_symbol
_atom_type_description
_atom_site_fract_x
_atom_site_fract_y
_atom_site_fract_z
_atom_type_partial_charge
C1    C     C_R   0.348483 0.362527 0.238826 -0.107454
C2    C     C_R   0.654483 0.673983 0.503995 -0.200796
C3    C     C_3   0.498275 0.164188 0.188647 -0.924222
C4    C     C_3   0.072327 0.340799 0.423238 0.316104
C5    C     C_3   0.998270 0.369463 0.353852 -0.870702
C6    C     C_3   0.059406 0.694991 0.320337 0.331891
C7    C     C_3   0.984759 0.676027 0.220575 -0.887961
C8    C     C_1   0.282127 0.416136 0.662509 0.079079
C9    C     C_1   0.202801 0.580949 0.512148 0.040059
C10   C     C_1   0.779974 0.914597 0.659694 0.073779
C11   C     C_1   0.705719 0.083327 0.506797 0.040063
C12   C     C_3   0.571082 0.447349 0.252257 0.235353
C13   C     C_R   0.161723 0.841637 0.494637 -0.264925
C14   C     C_3   0.559784 0.438729 0.143600 -0.869478
C15   C     C_3   0.573967 0.633584 0.237523 0.202505
C16   C     C_3   0.546565 0.682789 0.136193 -0.866587
C17   C     C_3   0.076612 0.940753 0.256362 0.224192
C18   C     C_3   0.063026 0.930639 0.146148 -0.882868
C19   C     C_3   0.077979 0.132812 0.241296 0.202391
C20   C     C_3   0.050232 0.180286 0.138366 -0.868406
C21   C     C_1   0.418690 0.413479 0.711535 -0.008189
C22   C     C_1   0.409950 0.596816 0.703370 -0.029815
C23   C     C_1   0.917561 0.917460 0.710272 -0.008721
C24   C     C_R   0.152705 0.176316 0.505084 -0.217907
C25   C     C_1   0.912063 0.103972 0.704400 -0.028374
C26   C     C_3   0.780005 0.337055 0.767997 0.230294
C27   C     C_3   0.842295 0.369603 0.879422 -0.960307
C28   C     C_3   0.771056 0.560127 0.724958 0.295743
C29   C     C_3   0.848380 0.569373 0.820703 -0.926675
C30   C     C_3   0.283431 0.844521 0.768629 0.236766
C31   C     C_3   0.342702 0.882810 0.877432 -0.963994
C32   C     C_3   0.273256 0.071771 0.728965 0.268362
C33   C     C_3   0.347970 0.086993 0.831722 -0.942181
C34   C     C_R   0.319661 0.388790 0.508734 0.018073
C35   C     C_R   0.317585 0.618380 0.497063 -0.001466
C36   C     C_R   0.819505 0.889067 0.508222 0.016590
C37   C     C_R   0.820266 0.124083 0.497711 -0.002012
C38   C     C_3   0.291175 0.258363 0.499647 -0.458482
C39   C     C_3   0.314058 0.747274 0.540505 -0.466383
C40   C     C_3   0.792312 0.758123 0.498697 -0.460607
C41   C     C_R   0.344094 0.630887 0.227584 -0.137282
C42   C     C_3   0.818120 0.252003 0.546505 -0.470365
C43   C     C_3   0.754326 0.698674 0.513926 -0.488117
C44   C     C_3   0.773793 0.314568 0.537982 -0.454133
C45   C     C_3   0.253774 0.200007 0.517697 -0.498442
C46   C     C_3   0.270110 0.810648 0.531423 -0.447367
C47   C     C_3   0.283810 0.341191 0.624243 -0.119984
C48   C     C_3   0.246924 0.648553 0.558459 -0.075747
C49   C     C_3   0.784309 0.839942 0.623616 -0.114056
C50   C     C_3   0.747371 0.152433 0.554293 -0.077944
C51   C     C_3   0.195683 0.355609 0.414877 -0.608926
C52   C     C_R   0.835804 0.885926 0.204989 -0.108301
C53   C     C_3   0.205444 0.688183 0.367612 -0.585865
C54   C     C_3   0.696076 0.854375 0.414351 -0.606705
C55   C     C_3   0.711427 0.196602 0.367641 -0.594814
C56   C     C_3   0.273154 0.339099 0.512504 0.285452
C57   C     C_3   0.271059 0.673207 0.490933 0.291334
C58   C     C_3   0.773590 0.838381 0.511894 0.284321
C59   C     C_3   0.774362 0.179013 0.491617 0.293515
C60   C     C_3   0.695846 0.736154 0.508403 0.234054
C61   C     C_3   0.699744 0.284222 0.485169 0.224437
C62   C     C_3   0.194512 0.238198 0.509573 0.230793
C63   C     C_R   0.843741 0.130201 0.226306 -0.137632
C64   C     C_3   0.197680 0.779956 0.486254 0.219378
C65   C     C_3   0.732378 0.785955 0.615266 -0.463257
C66   C     C_3   0.702692 0.214381 0.548907 -0.484446
C67   C     C_3   0.230335 0.289327 0.614938 -0.455202
C68   C     C_3   0.205890 0.712646 0.558552 -0.485726
C69   C     C_R   0.666901 0.397534 0.801874 -0.149394
C70   C     C_R   0.654733 0.631763 0.771611 -0.143790
C71   C     C_R   0.166743 0.897332 0.801878 -0.156996
C72   C     C_R   0.166483 0.105808 0.801764 -0.077387
C73   C     C_3   0.652757 0.787653 0.401952 0.499078
C74   C     C_R   0.646727 0.374609 0.862887 0.135766
C75   C     C_3   0.668240 0.259461 0.362188 0.527975
C76   C     C_3   0.152111 0.288843 0.402089 0.501612
C77   C     C_3   0.162633 0.751481 0.363248 0.516866
C78   C     C_2   0.692051 0.342580 0.974792 -0.213810
C79   C     C_2   0.649493 0.741148 0.869490 -0.216463
C80   C     C_2   0.191800 0.842906 0.974978 -0.213168
C81   C     C_2   0.190574 0.156657 0.976627 -0.212363
C82   C     C_2   0.759243 0.332109 0.025229 -0.119929
C83   C     C_2   0.699293 0.780506 0.879439 -0.122223
C84   C     C_2   0.259103 0.832751 0.025789 -0.119347
C85   C     C_R   0.622542 0.672410 0.803628 0.128807
C86   C     C_2   0.259446 0.160192 0.035522 -0.104775
C87   C     C_2   0.339183 0.730402 0.107389 -0.194938
C88   C     C_2   0.348762 0.254524 0.133939 -0.210349
C89   C     C_2   0.838724 0.229207 0.105739 -0.194154
C90   C     C_2   0.810102 0.832694 0.030643 -0.214053
C91   C     C_2   0.296761 0.774963 0.109351 -0.117138
C92   C     C_2   0.299915 0.214289 0.125787 -0.117611
C93   C     C_2   0.796819 0.274160 0.108473 -0.117838
C94   C     C_2   0.741237 0.832477 0.971768 -0.104956
C95   C     C_R   0.605280 0.379006 0.405377 0.448722
C96   C     C_R   0.146452 0.874603 0.862857 0.141226
C97   C     C_R   0.599412 0.636014 0.409455 0.420756
C98   C     C_R   0.102701 0.875471 0.404941 0.464465
C99   C     C_R   0.099125 0.136779 0.410139 0.425608
C100  C     C_R   0.388570 0.401348 0.597047 0.045035
C101  C     C_R   0.385026 0.601594 0.590522 0.057613
C102  C     C_R   0.888324 0.902115 0.596860 0.042685
C103  C     C_R   0.886807 0.105503 0.591244 0.068447
C104  C     C_R   0.680137 0.376440 0.592652 0.428850
C105  C     C_R   0.675325 0.629861 0.593099 0.415264
C106  C     C_R   0.180251 0.876625 0.592517 0.438926
C107  C     C_R   0.145730 0.126865 0.862773 0.113180
C108  C     C_R   0.172753 0.132663 0.594550 0.443886
C109  C     C_R   0.312874 0.400918 0.413109 -0.173786
C110  C     C_R   0.312723 0.600033 0.406675 -0.165882
C111  C     C_R   0.812932 0.900663 0.412683 -0.163917
C112  C     C_R   0.813683 0.102496 0.406802 -0.166577
C113  C     C_R   0.577245 0.391657 0.801690 -0.142246
C114  C     C_R   0.561844 0.635385 0.764871 -0.138477
C115  C     C_R   0.076934 0.891639 0.801466 -0.143883
C116  C     C_R   0.076433 0.107813 0.801228 -0.145755
C117  C     C_R   0.436922 0.361256 0.233253 -0.180426
C118  C     C_R   0.663446 0.344493 0.494484 -0.242108
C119  C     C_R   0.427669 0.626354 0.212046 -0.027678
C120  C     C_R   0.924197 0.886000 0.200112 -0.135566
C121  C     C_R   0.927849 0.125864 0.211726 -0.030066
C122  C     C_R   0.377816 0.322618 0.201482 0.135483
C123  C     C_R   0.368855 0.664659 0.178648 0.101682
C124  C     C_R   0.855735 0.863817 0.143231 0.116634
C125  C     C_R   0.868575 0.163710 0.177289 0.100847
C126  C     C_3   0.575021 0.839265 0.427945 0.318475
C127  C     C_3   0.501629 0.869547 0.361005 -0.871189
C128  C     C_3   0.563360 0.193538 0.299023 0.311991
H1    H     H_    0.300686 0.350781 0.224794 0.086948
H2    H     H_    0.770293 0.360621 0.485741 0.151274
H3    H     H_    0.552248 0.494042 0.104458 0.202170
H4    H     H_    0.605664 0.411601 0.160141 0.251011
H5    H     H_    0.544043 0.581768 0.202063 0.093552
H6    H     H_    0.630142 0.622748 0.284017 0.062227
H7    H     H_    0.552246 0.652661 0.079504 0.206307
H8    H     H_    0.490680 0.695063 0.089628 0.250334
H9    H     H_    0.575160 0.736690 0.159619 0.243419
H10   H     H_    0.127819 0.969788 0.316029 0.063994
H11   H     H_    0.034398 0.974331 0.242385 0.091691
H12   H     H_    0.011506 0.903650 0.083789 0.259528
H13   H     H_    0.234339 0.154086 0.455999 0.148814
H14   H     H_    0.063836 0.985792 0.113408 0.204841
H15   H     H_    0.103812 0.894770 0.158512 0.252129
H16   H     H_    0.050993 0.079389 0.207580 0.093939
H17   H     H_    0.134714 0.124811 0.290416 0.060402
H18   H     H_    0.062325 0.152424 0.088187 0.203689
H19   H     H_    0.992990 0.185948 0.085677 0.247862
H20   H     H_    0.073530 0.237237 0.160478 0.249480
H21   H     H_    0.803702 0.294956 0.749203 0.118437
H22   H     H_    0.743962 0.308172 0.777321 0.088183
H23   H     H_    0.828348 0.420330 0.902558 0.255083
H24   H     H_    0.264098 0.854673 0.474598 0.150758
H25   H     H_    0.863562 0.326910 0.945819 0.221966
H26   H     H_    0.883813 0.385096 0.874503 0.256503
H27   H     H_    0.764939 0.533206 0.654072 0.126520
H28   H     H_    0.747763 0.524306 0.753022 0.147767
H29   H     H_    0.856731 0.589776 0.896259 0.252415
H30   H     H_    0.875097 0.515103 0.839430 0.238100
H31   H     H_    0.871453 0.610438 0.797747 0.252849
H32   H     H_    0.310396 0.803507 0.754672 0.114532
H33   H     H_    0.248786 0.813620 0.779328 0.081988
H34   H     H_    0.324771 0.932426 0.895770 0.251854
H35   H     H_    0.291826 0.174242 0.601265 0.213285
H36   H     H_    0.366525 0.842462 0.947423 0.223000
H37   H     H_    0.383305 0.901625 0.871909 0.258474
H38   H     H_    0.273617 0.053058 0.660427 0.112679
H39   H     H_    0.251398 0.026505 0.748451 0.153824
H40   H     H_    0.350118 0.100469 0.904037 0.251396
H41   H     H_    0.380282 0.036997 0.851793 0.235393
H42   H     H_    0.369604 0.135057 0.816027 0.256722
H43   H     H_    0.299614 0.839024 0.612540 0.224027
H44   H     H_    0.792111 0.670551 0.595706 0.220842
H45   H     H_    0.801948 0.340675 0.620368 0.226361
H46   H     H_    0.335645 0.317288 0.691406 0.132393
H47   H     H_    0.292070 0.636266 0.646059 0.127021
H48   H     H_    0.836915 0.817942 0.691308 0.131358
H49   H     H_    0.295901 0.641252 0.212384 0.096304
H50   H     H_    0.791365 0.141418 0.643173 0.127856
H51   H     H_    0.763035 0.753410 0.693219 0.229905
H52   H     H_    0.722360 0.226408 0.633599 0.142329
H53   H     H_    0.259686 0.257749 0.693656 0.235125
H54   H     H_    0.232582 0.728320 0.645134 0.145631
H55   H     H_    0.680156 0.905708 0.430945 0.202448
H56   H     H_    0.679267 0.145429 0.324355 0.186653
H57   H     H_    0.180124 0.407254 0.431688 0.201439
H58   H     H_    0.173429 0.636347 0.328313 0.190876
H59   H     H_    0.184815 0.364432 0.334105 0.154450
H60   H     H_    0.784381 0.884872 0.181046 0.083057
H61   H     H_    0.220991 0.705841 0.316734 0.145474
H62   H     H_    0.685110 0.863266 0.333501 0.153413
H63   H     H_    0.729960 0.215563 0.321380 0.147927
H64   H     H_    0.647595 0.754144 0.337418 0.111436
H65   H     H_    0.678267 0.308240 0.328602 0.100523
H66   H     H_    0.148090 0.254857 0.338937 0.112214
H67   H     H_    0.169803 0.798915 0.324101 0.101879
H68   H     H_    0.718673 0.408715 0.832953 0.126205
H69   H     H_    0.706835 0.640302 0.801901 0.165571
H70   H     H_    0.218503 0.908336 0.833155 0.122183
H71   H     H_    0.795241 0.140294 0.210204 0.096096
H72   H     H_    0.219171 0.101682 0.833193 0.135085
H73   H     H_    0.694525 0.815575 0.618070 0.129183
H74   H     H_    0.649692 0.194888 0.512152 0.133674
H75   H     H_    0.192101 0.320960 0.614665 0.133692
H76   H     H_    0.155257 0.693674 0.533713 0.132676
H77   H     H_    0.283752 0.763795 0.163505 0.129161
H78   H     H_    0.283164 0.228354 0.173936 0.125220
H79   H     H_    0.784289 0.263368 0.163337 0.129617
H80   H     H_    0.717009 0.860394 0.001665 0.125646
H81   H     H_    0.783508 0.355266 0.992340 0.140330
H82   H     H_    0.275365 0.250910 0.414812 0.173863
H83   H     H_    0.716706 0.765706 0.832386 0.140766
H84   H     H_    0.283448 0.855926 0.992977 0.138426
H85   H     H_    0.284659 0.133842 0.006322 0.126754
H86   H     H_    0.351867 0.742314 0.052900 0.131121
H87   H     H_    0.363047 0.240848 0.082368 0.139544
H88   H     H_    0.850925 0.240591 0.050600 0.131566
H89   H     H_    0.833522 0.804057 0.999625 0.139887
H90   H     H_    0.668404 0.317480 0.008159 0.136354
H91   H     H_    0.632379 0.756265 0.916914 0.133187
H92   H     H_    0.168137 0.817812 0.008321 0.134710
H93   H     H_    0.334513 0.763713 0.496231 0.180180
H94   H     H_    0.166242 0.183859 0.007065 0.132791
H95   H     H_    0.265926 0.399434 0.327572 0.102718
H96   H     H_    0.266600 0.596548 0.320429 0.108643
H97   H     H_    0.766414 0.897773 0.326818 0.101667
H98   H     H_    0.767435 0.099531 0.320616 0.108151
H99   H     H_    0.549728 0.389723 0.834176 0.121511
H100  H     H_    0.526545 0.651793 0.779444 0.114578
H101  H     H_    0.048927 0.889626 0.833245 0.119807
H102  H     H_    0.048407 0.106442 0.833147 0.122821
H103  H     H_    0.467405 0.345757 0.209030 0.189358
H104  H     H_    0.777557 0.751569 0.414449 0.177562
H105  H     H_    0.447504 0.627990 0.167492 0.136494
H106  H     H_    0.950039 0.885297 0.164581 0.159338
H107  H     H_    0.948594 0.127507 0.168366 0.140959
H108  H     H_    0.348114 0.248069 0.560786 0.176335
H109  H     H_    0.359575 0.739818 0.629980 0.174222
H110  H     H_    0.849242 0.748122 0.560947 0.176190
H111  H     H_    0.862439 0.242907 0.636140 0.178320
H112  H     H_    0.611467 0.886902 0.475425 0.081346
H113  H     H_    0.580829 0.795846 0.484974 0.094659
H114  H     H_    0.463211 0.823393 0.313031 0.270056
H115  H     H_    0.840293 0.270061 0.505417 0.180556
H116  H     H_    0.493803 0.894596 0.418092 0.200426
H117  H     H_    0.493033 0.913334 0.302179 0.253028
H118  H     H_    0.547827 0.221575 0.344408 0.097804
H119  H     H_    0.595664 0.144379 0.344504 0.097763
H120  H     H_    0.512789 0.126986 0.148746 0.252147
H121  H     H_    0.465761 0.131852 0.202452 0.215911
H122  H     H_    0.468015 0.211679 0.131610 0.263864
H123  H     H_    0.107706 0.389384 0.469297 0.081924
H124  H     H_    0.078480 0.298295 0.481555 0.095169
H125  H     H_    0.960879 0.322292 0.307279 0.270211
H126  H     H_    0.733633 0.654668 0.449054 0.147035
H127  H     H_    0.989273 0.395304 0.409096 0.199378
H128  H     H_    0.989314 0.412263 0.293639 0.253815
H129  H     H_    0.057332 0.729315 0.377918 0.087821
H130  H     H_    0.086184 0.641441 0.357936 0.094592
H131  H     H_    0.983712 0.641008 0.160148 0.252128
H132  H     H_    0.959354 0.644429 0.248518 0.205075
H133  H     H_    0.955273 0.728285 0.178572 0.263917
H134  H     H_    0.617751 0.483595 0.310105 0.060085
H135  H     H_    0.523827 0.472077 0.233662 0.100311
H136  H     H_    0.513079 0.403294 0.084249 0.263932
N1    N     N_R   0.389430 0.421450 0.294590 -0.044183
N2    N     N_R   0.581780 0.577610 0.443390 -0.134682
N3    N     N_R   0.081780 0.922390 0.443390 -0.136934
N4    N     N_R   0.081780 0.077610 0.443390 -0.136133
N5    N     N_R   0.419850 0.423100 0.556610 -0.056949
N6    N     N_R   0.419850 0.576900 0.556610 -0.056364
N7    N     N_R   0.919850 0.923100 0.556610 -0.057527
N8    N     N_R   0.919850 0.076900 0.556610 -0.056307
N9    N     N_R   0.627410 0.423100 0.556610 -0.116266
N10   N     N_R   0.627410 0.576900 0.556610 -0.129159
N11   N     N_R   0.127410 0.923100 0.556610 -0.115517
N12   N     N_R   0.389430 0.578550 0.294590 -0.047170
N13   N     N_R   0.127410 0.076900 0.556610 -0.130320
N14   N     N_R   0.374220 0.422390 0.443390 -0.046107
N15   N     N_R   0.374220 0.577610 0.443390 -0.044072
N16   N     N_R   0.874220 0.922390 0.443390 -0.046332
N17   N     N_R   0.874220 0.077610 0.443390 -0.044628
N18   N     N_R   0.555000 0.424040 0.705410 -0.044563
N19   N     N_R   0.555000 0.575960 0.705410 -0.041082
N20   N     N_R   0.055000 0.924040 0.705410 -0.044031
N21   N     N_R   0.055000 0.075960 0.705410 -0.045694
N22   N     N_R   0.446630 0.421450 0.294590 -0.052857
N23   N     N_R   0.889430 0.921450 0.294590 -0.046182
N24   N     N_R   0.446630 0.578550 0.294590 -0.054886
N25   N     N_R   0.946630 0.921450 0.294590 -0.051132
N26   N     N_R   0.946630 0.078550 0.294590 -0.054019
N27   N     N_1   0.282453 0.473887 0.696738 -0.084767
N28   N     N_1   0.165888 0.529571 0.474588 -0.116020
N29   N     N_1   0.777923 0.972215 0.691709 -0.084145
N30   N     N_1   0.670429 0.030795 0.467596 -0.113171
N31   N     N_1   0.442192 0.423178 0.803403 -0.090185
N32   N     N_1   0.429875 0.593494 0.794117 -0.091196
N33   N     N_1   0.940634 0.929840 0.801344 -0.091121
N34   N     N_R   0.889430 0.078550 0.294590 -0.046948
N35   N     N_1   0.931414 0.103180 0.794918 -0.096763
N36   N     N_R   0.612200 0.424040 0.705410 -0.049460
N37   N     N_R   0.612200 0.575960 0.705410 -0.048889
N38   N     N_R   0.112200 0.924040 0.705410 -0.049957
N39   N     N_R   0.112200 0.075960 0.705410 -0.051249
N40   N     N_R   0.581780 0.422390 0.443390 -0.137182
Ni1   Ni    Ni4+2 0.382890 0.500000 0.370170 0.202477
Ni2   Ni    Ni4+2 0.882890 1.000000 0.370170 0.198739
Ni3   Ni    Ni4+2 0.618740 0.500000 0.629830 0.196610
Ni4   Ni    Ni4+2 0.118740 0.000000 0.629830 0.196437
Ni5   Ni    Ni4+2 0.514090 0.500000 0.370170 0.181035
Ni6   Ni    Ni4+2 0.014090 1.000000 0.370170 0.181982
Ni7   Ni    Ni4+2 0.487550 0.500000 0.629830 0.231365
Ni8   Ni    Ni4+2 0.987550 0.000000 0.629830 0.226250
O1    O     O_3   0.583201 0.807064 0.353661 -0.582900
O2    O     O_3   0.740738 0.631454 0.695801 -0.688585
O3    O     O_3   0.247928 0.898180 0.681807 -0.660171
O4    O     O_3   0.234806 0.137934 0.701361 -0.670856
O5    O     O_3   0.595708 0.245914 0.276400 -0.587085
O6    O     O_3   0.082051 0.307719 0.351258 -0.584514
O7    O     O_3   0.089862 0.735832 0.282792 -0.587093
O8    O     O_3   0.581026 0.376152 0.297168 -0.615637
O9    O     O_3   0.559047 0.666094 0.303484 -0.599166
O10   O     O_3   0.075579 0.870312 0.295367 -0.604855
O11   O     O_3   0.059877 0.165189 0.303192 -0.599576
O12   O     O_3   0.747387 0.394689 0.686922 -0.665047

loop_
_geom_bond_atom_site_label_1
_geom_bond_atom_site_label_2
_ccdc_geom_bond_type
C11   N30   T    
C34   C56   S    
C126  C127  S    
C55   C59   S    
C64   C77   S    
C7    H131  S    
C19   C20   S    
C3    H122  S    
C126  H112  S    
C30   O3    S    
N9    Ni3   S    
C52   N23   A    
C109  N14   A    
C89   C125  S    
C68   H54   S    
C50   C59   S    
C5    H128  S    
C85   C114  A    
C50   H50   S    
C1    H1    S    
C44   H2    S    
N38   Ni4   S    
N2    Ni5   S    
C1    C122  A    
C90   H89   S    
N11   Ni4   S    
C40   C43   S    
N26   N34   A    
N23   N25   A    
C84   C91   S    
C40   H104  S    
C81   C86   D    
C82   H81   S    
N19   N37   A    
C33   H41   S    
C127  H114  S    
C42   C44   S    
C120  N25   A    
C33   H42   S    
C75   O5    S    
C100  N5    A    
N22   Ni5   S    
C40   C58   S    
C87   C91   D    
C111  H97   S    
C94   H80   S    
C4    H124  S    
C88   C122  S    
C72   N39   A    
C13   C106  A    
C14   H4    S    
N4    N13   A    
C55   H63   S    
N6    N15   A    
C78   C82   D    
C79   H91   S    
N3    N11   A    
C36   C111  A    
C69   C74   A    
C12   H134  S    
C63   C125  A    
C14   H136  S    
C10   N29   T    
C60   C65   S    
C70   N37   A    
C20   H18   S    
C33   H40   S    
C3    H120  S    
C105  N10   A    
C15   O9    S    
C4    O6    S    
C79   C85   S    
C110  N15   A    
C63   N34   A    
C116  H102  S    
C61   C118  S    
C26   H21   S    
C106  N11   A    
C4    C5    S    
C105  O2    S    
C6    C7    S    
C119  C123  A    
C6    H130  S    
N7    Ni8   S    
C77   H67   S    
C8    C47   S    
C111  N16   A    
C52   C124  A    
N19   Ni7   S    
C45   H35   S    
C47   H46   S    
C67   H75   S    
C22   N32   T    
C9    C48   S    
C54   H55   S    
C10   C49   S    
N13   Ni4   S    
C29   H30   S    
C68   H76   S    
C42   H115  S    
C71   N38   A    
C117  C122  A    
N18   Ni7   S    
C48   C57   S    
C81   H94   S    
C6    H129  S    
C64   C68   S    
C41   H49   S    
C18   H15   S    
C113  H99   S    
C32   O4    S    
C45   C62   S    
C5    H125  S    
C40   H110  S    
C119  H105  S    
C31   H37   S    
C38   C45   S    
C69   N36   A    
C55   H56   S    
C20   H20   S    
C109  H95   S    
C113  N18   A    
C55   C75   S    
C27   H26   S    
C106  O3    S    
C99   N4    A    
C51   H59   S    
C51   C76   S    
C3    C128  S    
C53   H58   S    
C121  C125  A    
C17   C18   S    
C116  N21   A    
C17   H11   S    
C38   H82   S    
C18   H12   S    
C41   N12   A    
C37   C59   S    
C76   H66   S    
N14   Ni1   S    
C43   C60   S    
N36   Ni3   S    
C89   H88   S    
N23   Ni2   S    
C108  N13   A    
C16   H8    S    
N24   Ni5   S    
C39   H109  S    
C71   H70   S    
C31   H36   S    
C24   C62   S    
C54   H62   S    
C128  H119  S    
C3    H121  S    
C42   C59   S    
N39   Ni4   S    
N15   Ni1   S    
C44   C61   S    
C48   H47   S    
C104  O12   S    
C87   C123  S    
C87   H86   S    
C7    H133  S    
C126  O1    S    
C89   C93   D    
C107  C116  A    
C73   H64   S    
C114  H100  S    
C66   H74   S    
C99   O11   S    
C114  N19   A    
C38   C56   S    
C52   H60   S    
C70   C85   A    
C53   H61   S    
C47   C56   S    
C8    N27   T    
C81   C107  S    
C19   H16   S    
C88   H87   S    
C21   N31   T    
N9    N40   A    
C80   C84   D    
C110  H96   S    
C15   H6    S    
C26   C27   S    
C22   C101  S    
N21   N39   A    
C121  N26   A    
C28   C29   S    
C38   H108  S    
C30   C31   S    
C2    C60   S    
C60   C73   S    
C67   H53   S    
C2    C97   A    
C28   H27   S    
C34   C100  A    
C24   C108  A    
C28   O2    S    
C26   O12   S    
N6    Ni7   S    
C31   H34   S    
C82   C93   S    
C45   H13   S    
C62   C76   S    
C7    H132  S    
C95   O8    S    
C91   H77   S    
N10   Ni3   S    
C90   C94   D    
C104  C118  A    
C14   H3    S    
N40   Ni5   S    
C26   H22   S    
C102  N7    A    
C37   C103  A    
C53   C57   S    
C29   H29   S    
C71   C96   A    
C65   H51   S    
C83   C94   S    
C66   H52   S    
C108  O4    S    
C53   C77   S    
N12   Ni1   S    
C54   C73   S    
C25   N35   T    
C48   C68   S    
C35   C110  A    
C43   H126  S    
N7    N16   A    
N26   Ni6   S    
N12   N24   A    
N8    N17   A    
C27   H23   S    
C90   C124  S    
C4    H123  S    
C35   C101  A    
C9    N28   T    
C42   H111  S    
C84   H84   S    
C35   C57   S    
C128  H118  S    
C32   C33   S    
C11   C50   S    
C78   H90   S    
C79   C83   D    
C74   C113  A    
C5    H127  S    
C13   C64   S    
N2    N10   A    
C117  H103  S    
C112  N17   A    
C92   H78   S    
C97   N2    A    
C74   C78   S    
C32   H39   S    
N37   Ni3   S    
C39   H93   S    
C30   H33   S    
C104  N9    A    
C49   H48   S    
C39   C57   S    
C6    O7    S    
C27   H25   S    
C46   H24   S    
C24   C99   A    
C16   H9    S    
N20   Ni8   S    
N18   N36   A    
C29   H31   S    
C61   C75   S    
C30   H32   S    
N20   N38   A    
C19   H17   S    
C49   C65   S    
C62   C67   S    
C36   C58   S    
C23   C102  S    
C76   O6    S    
C15   C16   S    
C77   O7    S    
C46   H43   S    
C36   C102  A    
C51   C56   S    
C13   C98   A    
N17   Ni2   S    
C37   C112  A    
C120  H106  S    
C61   C66   S    
C88   C92   D    
C121  H107  S    
C95   N40   A    
C96   C115  A    
C17   H10   S    
C127  H117  S    
C80   C96   S    
C23   N33   T    
C47   C67   S    
C95   C118  A    
N16   Ni2   S    
C112  H98   S    
C32   H38   S    
C18   H14   S    
N1    Ni1   S    
C44   H45   S    
C97   O9    S    
C21   C100  S    
C25   C103  S    
C69   H68   S    
C49   C58   S    
C46   C64   S    
C12   H135  S    
C73   O1    S    
N8    Ni8   S    
C51   H57   S    
C72   H72   S    
C72   C107  A    
C98   N3    A    
C126  H113  S    
C20   H19   S    
C1    N1    A    
C50   C66   S    
C17   O10   S    
N3    Ni6   S    
N1    N22   A    
N34   Ni2   S    
C39   C46   S    
C75   H65   S    
C12   C14   S    
C70   H69   S    
C12   O8    S    
C93   H79   S    
C54   C58   S    
N25   Ni6   S    
C127  H116  S    
C80   H92   S    
C43   H44   S    
C19   O11   S    
C15   H5    S    
N21   Ni8   S    
C115  N20   A    
C101  N6    A    
C2    C105  A    
C103  N8    A    
C41   C123  A    
C86   H85   S    
C86   C92   S    
C63   H71   S    
N5    N14   A    
C83   H83   S    
C115  H101  S    
C65   H73   S    
C98   O10   S    
C128  O5    S    
C28   H28   S    
C34   C109  A    
C117  N22   A    
C16   H7    S    
N4    Ni6   S    
C120  C124  A    
C119  N24   A    
N5    Ni7   S    
