data_mof_unit_47158.cif
_audit_creation_date              2012-12-10T18:20:33-0500
_audit_creation_method            fapswitch 2.2
_symmetry_space_group_name_H-M    P1
_symmetry_Int_Tables_number       1
_space_group_crystal_system       triclinic
_cell_length_a                    14.142768
_cell_length_b                    13.522171
_cell_length_c                    14.925204
_cell_angle_alpha                 88.750377
_cell_angle_beta                  88.389696
_cell_angle_gamma                 84.218493
_cell_volume                      2838.15240188

loop_
_atom_site_label
_atom_site_type_symbol
_atom_type_description
_atom_site_fract_x
_atom_site_fract_y
_atom_site_fract_z
_atom_type_partial_charge
C1    C     C_R   0.501149 0.501832 0.327241 0.814718
C2    C     C_R   0.498718 0.498967 0.672551 0.813240
C3    C     C_R   0.502901 0.499616 0.952834 -0.034369
C4    C     C_R   0.509463 0.500633 0.046207 -0.047389
C5    C     C_R   0.504337 0.408001 0.908106 -0.029982
C6    C     C_R   0.513811 0.592692 0.090250 -0.032003
C7    C     C_R   0.470649 0.679688 0.951134 -0.123752
C8    C     C_R   0.530451 0.318104 0.050049 -0.090708
C9    C     C_R   0.501766 0.683081 0.039261 0.463220
C10   C     C_R   0.527541 0.317807 0.956230 0.477742
C11   C     C_R   0.803671 0.436546 0.556167 0.551837
C12   C     C_R   0.196407 0.570079 0.450931 0.536358
C13   C     C_R   0.794026 0.565210 0.445293 -0.032765
C14   C     C_R   0.207348 0.428077 0.548050 -0.053446
C15   C     C_R   0.893967 0.573360 0.450535 -0.116016
C16   C     C_R   0.107425 0.420360 0.542007 -0.152036
C17   C     C_R   0.949930 0.498519 0.498379 -0.015537
C18   C     C_R   0.050777 0.498379 0.498981 -0.000602
C19   C     C_R   0.904840 0.423752 0.545342 -0.204330
C20   C     C_R   0.094863 0.578108 0.459044 -0.227436
C21   C     C_R   0.939148 0.654382 0.411943 0.456950
C22   C     C_R   0.062427 0.337682 0.576885 0.453556
C23   C     C_R   0.516266 0.314426 0.501119 0.885210
C24   C     C_R   0.483911 0.685541 0.497484 0.876201
C25   C     C_R   0.036632 0.662764 0.428249 -0.119661
C26   C     C_R   0.961746 0.340183 0.580830 -0.115331
C27   C     C_1   0.473732 0.788431 0.483126 -0.167631
C28   C     C_1   0.528386 0.210667 0.502905 -0.139507
C29   C     C_2   0.473148 0.979545 0.458975 0.408137
C30   C     C_2   0.543508 0.017371 0.500767 0.401766
C31   C     C_1   0.538457 0.122707 0.503244 -0.056283
C32   C     C_1   0.469293 0.875384 0.469824 -0.062490
C33   C     C_R   0.487825 0.410177 0.815552 -0.108450
C34   C     C_R   0.522444 0.590359 0.184366 -0.026914
C35   C     C_R   0.495093 0.499761 0.767975 -0.221371
C36   C     C_R   0.504968 0.502345 0.231332 -0.197467
C37   C     C_R   0.500729 0.589856 0.810870 -0.065898
C38   C     C_R   0.493268 0.413768 0.187951 -0.071431
C39   C     C_R   0.490971 0.590725 0.904422 -0.011606
C40   C     C_R   0.511263 0.409585 0.095221 -0.015468
N1    N     N_R   0.750030 0.500040 0.500070 -0.170475
N2    N     N_R   0.249970 0.499960 0.499930 -0.164808
O1    O     O_R   0.580280 0.500020 0.367860 -0.593884
O2    O     O_R   0.419720 0.499980 0.632140 -0.647370
O3    O     O_R   0.419730 0.500030 0.367840 -0.605721
O4    O     O_R   0.580270 0.499970 0.632160 -0.606103
O5    O     O_R   0.591830 0.359650 0.500030 -0.599117
O6    O     O_R   0.408170 0.640350 0.499970 -0.574372
O7    O     O_R   0.431280 0.359660 0.500010 -0.578305
O8    O     O_R   0.568720 0.640340 0.499990 -0.643593
Zn1   Zn    Zn3+2 0.607200 0.499990 0.500020 0.974014
Zn2   Zn    Zn3+2 0.392800 0.500010 0.499980 0.981602
O9    O     O_3   0.610210 0.954971 0.548529 -0.650687
C41   C     C_3   0.699911 0.992673 0.551997 0.091511
H1    H     H_    0.741602 0.947580 0.603119 0.183487
H2    H     H_    0.694810 0.070585 0.575571 0.140364
C42   C     C_3   0.754195 0.981327 0.461641 -0.394559
H3    H     H_    0.759590 0.902236 0.441499 0.263241
H4    H     H_    0.715213 0.027145 0.409206 0.203163
C43   C     C_3   0.853986 0.014002 0.467256 -0.849097
H5    H     H_    0.850121 0.093446 0.485475 0.233844
H6    H     H_    0.891410 0.004965 0.401140 0.284015
H7    H     H_    0.895410 0.968075 0.518015 0.280626
O10   O     O_3   0.402600 0.042488 0.416745 -0.649098
C44   C     C_3   0.362303 0.997708 0.343944 0.063323
H8    H     H_    0.297484 0.046457 0.325742 0.184730
H9    H     H_    0.337859 0.923937 0.361835 0.138537
C45   C     C_3   0.430012 0.991891 0.261685 -0.405148
H10   H     H_    0.453990 0.066514 0.247078 0.271747
H11   H     H_    0.493543 0.938958 0.275282 0.220664
C46   C     C_3   0.380838 0.957806 0.179731 -0.721105
H12   H     H_    0.363008 0.880187 0.190149 0.252970
H13   H     H_    0.428709 0.961188 0.119905 0.303538
H14   H     H_    0.314785 0.007106 0.166750 0.257520
C47   C     C_2   0.462006 0.321653 0.767385 0.511303
H15   H     H_    0.490329 0.305779 0.700377 0.027813
O11   O     O_2   0.405251 0.268380 0.800871 -0.487278
C48   C     C_2   0.540748 0.678853 0.236834 0.566831
H16   H     H_    0.498215 0.698485 0.296546 -0.027114
O12   O     O_2   0.607829 0.726053 0.217832 -0.570204
C49   C     C_2   0.524268 0.679685 0.757870 0.366259
H17   H     H_    0.502147 0.690851 0.689156 0.074815
O13   O     O_2   0.571411 0.740412 0.789815 -0.586873
C50   C     C_2   0.454261 0.330210 0.239284 0.378985
H18   H     H_    0.474616 0.313192 0.307831 0.060732
O14   O     O_2   0.396141 0.282010 0.206029 -0.545734
C51   C     C_2   0.402665 0.761343 0.914328 0.451702
H19   H     H_    0.374937 0.756583 0.847761 0.067849
O15   O     O_2   0.372068 0.832097 0.959815 -0.558894
C52   C     C_2   0.565618 0.224876 0.099156 0.496258
H20   H     H_    0.603842 0.228954 0.160784 0.006170
O16   O     O_2   0.551616 0.143101 0.072211 -0.536518
O17   O     O_3   0.513294 0.773801 0.077340 -0.619220
C53   C     C_3   0.577095 0.828591 0.025358 0.194619
H21   H     H_    0.584753 0.898122 0.061542 0.177335
H22   H     H_    0.547581 0.852765 0.959479 0.189679
C54   C     C_3   0.677343 0.773799 0.012075 -0.383014
H23   H     H_    0.711138 0.760221 0.077959 0.268134
H24   H     H_    0.673871 0.700981 0.979945 0.230410
C55   C     C_3   0.739379 0.835110 0.951960 -0.927744
H25   H     H_    0.708369 0.846562 0.884513 0.298794
H26   H     H_    0.811584 0.795258 0.944094 0.269888
H27   H     H_    0.745321 0.908704 0.981729 0.261626
O18   O     O_3   0.548375 0.228680 0.912382 -0.556081
C56   C     C_3   0.643802 0.221093 0.880597 0.063966
H28   H     H_    0.693252 0.221530 0.937391 0.132188
H29   H     H_    0.656248 0.283467 0.833257 0.113629
C57   C     C_3   0.664743 0.123201 0.831149 -0.290018
H30   H     H_    0.659022 0.060004 0.879240 0.240263
H31   H     H_    0.611426 0.118920 0.778362 0.241047
C58   C     C_3   0.763766 0.114314 0.787217 -0.922353
H32   H     H_    0.768373 0.173760 0.735282 0.277492
H33   H     H_    0.777859 0.041108 0.754587 0.263065
H34   H     H_    0.818598 0.120465 0.838098 0.282223
O19   O     O_3   0.758994 0.387196 0.624999 -0.659964
C59   C     C_3   0.756051 0.443873 0.704470 0.104401
H35   H     H_    0.690820 0.428572 0.742981 0.178371
H36   H     H_    0.750656 0.525872 0.691136 0.151742
C60   C     C_3   0.839406 0.412716 0.765720 -0.403799
H37   H     H_    0.845647 0.330932 0.776925 0.260062
H38   H     H_    0.906498 0.434591 0.734545 0.237069
C61   C     C_3   0.824457 0.462590 0.856583 -0.931785
H39   H     H_    0.817821 0.544787 0.847849 0.274880
H40   H     H_    0.886209 0.439803 0.899303 0.277745
H41   H     H_    0.759177 0.439948 0.891162 0.252444
O20   O     O_3   0.242908 0.632900 0.394499 -0.645911
C62   C     C_3   0.227727 0.609838 0.304226 0.085640
H42   H     H_    0.151110 0.607683 0.290100 0.110532
H43   H     H_    0.265670 0.536102 0.287832 0.184491
C63   C     C_3   0.265227 0.689747 0.242949 -0.354294
H44   H     H_    0.223176 0.762307 0.255573 0.222484
H45   H     H_    0.340224 0.697222 0.258385 0.218167
C64   C     C_3   0.259118 0.664409 0.144309 -0.917379
H46   H     H_    0.301900 0.592762 0.129974 0.270706
H47   H     H_    0.287421 0.723741 0.101965 0.295010
H48   H     H_    0.184023 0.658977 0.126799 0.261699
C65   C     C_2   0.737302 0.621407 0.377280 0.593039
H49   H     H_    0.696206 0.691059 0.393433 0.078103
O21   O     O_2   0.738644 0.590378 0.301087 -0.580160
C66   C     C_2   0.264211 0.368598 0.615003 0.627518
H50   H     H_    0.275420 0.400476 0.679400 0.042279
O22   O     O_2   0.298615 0.284186 0.599251 -0.547448
O23   O     O_3   0.885680 0.731470 0.368542 -0.639895
C67   C     C_3   0.911609 0.731158 0.276162 0.138073
H51   H     H_    0.889838 0.663840 0.244034 0.158362
H52   H     H_    0.989740 0.731811 0.264854 0.150704
C68   C     C_3   0.861817 0.823655 0.230755 -0.297907
H53   H     H_    0.783969 0.817907 0.230841 0.242551
H54   H     H_    0.874529 0.890611 0.268771 0.249052
C69   C     C_3   0.898874 0.835955 0.134634 -0.963028
H55   H     H_    0.975842 0.846264 0.133825 0.275622
H56   H     H_    0.860150 0.902584 0.103013 0.274469
H57   H     H_    0.888162 0.769443 0.095264 0.269561
O24   O     O_3   0.116540 0.252434 0.605503 -0.580888
C70   C     C_3   0.127030 0.183733 0.534759 0.162424
H58   H     H_    0.172131 0.211734 0.479284 0.144735
H59   H     H_    0.056997 0.170803 0.507159 0.114982
C71   C     C_3   0.174994 0.084604 0.570311 -0.237689
H60   H     H_    0.252352 0.090240 0.576892 0.257988
H61   H     H_    0.144648 0.067589 0.637768 0.257308
C72   C     C_3   0.160579 0.999208 0.508566 -0.945240
H62   H     H_    0.084718 0.984396 0.510831 0.286927
H63   H     H_    0.204584 0.930905 0.530817 0.264072
H64   H     H_    0.181310 0.017697 0.438533 0.262575
C73   C     C_2   0.074533 0.762341 0.424818 0.415082
H65   H     H_    0.143487 0.771408 0.451500 0.113521
O25   O     O_2   0.027821 0.836935 0.397047 -0.583493
C74   C     C_2   0.917463 0.250667 0.614772 0.410527
H66   H     H_    0.851324 0.232187 0.587620 0.086804
O26   O     O_2   0.954368 0.196499 0.673253 -0.549381

loop_
_geom_bond_atom_site_label_1
_geom_bond_atom_site_label_2
_ccdc_geom_bond_type
C2    C35   S    
C51   H19   S    
C73   H65   S    
C70   H59   S    
C58   H32   S    
C24   C27   S    
C68   H53   S    
C1    O3    A    
C54   C55   S    
C6    C9    A    
C13   N1    A    
C72   H62   S    
C42   H3    S    
O9    C41   S    
C57   H30   S    
C65   O21   D    
C11   C19   A    
O17   C53   S    
C43   H7    S    
C68   H54   S    
C50   O14   D    
C29   C32   S    
C45   C46   S    
C30   C31   S    
C48   O12   D    
C23   O7    A    
C12   O20   S    
C20   C25   A    
O23   C67   S    
C59   H35   S    
C43   H6    S    
C19   C26   A    
C12   N2    A    
C71   C72   S    
C72   H63   S    
C1    O1    A    
C7    C51   S    
C4    C40   A    
C2    O2    A    
C45   H10   S    
C44   H9    S    
C69   H57   S    
C5    C33   A    
C17   C18   A    
C64   H48   S    
C11   O19   S    
C18   C20   A    
C65   H49   S    
C14   N2    A    
C38   C50   S    
O2    Zn2   S    
C74   O26   D    
C29   O10   S    
C3    C39   A    
C73   O25   D    
C70   C71   S    
C71   H61   S    
C37   C49   S    
C67   C68   S    
O18   C56   S    
C49   O13   D    
C33   C47   S    
C54   H23   S    
C60   H38   S    
C24   O8    A    
C56   C57   S    
C41   H2    S    
C23   O5    A    
C24   O6    A    
C68   C69   S    
C66   H50   S    
C21   O23   S    
C67   H52   S    
C54   H24   S    
C46   H13   S    
C48   H16   S    
C17   C19   A    
C42   C43   S    
O5    Zn1   S    
C49   H17   S    
O3    Zn2   S    
C25   C73   S    
O4    Zn1   S    
C55   H27   S    
C2    O4    A    
C3    C4    A    
C6    C34   A    
C43   H5    S    
C13   C65   S    
C63   H45   S    
C47   H15   S    
C62   H43   S    
C29   C30   D    
C69   H56   S    
C56   H29   S    
C52   O16   D    
C13   C15   A    
O6    Zn2   S    
O7    Zn2   S    
C26   C74   S    
C12   C20   A    
C55   H26   S    
O8    Zn1   S    
C30   O9    S    
C58   H33   S    
C23   C28   S    
C50   H18   S    
C53   H22   S    
C47   O11   D    
O24   C70   S    
C59   H36   S    
C16   C18   A    
C74   H66   S    
C14   C66   S    
C51   O15   D    
C71   H60   S    
C14   C16   A    
C4    C6    A    
C8    C52   S    
C44   C45   S    
C61   H40   S    
C62   H42   S    
C9    O17   S    
C72   H64   S    
C22   O24   S    
C60   C61   S    
C15   C17   A    
C21   C25   A    
C41   H1    S    
C16   C22   A    
C35   C37   A    
C27   C32   T    
C28   C31   T    
C66   O22   D    
C67   H51   S    
C3    C5    A    
C46   H14   S    
C60   H37   S    
C57   C58   S    
C56   H28   S    
C53   C54   S    
C59   C60   S    
O10   C44   S    
C61   H41   S    
C10   O18   S    
C63   H44   S    
C62   C63   S    
C5    C10   A    
C37   C39   A    
C34   C48   S    
C38   C40   A    
O1    Zn1   S    
C52   H20   S    
C64   H46   S    
O20   C62   S    
C36   C38   A    
C55   H25   S    
C33   C35   A    
C57   H31   S    
C11   N1    A    
C58   H34   S    
C34   C36   A    
C53   H21   S    
C42   H4    S    
C63   C64   S    
C7    C9    A    
C15   C21   A    
C46   H12   S    
C8    C10   A    
C44   H8    S    
C22   C26   A    
C70   H58   S    
C64   H47   S    
C45   H11   S    
C7    C39   A    
C69   H55   S    
C8    C40   A    
C61   H39   S    
N1    Zn1   S    
O19   C59   S    
C1    C36   S    
N2    Zn2   S    
C41   C42   S    
