data_mof_unit_10688.cif
_audit_creation_date              2013-03-05T15:56:26-0500
_audit_creation_method            fapswitch 2.2
_symmetry_space_group_name_H-M    P1
_symmetry_Int_Tables_number       1
_space_group_crystal_system       triclinic
_cell_length_a                    6.926452
_cell_length_b                    14.551548
_cell_length_c                    16.020939
_cell_angle_alpha                 90.262831
_cell_angle_beta                  90.015294
_cell_angle_gamma                 90.010794
_cell_volume                      1614.74295808

loop_
_atom_site_label
_atom_site_type_symbol
_atom_site_description
_atom_site_fract_x
_atom_site_fract_y
_atom_site_fract_z
_atom_type_partial_charge
O1    O     O_R   0.494400 0.415640 0.412830 -0.595605
O2    O     O_R   0.823920 0.405510 0.586560 -0.598153
O3    O     O_R   0.994250 0.584360 0.587170 -0.594900
C1    C     C_R   0.654863 0.383145 0.615349 0.926712
O4    O     O_R   0.824110 0.404610 0.413450 -0.597569
O5    O     O_R   0.994440 0.583460 0.412820 -0.596448
C2    C     C_R   0.655028 0.382179 0.384335 0.924667
O6    O     O_R   0.494210 0.416540 0.587180 -0.596882
O7    O     O_3   0.660810 0.558680 0.500000 -0.274980
V1    V     V_3+5 0.935650 0.489110 0.500000 1.150358
O8    O     O_R   0.324150 0.594490 0.413440 -0.598625
C3    C     C_R   0.155085 0.616663 0.384354 0.918404
O9    O     O_R   0.323970 0.595390 0.586550 -0.600568
C4    C     C_R   0.155159 0.617732 0.615536 0.883275
V2    V     V_3+5 0.435660 0.510890 0.500000 1.147195
O10   O     O_3   0.160630 0.441320 0.500000 -0.269082
C5    C     C_3   0.043823 0.645996 0.763857 -0.349970
H1    H     H_    0.895268 0.623160 0.747254 0.153468
H2    H     H_    0.124669 0.584198 0.784860 0.139030
C6    C     C_3   0.032511 0.716931 0.836645 -0.441033
H3    H     H_    0.109476 0.689411 0.892158 0.158505
H4    H     H_    0.878906 0.726756 0.855029 0.159145
H5    H     H_    0.881113 0.752930 0.637754 0.148435
H6    H     H_    0.853204 0.847107 0.749440 0.065350
C7    C     C_3   0.028079 0.773950 0.658533 -0.466200
C8    C     C_3   0.348994 0.720837 0.712842 -0.344918
C9    C     C_3   0.144461 0.687974 0.686025 0.076835
H7    H     H_    0.423275 0.754023 0.659237 0.175352
H8    H     H_    0.438425 0.660938 0.731948 0.143292
C10   C     C_3   0.122902 0.810188 0.810426 -0.056152
C11   C     C_3   0.009007 0.844185 0.731988 0.278273
C12   C     C_3   0.337005 0.789781 0.786181 -0.299112
H9    H     H_    0.414316 0.760421 0.840867 0.141554
H10   H     H_    0.415319 0.853776 0.769784 0.200974
H11   H     H_    0.099465 0.805783 0.603595 0.186300
C13   C     C_R   0.953213 0.773801 0.215938 -0.141559
H12   H     H_    0.812355 0.792104 0.191876 0.119771
C14   C     C_R   0.964247 0.710654 0.281525 -0.133226
H13   H     H_    0.831345 0.682114 0.305772 0.123044
C15   C     C_R   0.143953 0.684643 0.315157 -0.125746
C16   C     C_R   0.312307 0.723592 0.281277 -0.137889
H14   H     H_    0.453164 0.705290 0.305340 0.121046
C17   C     C_R   0.301272 0.786742 0.215693 -0.134956
H15   H     H_    0.434174 0.815285 0.191447 0.123471
C18   C     C_R   0.121567 0.812742 0.182052 -0.124336
C19   C     C_R   0.812543 0.276698 0.718283 -0.133547
H16   H     H_    0.953563 0.297330 0.696046 0.122518
C20   C     C_R   0.801594 0.212120 0.782567 -0.057754
H17   H     H_    0.934716 0.184921 0.807848 0.136895
C21   C     C_R   0.621631 0.183131 0.813697 -0.138687
C22   C     C_R   0.452891 0.220514 0.778797 -0.105326
H18   H     H_    0.311871 0.199785 0.800968 0.129671
C23   C     C_R   0.463840 0.285219 0.714608 -0.128554
H19   H     H_    0.330727 0.312484 0.689379 0.125300
C24   C     C_R   0.643820 0.314167 0.683446 -0.137752
C25   C     C_R   0.812192 0.274177 0.281295 -0.135238
H20   H     H_    0.953055 0.292740 0.305356 0.121956
C26   C     C_R   0.801138 0.210312 0.215755 -0.134529
H21   H     H_    0.934034 0.181508 0.191543 0.123800
C27   C     C_R   0.621431 0.183942 0.182114 -0.123128
C28   C     C_R   0.453088 0.223248 0.215963 -0.141058
H22   H     H_    0.312230 0.204680 0.191900 0.120023
C29   C     C_R   0.464142 0.287116 0.281506 -0.129839
H23   H     H_    0.331254 0.315922 0.305723 0.123536
C30   C     C_R   0.643855 0.313488 0.315142 -0.125729
O11   O     O_R   0.771300 0.080930 0.910090 -0.584869
O12   O     O_R   0.441270 0.092800 0.083770 -0.601850
O13   O     O_R   0.271080 0.913920 0.084380 -0.598247
C31   C     C_R   0.610316 0.115258 0.112914 0.910574
O14   O     O_R   0.441580 0.091910 0.910670 -0.596815
O15   O     O_R   0.271390 0.913020 0.910040 -0.589634
C32   C     C_R   0.610626 0.114224 0.881844 0.952506
O16   O     O_R   0.770990 0.081830 0.084440 -0.599335
O17   O     O_3   0.604750 0.938760 0.997250 -0.279811
V3    V     V_3+5 0.329850 0.008280 0.997210 1.161979
O18   O     O_R   0.941680 0.901940 0.910610 -0.596938
C33   C     C_R   0.110942 0.879609 0.881673 0.924367
O19   O     O_R   0.941370 0.902830 0.083720 -0.601357
C34   C     C_R   0.110435 0.880703 0.112838 0.911065
V4    V     V_3+5 0.829860 0.986420 0.997150 1.162140
O20   O     O_3   0.104830 0.056030 0.997180 -0.274623
N1    N     N_R   0.067528 0.936845 0.706277 0.227647
O21   O     O_R   0.945951 0.004619 0.712930 -0.413688
O22   O     O_R   0.235658 0.951786 0.672719 -0.412221

loop_
_geom_bond_atom_site_label_1
_geom_bond_atom_site_label_2
_geom_bond_distance
_ccdc_geom_bond_type
C7    C11   1.560777 S    
C10   C12   1.561313 S    
C29   C30   1.408788 A    
C8    C12   1.543750 S    
C16   H14   1.082708 S    
C1    O6    1.296144 A    
C6    C10   1.554030 S    
C23   H19   1.082720 S    
O13   V3    2.004767 S    
C8    C9    1.554939 S    
C11   N1    1.468666 S    
C13   H12   1.082708 S    
C14   C15   1.408766 A    
O5    C3    1.296773 A    
C10   C11   1.565747 S    
O19   V4    2.003730 S    
C26   C27   1.408777 A    
C25   C30   1.406597 A    
C5    C6    1.555800 S    
C25   H20   1.082707 S    
C28   C29   1.401148 A    
C21   C32   1.487707 S    
C10   C33   1.523068 S    
O8    V2    2.003709 S    
O11   C32   1.296146 A    
C19   C24   1.406132 A    
C31   O16   1.296802 A    
O1    V2    2.004926 S    
C4    C9    1.521523 S    
O7    V1    2.156277 S    
O13   C34   1.296804 A    
C20   C21   1.408021 A    
O17   V4    1.706380 S    
O9    C4    1.299061 A    
C16   C17   1.401112 A    
C21   C22   1.406141 A    
C23   C24   1.408125 A    
C19   C20   1.399416 A    
O17   V3    2.156304 S    
C22   H18   1.082725 S    
C5    C9    1.556016 S    
O18   C33   1.301555 A    
O4    C2    1.301481 A    
O19   C34   1.301464 A    
V3    O20   1.706578 S    
C26   H21   1.082731 S    
C27   C28   1.406612 A    
O12   C31   1.301522 A    
C12   H10   1.110212 S    
C3    C15   1.491156 S    
O2    C1    1.300505 A    
C17   H15   1.082733 S    
C2    C30   1.491211 S    
C5    H1    1.113040 S    
C13   C18   1.406603 A    
C18   C34   1.491164 S    
C17   C18   1.408769 A    
O3    C4    1.296929 A    
C7    H11   1.112486 S    
C20   H17   1.082725 S    
C6    H4    1.113098 S    
O6    V2    2.004421 S    
N1    O22   1.301462 A    
O9    V2    2.004594 S    
C1    C24   1.487831 S    
O12   V3    2.003696 S    
O2    V1    2.004404 S    
O15   C33   1.294402 A    
C19   H16   1.082682 S    
C15   C16   1.406601 A    
O1    C2    1.296827 A    
O18   V4    2.004651 S    
V4    O20   2.157006 S    
O5    V1    2.004808 S    
O8    C3    1.301447 A    
C7    C9    1.553795 S    
O11   V4    2.004697 S    
C8    H7    1.113276 S    
C12   H9    1.113613 S    
C13   C14   1.401109 A    
O7    V2    1.707399 S    
H6    C11   1.115635 S    
O4    V1    2.003729 S    
O3    V1    2.004472 S    
V1    O10   1.706561 S    
O15   V3    2.004378 S    
C14   H13   1.082732 S    
C27   C31   1.491214 S    
C5    H2    1.112796 S    
O16   V4    2.008045 S    
C25   C26   1.401080 A    
H5    C7    1.113264 S    
C28   H22   1.082705 S    
C29   H23   1.082731 S    
C6    H3    1.112941 S    
C8    H8    1.113412 S    
N1    O21   1.300965 A    
O14   V3    2.004448 S    
O14   C32   1.300465 A    
C22   C23   1.399545 A    
V2    O10   2.157101 S    
