data_mof_unit_19031.cif
_audit_creation_date              2012-12-10T18:18:15-0500
_audit_creation_method            fapswitch 2.2
_symmetry_space_group_name_H-M    P1
_symmetry_Int_Tables_number       1
_space_group_crystal_system       triclinic
_cell_length_a                    14.088031
_cell_length_b                    14.80057
_cell_length_c                    15.626709
_cell_angle_alpha                 88.798556
_cell_angle_beta                  68.36077
_cell_angle_gamma                 90.573388
_cell_volume                      3027.487427

loop_
_atom_site_label
_atom_site_type_symbol
_atom_type_description
_atom_site_fract_x
_atom_site_fract_y
_atom_site_fract_z
_atom_type_partial_charge
C1    C     C_R   0.500627 0.673481 0.499137 0.983142
C2    C     C_R   0.499432 0.770305 0.495993 -0.299360
C3    C     C_R   0.553469 0.189128 0.418028 0.452494
C4    C     C_R   0.421759 0.811625 0.567184 0.480578
C5    C     C_R   0.536180 0.097592 0.405499 -0.106004
C6    C     C_R   0.400433 0.902669 0.556818 -0.115903
C7    C     C_R   0.466049 0.047300 0.480645 -0.043005
C8    C     C_R   0.468179 0.953065 0.480538 -0.039273
C9    C     C_R   0.397774 0.090560 0.558381 -0.055791
C10   C     C_R   0.542749 0.910025 0.406792 -0.070151
C11   C     C_R   0.586856 0.053619 0.321407 -0.157840
C12   C     C_R   0.498079 0.326534 0.502281 0.959214
C13   C     C_R   0.314648 0.945613 0.620109 -0.171548
C14   C     C_R   0.589875 0.958865 0.322410 0.426642
C15   C     C_R   0.313474 0.040255 0.620427 0.444394
C16   C     C_R   0.436337 0.499856 0.675375 0.885694
C17   C     C_R   0.563638 0.497352 0.324719 0.957515
C18   C     C_R   0.172824 0.460665 0.571693 -0.123315
C19   C     C_R   0.827585 0.538889 0.428375 -0.154760
C20   C     C_R   0.230030 0.544067 0.430318 0.592548
C21   C     C_R   0.768930 0.455642 0.569761 0.573067
C22   C     C_R   0.132527 0.534439 0.422581 -0.154961
C23   C     C_R   0.404058 0.417495 0.085902 -0.122017
C24   C     C_R   0.867398 0.462102 0.576869 -0.176701
C25   C     C_R   0.050710 0.497998 0.499401 0.044674
C26   C     C_R   0.949355 0.498978 0.500331 0.051297
C27   C     C_R   0.070507 0.461945 0.575808 -0.070673
C28   C     C_R   0.929800 0.536068 0.424184 -0.057365
C29   C     C_R   0.114107 0.561815 0.341937 -0.125087
C30   C     C_R   0.886732 0.431720 0.656386 -0.116126
C31   C     C_R   0.012483 0.565918 0.344395 -0.077100
C32   C     C_R   0.987960 0.431148 0.655300 -0.085342
C33   C     C_R   0.396898 0.493610 0.775430 -0.072285
C34   C     C_R   0.599813 0.566697 0.913143 -0.149009
C35   C     C_R   0.603486 0.496553 0.224585 -0.049271
C36   C     C_R   0.277557 0.428773 0.917670 -0.189577
C37   C     C_R   0.728684 0.548226 0.079091 -0.180590
C38   C     C_R   0.301826 0.453115 0.825407 -0.161478
C39   C     C_R   0.702981 0.526494 0.172060 -0.206791
C40   C     C_R   0.462486 0.517954 0.819569 -0.223262
C41   C     C_R   0.536278 0.473807 0.181578 -0.193399
C42   C     C_R   0.440066 0.494690 0.912083 0.088236
C43   C     C_R   0.561583 0.491715 0.087675 0.084372
C44   C     C_R   0.348179 0.445246 0.959882 0.144651
C45   C     C_R   0.331255 0.407327 0.046463 -0.181238
C46   C     C_R   0.656120 0.536298 0.038258 0.154508
C47   C     C_R   0.510461 0.512517 0.955576 0.060278
C48   C     C_R   0.491638 0.473656 0.044037 0.054113
C49   C     C_3   0.296192 0.689370 0.405340 0.092570
C50   C     C_3   0.242509 0.753775 0.360819 -0.392247
C51   C     C_3   0.244787 0.850261 0.393026 -0.915701
C52   C     C_3   0.710057 0.311174 0.610788 0.045393
C53   C     C_3   0.620830 0.254325 0.676428 -0.255090
C54   C     C_3   0.632646 0.154231 0.653983 -0.933205
C55   C     C_2   0.200508 0.578954 0.252582 0.994477
C56   C     C_R   0.674090 0.573499 0.951330 -0.179226
C57   C     C_2   0.801972 0.404075 0.743297 0.997559
C58   C     C_2   0.993431 0.594629 0.260634 0.937414
C59   C     C_2   0.005474 0.405957 0.740964 0.938098
C60   C     C_2   0.358890 0.225120 0.659974 0.957153
C61   C     C_2   0.656936 0.777397 0.352743 1.024994
C62   C     C_3   0.725439 0.220648 0.355374 0.111929
C63   C     C_3   0.798704 0.301285 0.316654 -0.362373
C64   C     C_3   0.819105 0.319936 0.214863 -0.731432
C65   C     C_3   0.404092 0.788232 0.718662 0.074084
C66   C     C_3   0.511443 0.754218 0.704028 -0.389229
C67   C     C_R   0.413963 0.182379 0.569935 -0.142605
C68   C     C_3   0.539459 0.771680 0.787754 -0.936765
C69   C     C_2   0.628976 0.103664 0.231353 0.991290
C70   C     C_2   0.222840 0.894112 0.681800 0.990005
C71   C     C_3   0.558307 0.877685 0.212960 0.074114
C72   C     C_3   0.607761 0.823389 0.125996 -0.268643
C73   C     C_3   0.527435 0.774337 0.099050 -0.951606
C74   C     C_3   0.166650 0.108493 0.627229 0.069807
C75   C     C_3   0.056801 0.120979 0.693575 -0.232203
C76   C     C_3   0.990252 0.159194 0.643828 -0.921561
C77   C     C_R   0.563353 0.818879 0.417593 -0.187889
C78   C     C_R   0.492657 0.229987 0.499553 -0.279576
H1    H     H_    0.263594 0.365999 0.082108 0.159924
H2    H     H_    0.802937 0.578679 0.040561 0.155586
H3    H     H_    0.389942 0.379799 0.149365 0.165686
H4    H     H_    0.616239 0.603526 0.849115 0.161775
H5    H     H_    0.375101 0.716719 0.386536 0.185217
H6    H     H_    0.258364 0.691063 0.481972 0.173592
H7    H     H_    0.281944 0.753512 0.284801 0.257578
H8    H     H_    0.161669 0.731917 0.379481 0.242040
H9    H     H_    0.204465 0.853121 0.468804 0.290499
H10   H     H_    0.206034 0.895662 0.359281 0.276822
H11   H     H_    0.324802 0.874904 0.374536 0.246466
H12   H     H_    0.743750 0.611882 0.914507 0.166151
H13   H     H_    0.781417 0.288938 0.619113 0.129640
H14   H     H_    0.718112 0.298991 0.538758 0.141365
H15   H     H_    0.616383 0.263107 0.748270 0.234503
H16   H     H_    0.548514 0.278387 0.671760 0.227018
H17   H     H_    0.633338 0.143351 0.583701 0.253819
H18   H     H_    0.567389 0.115024 0.703961 0.293705
H19   H     H_    0.704631 0.128892 0.658543 0.263601
H20   H     H_    0.262148 0.655567 0.136301 0.342762
H21   H     H_    0.743659 0.311161 0.846360 0.344172
H22   H     H_    0.007511 0.566469 0.130872 0.342614
H23   H     H_    0.192190 0.431634 0.626840 0.214369
H24   H     H_    0.975524 0.431343 0.874656 0.343137
H25   H     H_    0.321957 0.219929 0.797582 0.348441
H26   H     H_    0.719795 0.678968 0.265293 0.340693
H27   H     H_    0.757733 0.160371 0.314198 0.161354
H28   H     H_    0.721475 0.205986 0.426724 0.071063
H29   H     H_    0.766166 0.362353 0.356296 0.239860
H30   H     H_    0.872320 0.287247 0.324787 0.173703
H31   H     H_    0.854729 0.260493 0.173731 0.252022
H32   H     H_    0.871946 0.379144 0.189722 0.240267
H33   H     H_    0.746861 0.335063 0.204741 0.290966
H34   H     H_    0.808819 0.568888 0.373143 0.181309
H35   H     H_    0.349543 0.758093 0.784303 0.193719
H36   H     H_    0.401780 0.862734 0.727321 0.148621
H37   H     H_    0.514737 0.680750 0.691158 0.230440
H38   H     H_    0.568693 0.789582 0.643160 0.227757
H39   H     H_    0.534739 0.844888 0.802756 0.276157
H40   H     H_    0.618921 0.750033 0.773547 0.265585
H41   H     H_    0.487141 0.732981 0.848945 0.263876
H42   H     H_    0.741465 0.116649 0.106112 0.337812
H43   H     H_    0.110430 0.881129 0.807084 0.340867
H44   H     H_    0.512929 0.932773 0.197913 0.134970
H45   H     H_    0.460957 0.449459 0.224351 0.188060
H46   H     H_    0.505873 0.831381 0.267387 0.136480
H47   H     H_    0.653956 0.869721 0.068481 0.230861
H48   H     H_    0.659465 0.772598 0.137927 0.249533
H49   H     H_    0.484372 0.723837 0.153567 0.284063
H50   H     H_    0.565439 0.738512 0.033869 0.269329
H51   H     H_    0.473301 0.823341 0.088491 0.267882
H52   H     H_    0.165310 0.056628 0.576686 0.108696
H53   H     H_    0.196968 0.173444 0.589368 0.175557
H54   H     H_    0.024248 0.054607 0.726507 0.219768
H55   H     H_    0.056075 0.167333 0.748732 0.284088
H56   H     H_    0.534821 0.548390 0.777749 0.183018
H57   H     H_    0.020345 0.226351 0.611637 0.278888
H58   H     H_    0.911094 0.167229 0.693866 0.290499
H59   H     H_    0.988271 0.112591 0.589687 0.250097
H60   H     H_    0.758168 0.539041 0.203844 0.161262
H61   H     H_    0.249760 0.434640 0.791862 0.199508
H62   H     H_    0.206399 0.392476 0.954374 0.155898
N1    N     N_R   0.249980 0.499930 0.499960 -0.155445
N2    N     N_R   0.750020 0.500070 0.500040 -0.152200
O1    O     O_R   0.419720 0.632140 0.499980 -0.605499
O2    O     O_3   0.691069 0.403336 0.631558 -0.596960
O3    O     O_2   0.272640 0.527957 0.229027 -0.625687
O4    O     O_R   0.199015 0.652024 0.194883 -0.801556
O5    O     O_2   0.729462 0.453516 0.776151 -0.608671
O6    O     O_R   0.805744 0.322025 0.787859 -0.824571
O7    O     O_2   0.950792 0.665895 0.259237 -0.588204
O8    O     O_R   0.024918 0.540067 0.183552 -0.814323
O9    O     O_2   0.059233 0.342022 0.742095 -0.633729
O10   O     O_R   0.958672 0.455018 0.820666 -0.797516
O11   O     O_2   0.309347 0.293242 0.663924 -0.632121
O12   O     O_R   0.580280 0.367860 0.500020 -0.620746
O13   O     O_R   0.362123 0.185209 0.740716 -0.777747
O14   O     O_2   0.740068 0.814238 0.336675 -0.551873
O15   O     O_R   0.650292 0.697841 0.309034 -0.839370
O16   O     O_3   0.628886 0.240638 0.351631 -0.609801
O17   O     O_3   0.370607 0.761440 0.647576 -0.628639
O18   O     O_2   0.582026 0.166644 0.215160 -0.612291
O19   O     O_R   0.721092 0.077511 0.164340 -0.758771
O20   O     O_2   0.190462 0.829262 0.652824 -0.623756
O21   O     O_R   0.172183 0.921006 0.772367 -0.757906
O22   O     O_3   0.635521 0.914621 0.240250 -0.587820
O23   O     O_R   0.580270 0.632160 0.499970 -0.617157
O24   O     O_3   0.227034 0.082505 0.678308 -0.587466
O25   O     O_R   0.419730 0.367840 0.500030 -0.587941
O26   O     O_R   0.373870 0.499980 0.632250 -0.600225
O27   O     O_R   0.626130 0.500020 0.367750 -0.626012
O28   O     O_R   0.534420 0.500000 0.632240 -0.579445
O29   O     O_R   0.465580 0.500000 0.367760 -0.579654
O30   O     O_3   0.304253 0.601039 0.369656 -0.617237
Zn1   Zn    Zn3+2 0.392800 0.499980 0.500010 1.025369
Zn2   Zn    Zn3+2 0.607200 0.500020 0.499990 0.982230

loop_
_geom_bond_atom_site_label_1
_geom_bond_atom_site_label_2
_ccdc_geom_bond_type
C66   C68   S    
H21   O6    S    
C8    C10   A    
C34   C56   A    
C23   C45   A    
C22   C29   A    
C65   H36   S    
C71   H44   S    
C2    C4    A    
H26   O15   S    
C65   O17   S    
C70   O21   S    
C12   O25   A    
C76   H58   S    
C7    C8    A    
N2    Zn2   S    
C62   H27   S    
C53   C54   S    
C52   C53   S    
O29   Zn1   S    
C52   O2    S    
C66   H38   S    
C49   H6    S    
C12   O12   A    
C69   O19   S    
C21   N2    A    
C5    C11   A    
C68   H41   S    
C16   C33   S    
C11   C14   A    
C17   O27   A    
C55   O3    D    
C4    O17   S    
C13   C70   S    
H43   O21   S    
C30   C57   S    
C69   O18   D    
C1    C2    S    
C60   O11   D    
C50   H7    S    
C68   H40   S    
C10   C77   A    
C60   C67   S    
C61   C77   S    
C22   C25   A    
C12   C78   S    
C3    O16   S    
O27   Zn2   S    
C62   O16   S    
C15   O24   S    
C43   C48   A    
C18   C27   A    
C54   H18   S    
C58   O7    D    
O25   Zn1   S    
C40   C42   A    
C53   H16   S    
C39   H60   S    
C74   H53   S    
N1    Zn1   S    
C41   C43   A    
C57   O6    S    
C67   C78   A    
C42   C44   A    
C70   O20   D    
C25   C26   A    
C76   H57   S    
C18   N1    A    
O26   Zn1   S    
C37   H2    S    
C73   H51   S    
C33   C40   A    
C71   O22   S    
O12   Zn2   S    
C53   H15   S    
C71   H46   S    
C55   O4    S    
C56   H12   S    
C4    C6    A    
C66   H37   S    
C51   H9    S    
C5    C7    A    
C64   H33   S    
C6    C8    A    
H20   O4    S    
H22   O8    S    
O23   Zn2   S    
C76   H59   S    
C40   H56   S    
C72   H48   S    
C18   H23   S    
C35   C39   A    
C75   C76   S    
C9    C67   A    
C62   C63   S    
C1    O1    A    
C61   O15   S    
C68   H39   S    
C75   H55   S    
C64   H32   S    
C47   C48   A    
C13   C15   A    
C1    O23   A    
C38   H61   S    
C11   C69   S    
C50   C51   S    
C63   H30   S    
C54   H19   S    
C19   H34   S    
C19   C28   A    
C36   H62   S    
C45   H1    S    
C54   H17   S    
H42   O19   S    
H25   O13   S    
C20   O30   S    
C20   C22   A    
C49   C50   S    
C19   N2    A    
C57   O5    D    
C10   C14   A    
C36   C44   A    
O1    Zn1   S    
C63   H29   S    
C61   O14   D    
C74   O24   S    
C75   H54   S    
C31   C58   S    
O28   Zn2   S    
C7    C9    A    
C34   H4    S    
C23   C48   A    
C23   H3    S    
C27   C32   A    
C65   H35   S    
C20   N1    A    
C28   C31   A    
C44   C45   A    
C21   O2    S    
C24   C26   A    
C72   C73   S    
C3    C5    A    
C51   H10   S    
C49   O30   S    
C17   O29   A    
C62   H28   S    
C59   O9    D    
C25   C27   A    
C73   H50   S    
C29   C55   S    
C26   C28   A    
C33   C38   A    
C59   O10   S    
C72   H47   S    
C41   H45   S    
C74   H52   S    
C9    C15   A    
C60   O13   S    
C71   C72   S    
C29   C31   A    
C2    C77   A    
C73   H49   S    
C51   H11   S    
C6    C13   A    
C30   C32   A    
C49   H5    S    
C64   H31   S    
C16   O26   A    
C36   C38   A    
C42   C47   A    
C14   O22   S    
C35   C41   A    
C43   C46   A    
C24   C30   A    
C52   H14   S    
C50   H8    S    
C63   C64   S    
C16   O28   A    
C74   C75   S    
C37   C39   A    
C65   C66   S    
C21   C24   A    
C46   C56   A    
C52   H13   S    
C34   C47   A    
C17   C35   S    
C32   C59   S    
C37   C46   A    
C3    C78   A    
C58   O8    S    
H24   O10   S    
