data_mof_unit_8643.cif
_audit_creation_date              2013-03-05T16:18:40-0500
_audit_creation_method            fapswitch 2.2
_symmetry_space_group_name_H-M    P1
_symmetry_Int_Tables_number       1
_space_group_crystal_system       triclinic
_cell_length_a                    15.691354
_cell_length_b                    10.730104
_cell_length_c                    9.905944
_cell_angle_alpha                 89.007697
_cell_angle_beta                  90.985515
_cell_angle_gamma                 91.043747
_cell_volume                      1667.09776113

loop_
_atom_site_label
_atom_site_type_symbol
_atom_site_description
_atom_site_fract_x
_atom_site_fract_y
_atom_site_fract_z
_atom_type_partial_charge
O1    O     O_R   0.499980 0.314910 0.616040 -0.630252
O2    O     O_R   0.500040 0.314680 0.383960 -0.644615
C1    C     C_R   0.503847 0.258712 0.500021 0.853750
O3    O     O_R   0.376750 0.500100 0.616020 -0.607894
O4    O     O_R   0.376810 0.499870 0.383940 -0.624262
C2    C     C_R   0.338399 0.499944 0.498977 0.895747
Zn1   Zn    Zn3+2 0.499960 0.500150 0.654960 0.935316
Zn2   Zn    Zn3+2 0.500040 0.499850 0.345040 0.958519
O5    O     O_R   0.499960 0.685320 0.616040 -0.596934
O6    O     O_R   0.500020 0.685090 0.383960 -0.579680
O7    O     O_R   0.623190 0.500130 0.616060 -0.647944
O8    O     O_R   0.623250 0.499900 0.383980 -0.588587
C3    C     C_R   0.502235 0.742146 0.499716 0.864475
C4    C     C_R   0.661591 0.500728 0.501014 0.893965
C5    C     C_3   0.969195 0.384694 0.508487 -0.278079
C6    C     C_3   0.025658 0.438752 0.392738 -0.259829
H1    H     H_    0.047693 0.387943 0.303476 0.196063
H2    H     H_    0.942919 0.288171 0.517235 0.186320
C7    C     C_1   0.249527 0.500505 0.497089 -0.152754
C8    C     C_1   0.750442 0.502422 0.503074 -0.149796
C9    C     C_3   0.027890 0.449394 0.612503 0.392244
C10   C     C_3   0.083410 0.502070 0.499556 0.032177
C11   C     C_3   0.974287 0.567891 0.608780 -0.249829
C12   C     C_3   0.916590 0.504557 0.501904 0.031056
C13   C     C_3   0.030864 0.621943 0.493075 -0.268091
C14   C     C_3   0.972145 0.557303 0.389036 0.390120
C15   C     C_1   0.174219 0.501149 0.497490 0.055977
C16   C     C_1   0.825757 0.503862 0.503242 0.060514
H3    H     H_    0.057116 0.718472 0.484340 0.184447
H4    H     H_    0.952163 0.618683 0.697999 0.198685
C17   C     C_3   0.575879 0.073647 0.602534 -0.028469
H5    H     H_    0.549975 0.096938 0.701457 0.206289
C18   C     C_3   0.579423 0.930239 0.595951 0.184409
H6    H     H_    0.640253 0.902574 0.549322 0.109933
H7    H     H_    0.402849 0.104887 0.641577 0.208130
H8    H     H_    0.397830 0.892007 0.642188 0.237166
C19   C     C_3   0.419521 0.071379 0.539711 -0.499771
C20   C     C_3   0.527799 0.072880 0.352641 0.009734
C21   C     C_3   0.509054 0.122567 0.497668 0.078107
H9    H     H_    0.476189 0.106279 0.282923 0.175084
C22   C     C_3   0.505198 0.879358 0.500777 -0.067999
C23   C     C_3   0.417341 0.928258 0.541683 -0.388003
C24   C     C_3   0.522006 0.929948 0.355799 -0.375681
H10   H     H_    0.581736 0.889640 0.319903 0.264060
H11   H     H_    0.469613 0.899591 0.285804 0.217041
H12   H     H_    0.369668 0.106176 0.467800 0.183344
H13   H     H_    0.367279 0.894850 0.469178 0.170146
C25   C     C_3   0.489389 0.370830 0.084327 -0.305520
H14   H     H_    0.425701 0.330323 0.110273 0.150610
H15   H     H_    0.532420 0.305411 0.136646 0.182366
C26   C     C_3   0.499550 0.368274 0.925327 0.132658
H16   H     H_    0.442972 0.316317 0.883903 0.159176
H17   H     H_    0.362669 0.521903 0.116467 0.187243
H18   H     H_    0.362449 0.495601 0.884047 0.194613
C27   C     C_3   0.422482 0.563581 0.075397 -0.325031
C28   C     C_3   0.579070 0.560029 0.084138 0.509419
N1    N     N_3   0.498170 0.499750 0.138610 -0.107066
N2    N     N_3   0.498850 0.496730 0.861320 -0.076359
C29   C     C_3   0.419358 0.552550 0.914495 -0.352260
C30   C     C_3   0.569445 0.577817 0.923884 0.042875
H19   H     H_    0.549297 0.674816 0.904451 0.242209
H20   H     H_    0.419875 0.662114 0.105380 0.216981
H21   H     H_    0.408968 0.646022 0.867324 0.209770
N3    N     N_R   0.579536 0.879852 0.734797 0.194988
O9    O     O_R   0.510800 0.883809 0.806113 -0.418576
O10   O     O_R   0.652366 0.874566 0.799254 -0.397259
C31   C     C_3   0.613085 0.117799 0.290010 -0.845060
H22   H     H_    0.607530 0.114562 0.178186 0.254789
H23   H     H_    0.630952 0.214030 0.318800 0.241850
H24   H     H_    0.666822 0.056988 0.319448 0.257920
C32   C     C_3   0.575782 0.288193 0.888222 -0.863289
H25   H     H_    0.554048 0.189634 0.887551 0.237302
H26   H     H_    0.603690 0.315950 0.790740 0.289383
H27   H     H_    0.627246 0.286806 0.964441 0.226921
N4    N     N_R   0.591801 0.686079 0.143527 0.218247
O11   O     O_R   0.545947 0.779603 0.102188 -0.436558
O12   O     O_R   0.654227 0.710637 0.227789 -0.378771
C33   C     C_3   0.660404 0.478215 0.122063 -0.759204
H28   H     H_    0.712867 0.529736 0.173090 0.300783
H29   H     H_    0.646668 0.396738 0.187264 0.217357
H30   H     H_    0.694373 0.439781 0.037283 0.193723
C34   C     C_3   0.656574 0.587632 0.854603 -0.726196
H31   H     H_    0.683125 0.496010 0.830708 0.241028
H32   H     H_    0.653863 0.649825 0.764574 0.284604
H33   H     H_    0.703676 0.636048 0.921408 0.257916
N5    N     N_R   0.942371 0.617960 0.264669 0.217972
O13   O     O_R   0.997203 0.655413 0.175058 -0.356509
O14   O     O_R   0.861758 0.638352 0.243978 -0.371820
N6    N     N_R   0.057952 0.389392 0.737109 0.218634
O15   O     O_R   0.003162 0.348940 0.825364 -0.359821
O16   O     O_R   0.139036 0.376518 0.761490 -0.393852
C35   C     C_3   0.665795 0.135243 0.600621 -0.911149
H34   H     H_    0.663173 0.236918 0.580419 0.229628
H35   H     H_    0.697170 0.121523 0.701021 0.283385
H36   H     H_    0.707922 0.093670 0.526041 0.255601

loop_
_geom_bond_atom_site_label_1
_geom_bond_atom_site_label_2
_geom_bond_distance
_ccdc_geom_bond_type
C5    H2    1.110292 S    
C27   C29   1.600162 S    
C22   C23   1.546926 S    
H8    C23   1.108584 S    
N4    O11   1.301690 A    
C3    C22   1.472400 S    
C25   N1    1.495988 S    
C9    N6    1.457432 S    
Zn1   O7    1.978162 S    
C2    C7    1.394455 S    
H7    C19   1.114009 S    
C12   C14   1.524453 S    
C20   C21   1.575261 S    
O7    C4    1.298128 A    
C33   H29   1.098315 S    
N2    C30   1.525823 S    
C5    C6    1.558622 S    
C27   H20   1.104797 S    
C28   C33   1.597980 S    
C28   N1    1.517405 S    
C19   C23   1.535261 S    
O5    C3    1.295047 A    
C30   C34   1.541355 S    
C25   C26   1.586580 S    
C6    H1    1.110281 S    
C10   C13   1.540235 S    
C11   C12   1.540095 S    
C17   C18   1.543339 S    
N6    O16   1.300342 A    
C7    C15   1.181903 T    
Zn1   N2    2.044252 S    
Zn2   O8    1.964914 S    
C25   H15   1.099946 S    
C1    C21   1.465224 S    
C28   N4    1.492986 S    
C9    C10   1.524444 S    
C13   H3    1.110211 S    
C22   C24   1.551631 S    
C26   C32   1.538776 S    
O3    Zn1   1.964914 S    
H18   C29   1.113113 S    
H17   C27   1.112610 S    
C6    C14   1.536489 S    
C26   H16   1.115670 S    
C11   H4    1.110298 S    
C4    C8    1.393773 S    
O3    C2    1.297079 A    
C32   H26   1.101269 S    
C33   H28   1.103435 S    
C8    C16   1.181590 T    
N2    C29   1.500935 S    
C35   H36   1.104857 S    
C31   H22   1.110751 S    
C30   H19   1.106006 S    
O1    C1    1.309919 A    
N3    O10   1.301118 A    
C24   H10   1.106113 S    
Zn2   N1    2.044608 S    
C32   H27   1.096112 S    
N4    O12   1.302207 A    
C17   H5    1.101741 S    
C14   N5    1.457103 S    
C35   H35   1.110812 S    
C18   H6    1.114800 S    
C26   N2    1.507324 S    
C24   H11   1.114092 S    
C25   H14   1.114818 S    
O8    C4    1.297016 A    
C17   C35   1.547370 S    
C34   H32   1.105266 S    
C10   C15   1.425638 S    
C9    C11   1.536807 S    
C20   C24   1.534522 S    
N6    O15   1.300375 A    
N5    O13   1.300407 A    
Zn1   O5    2.017388 S    
C5    C12   1.540675 S    
C6    C10   1.540102 S    
O1    Zn1   2.031241 S    
O2    Zn2   2.017389 S    
C12   C16   1.425466 S    
O6    C3    1.308831 A    
O4    Zn2   1.978162 S    
C34   H33   1.111379 S    
C29   H21   1.112636 S    
C31   H24   1.107606 S    
C18   C22   1.581234 S    
N3    O9    1.301185 A    
C27   N1    1.503641 S    
O2    C1    1.288813 A    
C13   C14   1.536546 S    
C32   H25   1.105346 S    
C19   C21   1.559781 S    
C20   H9    1.115347 S    
C33   H30   1.093108 S    
O4    C2    1.298276 A    
C18   N3    1.469096 S    
C35   H34   1.107147 S    
C17   C21   1.554944 S    
N5    O14   1.299832 A    
C23   H13   1.113855 S    
C11   C13   1.559303 S    
C28   C30   1.600494 S    
C5    C9    1.536476 S    
C20   C31   1.550118 S    
Zn2   O6    2.031241 S    
C34   H31   1.105664 S    
C31   H23   1.105913 S    
C19   H12   1.114015 S    
