data_mof_unit_60118.cif
_audit_creation_date              2013-03-05T16:00:42-0500
_audit_creation_method            fapswitch 2.2
_symmetry_space_group_name_H-M    P1
_symmetry_Int_Tables_number       1
_space_group_crystal_system       triclinic
_cell_length_a                    18.725611
_cell_length_b                    18.647007
_cell_length_c                    18.693604
_cell_angle_alpha                 109.339082
_cell_angle_beta                  109.420791
_cell_angle_gamma                 109.347956
_cell_volume                      5043.6450241

loop_
_atom_site_label
_atom_site_type_symbol
_atom_site_description
_atom_site_fract_x
_atom_site_fract_y
_atom_site_fract_z
_atom_type_partial_charge
O1    O     O_R   0.591640 0.539900 0.448310 -0.618671
O2    O     O_R   0.591610 0.643330 0.551710 -0.625329
C1    C     C_R   0.620357 0.620214 0.500094 0.851539
O3    O     O_R   0.408400 0.448280 0.356670 -0.644237
O4    O     O_R   0.408370 0.551710 0.460080 -0.601332
C2    C     C_R   0.378912 0.499134 0.379898 0.884689
Zn1   Zn    Zn3+2 0.500020 0.430940 0.430950 0.956831
Zn2   Zn    Zn3+2 0.499980 0.569060 0.569050 0.983665
O5    O     O_R   0.408390 0.356670 0.448290 -0.634195
O6    O     O_R   0.408360 0.460100 0.551690 -0.596128
O7    O     O_R   0.591630 0.448290 0.539920 -0.599108
O8    O     O_R   0.591600 0.551720 0.643330 -0.630497
C3    C     C_R   0.378134 0.379784 0.498641 0.914853
C4    C     C_R   0.620521 0.500308 0.620010 0.872315
H1    H     H_    0.183300 0.112225 0.233012 0.153872
C5    C     C_R   0.239555 0.205194 0.196835 -0.125605
H2    H     H_    0.264896 0.167934 0.166128 0.138867
C6    C     C_R   0.253317 0.284267 0.198177 0.144744
C7    C     C_R   0.220689 0.333231 0.239664 -0.056268
C8    C     C_R   0.171351 0.299211 0.275904 0.294649
C9    C     C_R   0.158658 0.219338 0.272680 -0.191171
H3    H     H_    0.122392 0.192770 0.300881 0.189549
C10   C     C_R   0.193204 0.173343 0.234338 -0.212798
C11   C     C_R   0.174488 0.421122 0.181565 -0.190235
H4    H     H_    0.117173 0.360337 0.126999 0.155688
C12   C     C_R   0.185416 0.501492 0.188772 -0.085256
C13   C     C_R   0.257701 0.581091 0.260650 -0.002365
C14   C     C_R   0.321256 0.578646 0.322574 -0.241597
H5    H     H_    0.377908 0.639426 0.377959 0.152675
C15   C     C_R   0.311682 0.498243 0.313956 -0.037891
C16   C     C_R   0.237147 0.418710 0.244453 0.059217
C17   C     C_R   0.321461 0.717869 0.254799 -0.140485
H6    H     H_    0.358435 0.694583 0.229459 0.131621
C18   C     C_R   0.328858 0.798455 0.266230 -0.137454
H7    H     H_    0.371455 0.837075 0.250019 0.134530
C19   C     C_R   0.281332 0.829232 0.298470 -0.158075
H8    H     H_    0.287154 0.891662 0.307245 0.130992
C20   C     C_R   0.226604 0.779759 0.319841 -0.097698
H9    H     H_    0.190551 0.804516 0.345431 0.152805
C21   C     C_R   0.218213 0.698663 0.308276 0.104995
C22   C     C_R   0.265751 0.667037 0.274899 0.085155
C23   C     C_R   0.758509 0.756573 0.579737 -0.189368
H10   H     H_    0.764911 0.761697 0.641271 0.142396
C24   C     C_R   0.823218 0.819731 0.579697 -0.181949
H11   H     H_    0.879318 0.874215 0.641250 0.145358
C25   C     C_R   0.814094 0.813212 0.500153 -0.004815
C26   C     C_R   0.741671 0.743325 0.420636 -0.182531
H12   H     H_    0.735020 0.738265 0.359055 0.145487
C27   C     C_R   0.678298 0.678810 0.420621 -0.183608
H13   H     H_    0.622290 0.624190 0.359077 0.140803
C28   C     C_R   0.686655 0.686189 0.500178 -0.004195
C29   C     C_R   0.672623 0.486378 0.749089 -0.225086
H14   H     H_    0.611671 0.474532 0.748541 0.150093
C30   C     C_R   0.735565 0.484985 0.812360 -0.178374
H15   H     H_    0.723497 0.472928 0.861192 0.157429
C31   C     C_R   0.814169 0.500590 0.813172 -0.045793
C32   C     C_R   0.830107 0.516988 0.750674 -0.212328
H16   H     H_    0.891423 0.528838 0.752126 0.152001
C33   C     C_R   0.766385 0.516892 0.685675 0.106870
C34   C     C_R   0.687718 0.501306 0.685773 -0.020226
C35   C     C_R   0.248599 0.331170 0.516876 -0.004880
C36   C     C_R   0.184807 0.266645 0.517709 0.281440
C37   C     C_R   0.184806 0.187447 0.500592 -0.141625
C38   C     C_R   0.245091 0.170860 0.480936 -0.258585
H17   H     H_    0.243536 0.108912 0.466797 0.151873
C39   C     C_R   0.306893 0.233673 0.478226 -0.219997
H18   H     H_    0.353832 0.220373 0.463258 0.168224
C40   C     C_R   0.309664 0.313927 0.497261 -0.067743
O9    O     O_R   0.948300 0.539910 0.091570 -0.626441
O10   O     O_R   0.051750 0.643320 0.091550 -0.619895
C41   C     C_R   0.999988 0.620397 0.120211 0.877413
O11   O     O_R   0.039910 0.448280 0.091610 -0.614400
O12   O     O_R   0.143370 0.551700 0.091590 -0.616410
C42   C     C_R   0.119969 0.500592 0.120969 0.863498
Zn3   Zn    Zn3+2 0.930950 0.430940 0.999980 0.973873
Zn4   Zn    Zn3+2 0.069100 0.569040 0.999960 0.965531
O13   O     O_R   0.948300 0.356650 0.908390 -0.622344
O14   O     O_R   0.051750 0.460070 0.908380 -0.617012
O15   O     O_R   0.856690 0.448280 0.908350 -0.624325
O16   O     O_R   0.960140 0.551690 0.908340 -0.625311
C43   C     C_R   0.999980 0.379763 0.879738 0.861487
C44   C     C_R   0.879908 0.500150 0.879587 0.872995
O17   O     O_R   0.051710 0.908290 0.460000 -0.632499
O18   O     O_R   0.948270 0.908330 0.356580 -0.604117
C45   C     C_R   0.000528 0.880295 0.379971 0.866104
O19   O     O_R   0.960090 0.908280 0.551610 -0.624832
O20   O     O_R   0.856650 0.908310 0.448190 -0.630649
C46   C     C_R   0.879912 0.879599 0.500025 0.842204
Zn5   Zn    Zn3+2 0.069070 0.999890 0.568970 0.965635
Zn6   Zn    Zn3+2 0.930930 0.999930 0.430860 1.023610
O21   O     O_R   0.051730 0.091500 0.643240 -0.636644
O22   O     O_R   0.948290 0.091530 0.539820 -0.594291
O23   O     O_R   0.143350 0.091510 0.551630 -0.623733
O24   O     O_R   0.039910 0.091550 0.448210 -0.585082
C47   C     C_R   0.999659 0.119906 0.620100 0.912831
C48   C     C_R   0.119793 0.119894 0.499669 0.941349
C49   C     C_R   0.021562 0.767958 0.189774 -0.226817
H19   H     H_    0.036918 0.779800 0.142341 0.150841
C50   C     C_R   0.022197 0.833161 0.253850 0.101205
C51   C     C_R   0.002115 0.815697 0.314303 -0.022914
C52   C     C_R   0.982471 0.735641 0.311847 -0.225905
H20   H     H_    0.967315 0.723156 0.359127 0.153324
C53   C     C_R   0.980479 0.670740 0.247089 -0.166023
H21   H     H_    0.964861 0.608471 0.245084 0.167186
C54   C     C_R   0.000205 0.687114 0.186402 -0.047813
C55   C     C_R   0.079173 0.319846 0.822980 -0.186604
H22   H     H_    0.140585 0.373730 0.879739 0.142656
C56   C     C_R   0.079008 0.255052 0.759683 -0.108051
H23   H     H_    0.140406 0.259214 0.767135 0.159130
C57   C     C_R   0.999651 0.186236 0.686188 0.003221
C58   C     C_R   0.920384 0.180873 0.676130 -0.185426
H24   H     H_    0.858943 0.127186 0.619275 0.145824
C59   C     C_R   0.920427 0.244200 0.740815 -0.171997
H25   H     H_    0.859091 0.239959 0.733722 0.145781
C60   C     C_R   0.999856 0.313668 0.813534 -0.011772
N1    N     N_3   0.162229 0.650291 0.331871 -0.461572
H26   H     H_    0.198951 0.638303 0.377671 0.223231
H27   H     H_    0.113304 0.590154 0.276263 0.194657
N2    N     N_3   0.781126 0.533612 0.620625 -0.432286
H28   H     H_    0.784888 0.593817 0.631485 0.167627
H29   H     H_    0.841354 0.540461 0.628319 0.189624
N3    N     N_3   0.253326 0.414590 0.538065 -0.398654
H30   H     H_    0.195481 0.405208 0.492698 0.281050
H31   H     H_    0.259512 0.442054 0.599960 0.209686
N4    N     N_R   0.123378 0.283052 0.540173 0.196016
O25   O     O_R   0.119174 0.278645 0.606762 -0.431002
O26   O     O_R   0.070363 0.300687 0.493233 -0.343508
N5    N     N_3   0.043880 0.916880 0.258801 -0.439002
H32   H     H_    0.053706 0.917367 0.207033 0.178394
H33   H     H_    0.103485 0.963390 0.316088 0.155350
N6    N     N_3   0.300086 0.312178 0.156368 -0.463786
H34   H     H_    0.301935 0.368332 0.155335 0.187684
H35   H     H_    0.364577 0.328096 0.192936 0.194571
N7    N     N_R   0.131898 0.342915 0.314056 0.192398
O27   O     O_R   0.167160 0.427709 0.352779 -0.407173
O28   O     O_R   0.062983 0.297954 0.315644 -0.365424

loop_
_geom_bond_atom_site_label_1
_geom_bond_atom_site_label_2
_geom_bond_distance
_ccdc_geom_bond_type
C39   C40   1.397268 A    
O20   C46   1.277776 A    
C52   H20   1.084074 S    
O11   C42   1.276508 A    
O12   C42   1.277447 A    
C7    C8    1.423887 A    
C35   C40   1.410576 A    
C7    C16   1.485005 S    
N5    H32   1.045723 S    
O15   C44   1.278632 A    
C49   H19   1.083891 S    
C26   C27   1.381715 A    
C21   N1    1.432338 S    
N1    H26   1.045440 S    
Zn1   O7    2.017157 S    
C12   C13   1.406793 A    
O18   Zn6   2.011838 S    
C14   H5    1.085163 S    
C11   C12   1.396682 A    
C6    C7    1.422721 A    
O11   Zn3   2.018284 S    
C15   C16   1.407803 A    
O7    C4    1.275492 A    
O19   C46   1.278141 A    
C32   C33   1.390389 A    
C55   H22   1.083822 S    
C56   H23   1.083744 S    
C18   H7    1.082290 S    
O9    C41   1.279304 A    
O5    C3    1.280788 A    
C57   C58   1.397197 A    
C29   C34   1.395312 A    
C30   H15   1.083666 S    
C26   H12   1.083764 S    
C24   C25   1.397353 A    
C5    H2    1.082975 S    
C27   C28   1.396649 A    
C17   C22   1.403297 A    
O6    C3    1.275991 A    
O10   C41   1.277417 A    
Zn5   O21   2.011878 S    
C23   C28   1.396836 A    
C49   C54   1.399040 A    
H1    C10   1.082596 S    
C39   H18   1.083708 S    
C33   C34   1.404605 A    
C52   C53   1.378845 A    
C9    H3    1.082913 S    
C6    N6    1.439186 S    
C23   C24   1.382335 A    
O3    Zn1   2.014144 S    
C49   C50   1.389083 A    
C29   C30   1.379258 A    
Zn6   O24   2.017720 S    
C25   C46   1.429838 S    
N2    H29   1.045696 S    
C20   H9    1.082935 S    
O17   Zn5   2.014934 S    
C30   C31   1.396374 A    
C11   H4    1.085016 S    
C58   C59   1.381884 A    
C1    C28   1.428343 S    
N7    O28   1.301616 A    
C37   C48   1.422904 S    
C47   C57   1.429780 S    
O22   C47   1.278389 A    
C35   N3    1.435885 S    
O1    C1    1.276382 A    
C38   C39   1.376192 A    
C36   C37   1.403675 A    
O4    Zn2   2.017157 S    
C13   C22   1.480745 S    
Zn6   O22   2.014810 S    
C50   C51   1.403464 A    
O13   C43   1.276844 A    
Zn2   O8    2.014144 S    
C43   C60   1.427098 S    
C53   C54   1.396424 A    
C5    C6    1.400186 A    
O18   C45   1.275892 A    
O24   C48   1.274671 A    
Zn3   O13   2.013270 S    
C50   N5    1.438691 S    
O16   C44   1.278221 A    
C21   C22   1.415274 A    
O17   C45   1.275509 A    
O8    C4    1.275400 A    
O23   C48   1.276121 A    
C9    C10   1.391617 A    
O10   Zn4   2.013184 S    
N4    O25   1.300402 A    
O12   Zn4   2.013291 S    
O3    C2    1.275289 A    
C31   C32   1.398402 A    
N3    H31   1.045740 S    
N6    H34   1.042989 S    
C53   H21   1.083540 S    
C29   H14   1.084096 S    
C59   H25   1.083794 S    
Zn1   O5    2.014888 S    
C25   C26   1.397295 A    
C19   H8    1.082377 S    
C33   N2    1.438539 S    
C58   H24   1.083718 S    
C2    C15   1.430128 S    
O1    Zn1   2.014989 S    
O2    Zn2   2.014889 S    
C24   H11   1.083721 S    
Zn4   O16   2.018114 S    
Zn4   O14   2.013450 S    
N6    H35   1.045409 S    
O19   Zn5   2.017548 S    
N5    H33   1.045630 S    
C36   N4    1.436128 S    
N2    H28   1.045775 S    
C56   C57   1.397703 A    
C31   C44   1.433160 S    
N7    O27   1.300895 A    
C5    C10   1.391571 A    
C4    C34   1.426737 S    
C55   C60   1.396133 A    
C38   H17   1.084181 S    
C41   C54   1.432654 S    
O2    C1    1.276814 A    
C11   C16   1.383292 A    
C14   C15   1.395936 A    
C45   C51   1.423859 S    
C17   H6    1.083230 S    
C20   C21   1.400572 A    
O14   C43   1.277035 A    
C32   H16   1.083995 S    
O4    C2    1.276973 A    
C55   C56   1.381333 A    
C19   C20   1.396706 A    
C51   C52   1.394794 A    
C12   C42   1.431091 S    
N1    H27   1.044656 S    
O9    Zn3   2.013535 S    
C18   C19   1.396650 A    
Zn5   O23   2.012603 S    
C35   C36   1.395461 A    
O21   C47   1.277465 A    
C37   C38   1.391744 A    
C8    C9    1.405302 A    
Zn2   O6    2.014989 S    
C27   H13   1.083814 S    
C23   H10   1.083790 S    
O20   Zn6   2.012478 S    
C13   C14   1.383195 A    
N4    O26   1.300681 A    
C8    N7    1.443246 S    
N3    H30   1.043263 S    
Zn3   O15   2.013204 S    
C17   C18   1.397378 A    
C59   C60   1.396652 A    
C3    C40   1.437496 S    
