data_mof_unit_45090.cif
_audit_creation_date              2012-10-26T20:59:12-0400
_audit_creation_method            fapswitch 2.2
_symmetry_space_group_name_H-M    P1
_symmetry_Int_Tables_number       1
_space_group_crystal_system       triclinic
_cell_length_a                    15.917347
_cell_length_b                    9.100361
_cell_length_c                    7.786541
_cell_angle_alpha                 90.004188
_cell_angle_beta                  90.13253
_cell_angle_gamma                 90.334785
_cell_volume                      1127.88624956

loop_
_atom_site_label
_atom_site_type_symbol
_atom_type_description
_atom_site_fract_x
_atom_site_fract_y
_atom_site_fract_z
_atom_type_partial_charge
C1    C     C_1   0.500010 0.065359 0.499995 -0.050230
C2    C     C_3   0.974260 0.614356 0.577074 0.150234
C3    C     C_1   0.250164 0.495750 0.499295 -0.025679
C4    C     C_1   0.749840 0.501189 0.500591 -0.027536
C5    C     C_3   0.028876 0.495258 0.664233 -0.117299
C6    C     C_3   0.970895 0.490811 0.333276 -0.098536
C7    C     C_3   0.083621 0.491442 0.499111 0.015291
C8    C     C_3   0.916356 0.495947 0.499094 0.016684
C9    C     C_1   0.174928 0.493034 0.499003 -0.051333
C10   C     C_1   0.825080 0.499990 0.500379 -0.051689
C11   C     C_3   0.094759 0.257952 0.174869 -0.308013
C12   C     C_1   0.500027 0.934643 0.500005 -0.049640
C13   C     C_3   0.006206 0.837685 0.741170 -0.309578
C14   C     C_3   0.888039 0.149133 0.580147 -0.301903
C15   C     C_3   0.002743 0.823158 0.231207 -0.306589
C16   C     C_R   0.499985 0.220014 0.499996 0.548154
C17   C     C_R   0.500036 0.779987 0.500004 0.549631
C18   C     C_R   0.339495 0.498989 0.499781 0.543100
C19   C     C_R   0.660505 0.500943 0.500212 0.541813
C20   C     C_3   0.971169 0.376834 0.582008 0.154176
C21   C     C_3   0.028513 0.609999 0.414942 0.150870
C22   C     C_3   0.026292 0.372638 0.420848 0.168551
Cu1   Cu    Cu3+1 0.500010 0.500000 0.669080 1.027424
Cu2   Cu    Cu3+1 0.499990 0.500000 0.330920 1.026498
H1    H     H_    0.946797 0.488526 0.199407 0.105446
H2    H     H_    0.050676 0.772095 0.819587 0.155446
H3    H     H_    0.913821 0.279810 0.792877 0.249250
H4    H     H_    0.867769 0.057909 0.665173 0.135026
H5    H     H_    0.923848 0.102236 0.471534 0.174917
H6    H     H_    0.830864 0.203982 0.530757 0.149811
H7    H     H_    0.105295 0.795892 0.395418 0.250236
H8    H     H_    0.036223 0.910828 0.159289 0.144660
H9    H     H_    0.958033 0.875061 0.321369 0.139927
H10   H     H_    0.967637 0.754429 0.137261 0.159126
H11   H     H_    0.052154 0.495462 0.798765 0.105595
H12   H     H_    0.089665 0.173519 0.423330 0.255046
H13   H     H_    0.113634 0.149310 0.123506 0.136981
H14   H     H_    0.151647 0.328571 0.186119 0.160750
H15   H     H_    0.049894 0.308009 0.082782 0.153073
H16   H     H_    0.898726 0.800314 0.592943 0.244626
H17   H     H_    0.975207 0.917745 0.827438 0.149871
H18   H     H_    0.041176 0.899467 0.641168 0.147798
N1    N     N_1   0.499990 0.500000 0.076820 -0.078619
N2    N     N_1   0.500010 0.500000 0.923180 -0.078592
N3    N     N_2   0.055620 0.238908 0.340808 -0.525755
N4    N     N_2   0.943165 0.744131 0.662886 -0.516286
N5    N     N_2   0.939828 0.250991 0.676602 -0.523195
N6    N     N_2   0.062969 0.735239 0.324030 -0.514166
O1    O     O_R   0.500000 0.288400 0.642760 -0.496347
O2    O     O_R   0.500000 0.711600 0.357240 -0.495417
O3    O     O_R   0.500000 0.288400 0.357240 -0.496505
O4    O     O_R   0.500000 0.711600 0.642760 -0.495582
O5    O     O_R   0.379080 0.500000 0.642760 -0.498548
O6    O     O_R   0.620920 0.500000 0.357240 -0.498707
O7    O     O_R   0.379070 0.500000 0.357190 -0.498020
O8    O     O_R   0.620930 0.500000 0.642810 -0.496244

loop_
_geom_bond_atom_site_label_1
_geom_bond_atom_site_label_2
_ccdc_geom_bond_type
C19   O8    A    
C12   C17   S    
C11   H14   S    
H16   N4    S    
N1    N2    T    
C11   H13   S    
C14   N5    S    
C3    C9    T    
C17   O2    A    
C7    C22   S    
C5    C7    S    
C15   H10   S    
C16   O3    A    
Cu1   Cu2   S    
C21   N6    S    
Cu2   O3    S    
C13   H17   S    
H12   N3    S    
C1    C16   S    
C2    N4    S    
Cu2   O7    S    
C11   H15   S    
C4    C19   S    
Cu1   O4    S    
C8    C20   S    
C1    C12   T    
C15   N6    S    
C14   H6    S    
C15   H8    S    
C18   O7    A    
C17   O4    A    
C13   H18   S    
C20   C22   S    
Cu1   O5    S    
C7    C9    S    
H7    N6    S    
Cu2   O2    S    
C13   N4    S    
C2    C8    S    
C13   H2    S    
Cu1   O1    S    
C20   N5    S    
C11   N3    S    
C14   H5    S    
C4    C10   T    
C6    H1    S    
C5    H11   S    
Cu1   O8    S    
C22   N3    S    
C16   O1    A    
C19   O6    A    
C3    C18   S    
C8    C10   S    
H3    N5    S    
C5    C20   S    
Cu2   N1    S    
C6    C8    S    
C18   O5    A    
C14   H4    S    
C2    C21   S    
C7    C21   S    
C6    C21   S    
Cu2   O6    S    
C15   H9    S    
C2    C5    S    
Cu1   N2    S    
C6    C22   S    
