data_mof_unit_23470.cif
_audit_creation_date              2012-12-10T19:04:11-0500
_audit_creation_method            fapswitch 2.2
_symmetry_space_group_name_H-M    P1
_symmetry_Int_Tables_number       1
_space_group_crystal_system       triclinic
_cell_length_a                    10.62602
_cell_length_b                    10.854934
_cell_length_c                    9.570784
_cell_angle_alpha                 90.260915
_cell_angle_beta                  90.749002
_cell_angle_gamma                 90.539866
_cell_volume                      1103.78424563

loop_
_atom_site_label
_atom_site_type_symbol
_atom_type_description
_atom_site_fract_x
_atom_site_fract_y
_atom_site_fract_z
_atom_type_partial_charge
C1    C     C_R   0.500457 0.262789 0.499689 0.821564
C2    C     C_3   0.957747 0.602188 0.437086 -0.188188
C3    C     C_3   0.038226 0.502474 0.366113 -0.112839
C4    C     C_3   0.122478 0.499918 0.497383 0.023187
C5    C     C_R   0.497162 0.062531 0.620531 0.115842
C6    C     C_R   0.502335 0.130141 0.498033 -0.106029
C7    C     C_R   0.509682 0.064093 0.371061 -0.185174
C8    C     C_R   0.509813 0.934897 0.371283 -0.221728
C9    C     C_R   0.502769 0.869877 0.498529 -0.106066
C10   C     C_R   0.497539 0.938510 0.620781 0.126055
C11   C     C_3   0.486974 0.930195 0.775517 -0.464004
C12   C     C_R   0.259374 0.499951 0.499091 0.805890
C13   C     C_3   0.486483 0.072113 0.775288 -0.451436
C14   C     C_R   0.566619 0.587372 0.075092 0.208197
C15   C     C_R   0.423143 0.422462 0.070971 0.319461
C16   C     C_R   0.424192 0.422534 0.922854 -0.106625
C17   C     C_R   0.566458 0.587438 0.927947 0.244869
C18   C     C_3   0.704920 0.609968 0.924504 -0.496331
C19   C     C_3   0.705060 0.610366 0.083049 -0.493188
C20   C     C_R   0.500745 0.737212 0.500045 0.794734
C21   C     C_R   0.740694 0.499872 0.500786 0.776680
C22   C     C_3   0.042519 0.397333 0.561797 -0.156368
C23   C     C_3   0.955889 0.399906 0.430773 -0.155392
C24   C     C_3   0.877724 0.499633 0.501789 0.010783
C25   C     C_3   0.962197 0.497026 0.632811 -0.135087
C26   C     C_3   0.044345 0.599640 0.568157 -0.170222
Cu1   Cu    Cu3+1 0.499990 0.499980 0.640670 0.940969
Cu2   Cu    Cu3+1 0.500010 0.500020 0.359330 0.975978
H1    H     H_    0.916587 0.318129 0.374766 0.137318
H2    H     H_    0.572478 0.890493 0.825236 0.193197
H3    H     H_    0.395272 0.111995 0.807412 0.207000
H4    H     H_    0.571658 0.114507 0.824942 0.202541
H5    H     H_    0.364701 0.358498 0.864783 0.165749
H6    H     H_    0.756423 0.530605 0.880537 0.211834
H7    H     H_    0.728961 0.701054 0.878918 0.188609
H8    H     H_    0.758006 0.531977 0.128468 0.221662
H9    H     H_    0.728359 0.701996 0.129375 0.189766
H10   H     H_    0.080361 0.313473 0.612615 0.134041
H11   H     H_    0.930649 0.494115 0.742599 0.133359
H12   H     H_    0.083594 0.681441 0.624171 0.132797
H13   H     H_    0.919834 0.685967 0.386153 0.131915
H14   H     H_    0.071901 0.504735 0.256825 0.164732
H15   H     H_    0.515020 0.111410 0.271920 0.193260
H16   H     H_    0.515044 0.886732 0.272188 0.169212
H17   H     H_    0.396079 0.888311 0.807767 0.202455
N1    N     N_R   0.500800 0.500930 0.147930 -0.207115
N2    N     N_R   0.500800 0.500890 0.852020 -0.206232
O1    O     O_R   0.500000 0.319640 0.618810 -0.589798
O2    O     O_R   0.500010 0.319680 0.381230 -0.545531
O3    O     O_R   0.316850 0.499950 0.618770 -0.590755
O4    O     O_R   0.316860 0.499990 0.381190 -0.544195
O5    O     O_R   0.499990 0.680320 0.618770 -0.579061
O6    O     O_R   0.500000 0.680360 0.381190 -0.587530
O7    O     O_R   0.683140 0.500010 0.618810 -0.587194
O8    O     O_R   0.683150 0.500050 0.381230 -0.588500
Br1   Br    Br    0.309361 0.307837 0.155092 -0.569068

loop_
_geom_bond_atom_site_label_1
_geom_bond_atom_site_label_2
_ccdc_geom_bond_type
Cu1   O1    S    
C12   O3    A    
C23   C24   S    
C3    H14   S    
C6    C7    A    
C7    H15   S    
C16   H5    S    
C4    C12   S    
C4    C22   S    
C9    C10   A    
C9    C20   S    
C4    C26   S    
Cu1   O3    S    
Cu2   O6    S    
C26   H12   S    
C15   Br1   S    
C17   C18   S    
Cu1   O7    S    
C7    C8    A    
C2    C26   S    
C24   C25   S    
C11   C13   S    
C14   C17   A    
Cu2   N1    S    
C5    C6    A    
C1    O2    A    
C11   H2    S    
C23   H1    S    
C16   N2    A    
Cu2   O8    S    
C2    C3    S    
C19   H8    S    
C18   H6    S    
C1    O1    A    
C2    C24   S    
C21   O7    A    
Cu2   O4    S    
C11   H17   S    
C10   C11   S    
C2    H13   S    
C1    C6    S    
C22   H10   S    
C8    H16   S    
C5    C10   A    
C12   O4    A    
Cu1   O5    S    
C18   H7    S    
C20   O5    A    
C18   C19   S    
Cu2   O2    S    
C21   C24   S    
Cu1   N2    S    
Cu1   Cu2   S    
C21   O8    A    
C3    C23   S    
C22   C23   S    
C20   O6    A    
C19   H9    S    
C15   N1    A    
C25   C26   S    
C13   H4    S    
C5    C13   S    
C14   C19   S    
C13   H3    S    
C25   H11   S    
C3    C4    S    
C15   C16   A    
C17   N2    A    
C8    C9    A    
C14   N1    A    
C22   C25   S    
