data_mof_unit_44556.cif
_audit_creation_date              2013-03-05T15:55:54-0500
_audit_creation_method            fapswitch 2.2
_symmetry_space_group_name_H-M    P1
_symmetry_Int_Tables_number       1
_space_group_crystal_system       triclinic
_cell_length_a                    21.659406
_cell_length_b                    7.184633
_cell_length_c                    14.933381
_cell_angle_alpha                 90.432714
_cell_angle_beta                  106.13189
_cell_angle_gamma                 89.97316
_cell_volume                      2232.2868195

loop_
_atom_site_label
_atom_site_type_symbol
_atom_site_description
_atom_site_fract_x
_atom_site_fract_y
_atom_site_fract_z
_atom_type_partial_charge
O1    O     O_R   0.335860 0.638190 0.002110 -0.582100
O2    O     O_R   0.664140 0.361810 0.997890 -0.582100
O3    O     O_R   0.164140 0.138190 0.997890 -0.575948
O4    O     O_R   0.835860 0.861810 0.002110 -0.575914
O5    O     O_R   0.217530 0.305920 0.861960 -0.581068
O6    O     O_R   0.782470 0.694080 0.138040 -0.581064
O7    O     O_R   0.282470 0.805920 0.138040 -0.589795
O8    O     O_R   0.717530 0.194080 0.861960 -0.589837
C1    C     C_R   0.205670 0.476115 0.826136 1.008243
C2    C     C_R   0.794331 0.523885 0.173863 1.008284
C3    C     C_R   0.294506 0.977509 0.173724 1.012550
C4    C     C_R   0.705494 0.022491 0.826276 1.012464
O9    O     O_R   0.338690 0.308320 0.993240 -0.550883
O10   O     O_R   0.661310 0.691680 0.006760 -0.550884
O11   O     O_R   0.161310 0.808320 0.006760 -0.559178
O12   O     O_R   0.838690 0.191680 0.993240 -0.559084
O13   O     O_R   0.286170 0.140430 0.130100 -0.574249
O14   O     O_R   0.713830 0.859570 0.869900 -0.574247
O15   O     O_R   0.213830 0.640430 0.869900 -0.588495
O16   O     O_R   0.786170 0.359570 0.130100 -0.588480
C5    C     C_R   0.364883 0.476224 0.997405 0.973566
C6    C     C_R   0.635117 0.523776 0.002595 0.973558
C7    C     C_R   0.135237 0.976719 0.003076 0.974977
C8    C     C_R   0.864764 0.023284 0.996922 0.974897
O17   O     O_3   0.232630 0.472410 0.044750 -0.262948
O18   O     O_3   0.767370 0.527590 0.955250 -0.262909
O19   O     O_3   0.267370 0.972410 0.955250 -0.265682
O20   O     O_3   0.732630 0.027590 0.044750 -0.265678
V1    V     V_3+5 0.253220 0.196620 0.991700 1.312448
V2    V     V_3+5 0.746780 0.803380 0.008300 1.312461
V3    V     V_3+5 0.246780 0.696620 0.008300 1.300804
V4    V     V_3+5 0.753220 0.303380 0.991700 1.300807
C9    C     C_R   0.036794 0.848456 0.044467 0.394837
C10   C     C_R   0.963211 0.151578 0.955534 0.394772
C11   C     C_R   0.464150 0.343023 0.958631 0.405231
C12   C     C_R   0.535850 0.656977 0.041369 0.405231
C13   C     C_R   0.971637 0.863997 0.041466 -0.118698
C14   C     C_R   0.028365 0.136009 0.958522 -0.118583
C15   C     C_R   0.528843 0.361780 0.959689 -0.134648
C16   C     C_R   0.471157 0.638220 0.040311 -0.134647
H1    H     H_    0.950589 0.757736 0.074665 0.227954
H2    H     H_    0.049416 0.242270 0.925326 0.227957
H3    H     H_    0.550238 0.253848 0.927122 0.224733
H4    H     H_    0.449762 0.746151 0.072878 0.224733
C17   C     C_R   0.933858 0.014190 0.997536 -0.355162
C18   C     C_R   0.066144 0.985829 0.002460 -0.355197
C19   C     C_R   0.565897 0.516055 0.001346 -0.351164
C20   C     C_R   0.434103 0.483944 0.998654 -0.351167
C21   C     C_R   0.675725 0.010240 0.725905 -0.233883
C22   C     C_R   0.324275 0.989759 0.274095 -0.233930
C23   C     C_R   0.824052 0.518811 0.274454 -0.232828
C24   C     C_R   0.175952 0.481192 0.725545 -0.232817
C25   C     C_R   0.687029 0.927159 0.574721 -0.027604
C26   C     C_R   0.312971 0.072838 0.425279 -0.027636
C27   C     C_R   0.812410 0.562501 0.429022 -0.027882
C28   C     C_R   0.187596 0.437509 0.570978 -0.027876
C29   C     C_R   0.714627 0.974020 0.667591 -0.178953
C30   C     C_R   0.285373 0.025977 0.332409 -0.178837
C31   C     C_R   0.785033 0.536203 0.334060 -0.190348
C32   C     C_R   0.214972 0.463798 0.665941 -0.190340
C33   C     C_R   0.608380 0.013185 0.689938 0.381825
C34   C     C_R   0.391620 0.986814 0.310062 0.381812
C35   C     C_R   0.891361 0.514131 0.310363 0.390417
C36   C     C_R   0.108644 0.485883 0.689634 0.390406
C37   C     C_R   0.580096 0.995333 0.591892 -0.021255
C38   C     C_R   0.419904 0.004665 0.408108 -0.021247
C39   C     C_R   0.919683 0.513221 0.408820 -0.022974
C40   C     C_R   0.080322 0.486798 0.591177 -0.022972
C41   C     C_R   0.619895 0.929797 0.536920 -0.065034
C42   C     C_R   0.380105 0.070200 0.463080 -0.065036
C43   C     C_R   0.879536 0.559189 0.466809 -0.068361
C44   C     C_R   0.120470 0.440829 0.533188 -0.068359
C45   C     C_R   0.513714 0.030386 0.546829 0.009510
C46   C     C_R   0.486286 0.969613 0.453171 0.009513
C47   C     C_R   0.986392 0.478190 0.451958 0.009007
C48   C     C_R   0.013614 0.521834 0.548038 0.008995
C49   C     C_R   0.525195 0.866570 0.409594 -0.142516
C50   C     C_R   0.474805 0.133429 0.590406 -0.142522
C51   C     C_R   0.973970 0.607581 0.596490 -0.140103
C52   C     C_R   0.026036 0.392446 0.403506 -0.140156
C53   C     C_R   0.591437 0.857874 0.447284 0.476410
C54   C     C_R   0.408563 0.142124 0.552716 0.476419
C55   C     C_R   0.907607 0.612093 0.559973 0.473953
C56   C     C_R   0.092399 0.387931 0.440023 0.473966
H5    H     H_    0.233578 0.030921 0.304326 0.188379
H6    H     H_    0.766422 0.969075 0.695674 0.188315
H7    H     H_    0.266751 0.458822 0.693907 0.192216
H8    H     H_    0.733253 0.541173 0.306095 0.192212
H9    H     H_    0.718705 0.886657 0.533306 0.192612
H10   H     H_    0.281295 0.113339 0.466694 0.192616
H11   H     H_    0.780556 0.588360 0.472158 0.197238
H12   H     H_    0.219450 0.411649 0.527842 0.197242
H13   H     H_    0.504745 0.788537 0.346334 0.213959
H14   H     H_    0.495255 0.211461 0.653665 0.213958
H15   H     H_    0.993827 0.675099 0.662957 0.215613
H16   H     H_    0.006179 0.324930 0.337038 0.215616
N1    N     N_R   0.072725 0.695613 0.093613 0.246364
O21   O     O_R   0.079119 0.545045 0.048175 -0.341404
O22   O     O_R   0.086538 0.691419 0.184078 -0.320889
N2    N     N_R   0.927296 0.304495 0.906430 0.246266
O23   O     O_R   0.920746 0.454781 0.951970 -0.341389
O24   O     O_R   0.913747 0.309215 0.815997 -0.320658
N3    N     N_R   0.430084 0.180522 0.915465 0.244845
O25   O     O_R   0.419133 0.047524 0.967632 -0.345548
O26   O     O_R   0.426204 0.144013 0.828673 -0.307772
N4    N     N_R   0.569916 0.819478 0.084535 0.244845
O27   O     O_R   0.580867 0.952475 0.032369 -0.345548
O28   O     O_R   0.573796 0.855985 0.171327 -0.307772
Cl1   Cl    Cl    0.636233 0.739371 0.382535 -0.632340
Cl2   Cl    Cl    0.363767 0.260624 0.617466 -0.632340
Cl3   Cl    Cl    0.862115 0.699949 0.632304 -0.618178
Cl4   Cl    Cl    0.137892 0.300077 0.367693 -0.618079
Cl5   Cl    Cl    0.437356 0.010159 0.228653 -0.619424
Cl6   Cl    Cl    0.562644 0.989838 0.771347 -0.619420
Cl7   Cl    Cl    0.063156 0.443014 0.769647 -0.640479
Cl8   Cl    Cl    0.936846 0.557008 0.230349 -0.640517

loop_
_geom_bond_atom_site_label_1
_geom_bond_atom_site_label_2
_geom_bond_distance
_ccdc_geom_bond_type
O17   V3    1.758271 S    
O1    C5    1.332983 A    
C27   C31   1.388199 A    
O19   V1    1.750459 S    
O13   V1    2.033854 S    
C45   C46   1.424433 A    
O3    C7    1.331442 A    
C48   C51   1.406547 A    
C52   C56   1.388919 A    
O15   V3    2.027783 S    
C4    C21   1.459840 S    
C21   C29   1.392895 A    
O18   V4    1.758271 S    
C56   Cl4   1.765386 S    
C8    C17   1.495422 S    
C54   Cl2   1.763326 S    
O9    V1    2.012234 S    
C14   H2    1.080804 S    
C11   N3    1.431138 S    
O16   V4    2.027781 S    
C11   C15   1.403423 A    
O4    C8    1.331475 A    
N4    O27   1.300134 A    
C11   C20   1.418550 A    
C38   C46   1.431121 A    
O1    V3    2.001300 S    
C37   C45   1.431120 A    
C29   H6    1.083704 S    
C12   C19   1.418550 A    
O2    V4    2.001298 S    
O3    V1    2.001970 S    
C31   H8    1.083228 S    
C27   H11   1.081898 S    
C24   C32   1.392281 A    
C1    O15   1.332810 A    
C2    O16   1.332812 A    
C28   C44   1.406098 A    
C46   C49   1.406641 A    
O2    C6    1.332984 A    
C10   N2    1.429773 S    
C45   C50   1.406641 A    
O14   V2    2.033855 S    
C52   H16   1.077599 S    
C47   C52   1.406546 A    
C43   C55   1.404245 A    
C40   C44   1.424427 A    
C5    C20   1.495236 S    
O11   C7    1.329989 A    
C6    C19   1.495234 S    
C25   C41   1.406194 A    
O12   C8    1.329973 A    
C36   Cl7   1.775734 S    
C9    C18   1.415371 A    
C1    C24   1.461384 S    
O10   V2    2.012230 S    
C2    C23   1.461382 S    
N1    O22   1.300569 A    
C32   H7    1.083228 S    
N1    O21   1.300318 A    
O5    V1    2.039145 S    
C35   C39   1.427256 A    
C21   C33   1.407606 A    
C34   C38   1.426284 A    
C12   N4    1.431138 S    
C22   C30   1.392894 A    
C12   C16   1.403423 A    
O7    V3    2.028123 S    
C34   Cl5   1.777611 S    
C24   C36   1.407068 A    
C25   C29   1.387991 A    
C15   H3    1.082501 S    
C9    C13   1.403891 A    
C28   C32   1.388202 A    
O8    V4    2.028124 S    
C51   H15   1.077597 S    
O7    C3    1.336003 A    
C47   C48   1.424038 A    
O5    C1    1.334396 A    
C50   C54   1.389593 A    
C26   C42   1.406193 A    
C49   C53   1.389594 A    
O8    C4    1.336003 A    
N2    O24   1.300575 A    
C23   C35   1.407073 A    
N3    O26   1.300034 A    
C10   C17   1.415443 A    
C40   C48   1.432093 A    
O11   V3    2.011677 S    
C44   C56   1.404247 A    
C35   Cl8   1.775742 S    
O6    V2    2.039144 S    
C53   Cl1   1.763326 S    
C25   H9    1.082013 S    
C22   C34   1.407605 A    
C55   Cl3   1.765386 S    
C23   C31   1.392281 A    
C13   C17   1.405668 A    
C30   H5    1.083705 S    
C36   C40   1.427255 A    
C33   Cl6   1.777613 S    
C15   C19   1.404519 A    
C26   C30   1.387992 A    
C16   C20   1.404519 A    
C3    O13   1.331571 A    
C10   C14   1.403899 A    
O6    C2    1.334394 A    
C26   H10   1.082012 S    
O12   V4    2.011681 S    
O10   C6    1.326971 A    
O20   V2    1.750458 S    
C3    C22   1.459840 S    
O9    C5    1.326970 A    
C51   C55   1.388919 A    
C38   C42   1.423279 A    
N4    O28   1.300034 A    
C50   H14   1.078254 S    
C37   C41   1.423279 A    
C49   H13   1.078255 S    
N2    O23   1.300322 A    
C39   C43   1.424430 A    
C13   H1    1.080804 S    
C42   C54   1.403595 A    
O4    V2    2.001972 S    
C14   C18   1.405637 A    
C41   C53   1.403596 A    
C33   C37   1.426286 A    
C16   H4    1.082501 S    
C39   C47   1.432093 A    
C4    O14   1.331570 A    
N3    O25   1.300135 A    
C7    C18   1.495392 S    
C9    N1    1.429732 S    
C28   H12   1.081898 S    
C27   C43   1.406098 A    
