data_mof_unit_5947.cif
_audit_creation_date              2012-12-10T17:32:19-0500
_audit_creation_method            fapswitch 2.2
_symmetry_space_group_name_H-M    P1
_symmetry_Int_Tables_number       1
_space_group_crystal_system       triclinic
_cell_length_a                    12.424796
_cell_length_b                    13.227945
_cell_length_c                    15.02201
_cell_angle_alpha                 74.822256
_cell_angle_beta                  100.803238
_cell_angle_gamma                 117.284767
_cell_volume                      2111.14892955

loop_
_atom_site_label
_atom_site_type_symbol
_atom_type_description
_atom_site_fract_x
_atom_site_fract_y
_atom_site_fract_z
_atom_type_partial_charge
C1    C     C_R   0.855162 0.286567 0.508272 0.755409
C2    C     C_R   0.935848 0.551459 0.071407 0.111598
C3    C     C_R   0.106486 0.375572 0.091626 -0.192724
C4    C     C_R   0.108404 0.377377 0.998707 -0.215076
C5    C     C_R   0.052525 0.436156 0.929659 0.108835
C6    C     C_R   0.993587 0.493260 0.953956 0.065458
C7    C     C_R   0.935790 0.551480 0.885016 0.106952
C8    C     C_R   0.878141 0.608578 0.909737 -0.211860
C9    C     C_R   0.878514 0.608890 0.002497 -0.210707
C10   C     C_R   0.054642 0.439029 0.836633 -0.244871
C11   C     C_R   0.997203 0.496804 0.768130 -0.067055
C12   C     C_R   0.999113 0.498852 0.671063 0.786940
C13   C     C_R   0.937221 0.552075 0.792443 -0.251008
C14   C     C_R   0.282833 0.030363 0.377380 -0.191935
C15   C     C_R   0.228573 0.837163 0.469986 -0.048041
C16   C     C_R   0.811158 0.080280 0.569198 -0.191059
C17   C     C_R   0.730123 0.963865 0.588396 -0.146979
C18   C     C_R   0.608431 0.928551 0.556373 -0.150340
C19   C     C_R   0.565815 0.009407 0.500577 0.080994
C20   C     C_R   0.651883 0.125567 0.471821 0.082902
C21   C     C_R   0.440917 0.978611 0.471446 0.076881
C22   C     C_R   0.405716 0.060148 0.407127 0.163408
C23   C     C_R   0.144786 0.713785 0.488175 0.841219
C24   C     C_R   0.493704 0.169332 0.371271 -0.239809
C25   C     C_R   0.615061 0.200980 0.401891 -0.188551
C26   C     C_R   0.349532 0.869185 0.504735 -0.191106
C27   C     C_R   0.194619 0.918837 0.407984 -0.198605
C28   C     C_R   0.772781 0.162622 0.513283 -0.098622
C29   C     C_R   0.351390 0.340958 0.662072 -0.297688
C30   C     C_R   0.743050 0.611257 0.356993 0.074987
C31   C     C_R   0.628290 0.580448 0.310666 -0.229283
C32   C     C_R   0.526807 0.513750 0.361404 -0.049509
C33   C     C_R   0.538767 0.495912 0.458453 0.038254
C34   C     C_R   0.999018 0.498659 0.329218 0.839663
C35   C     C_R   0.652851 0.499891 0.498730 0.265217
C36   C     C_R   0.439337 0.456042 0.515545 -0.132877
C37   C     C_R   0.447062 0.389187 0.604915 0.121971
C38   C     C_R   0.550854 0.370377 0.636664 -0.250809
C39   C     C_R   0.652310 0.425888 0.585255 -0.186383
C40   C     C_R   0.338905 0.487556 0.492034 0.521234
C41   C     C_R   0.250897 0.364719 0.634189 -0.014590
C42   C     C_R   0.938070 0.552687 0.164108 -0.257197
C43   C     C_R   0.995796 0.495231 0.232654 -0.071710
C44   C     C_R   0.048960 0.433684 0.208828 -0.170810
C45   C     C_R   0.049594 0.433389 0.116295 0.099954
C46   C     C_R   0.992909 0.492599 0.047248 0.056674
Cu1   Cu    Cu3+1 0.098270 0.475420 0.521130 0.995724
Cu2   Cu    Cu3+1 0.901730 0.524580 0.478870 0.922839
H1    H     H_    0.896089 0.599529 0.182750 0.145607
H2    H     H_    0.468698 0.230708 0.319175 0.140993
H3    H     H_    0.255552 0.092162 0.328062 0.132217
H4    H     H_    0.370011 0.805563 0.556650 0.141917
H5    H     H_    0.903434 0.106245 0.600354 0.153418
H6    H     H_    0.550912 0.836940 0.574777 0.141718
H7    H     H_    0.760968 0.900899 0.631065 0.140562
H8    H     H_    0.679585 0.284406 0.368037 0.175187
H9    H     H_    0.177468 0.327056 0.678917 0.139575
H10   H     H_    0.554974 0.314367 0.703088 0.152620
H11   H     H_    0.355164 0.286141 0.729170 0.146890
H12   H     H_    0.089473 0.385739 0.262283 0.172559
H13   H     H_    0.821901 0.657908 0.317300 0.123813
H14   H     H_    0.440871 0.472108 0.324791 0.182611
H15   H     H_    0.618123 0.601959 0.235873 0.143948
H16   H     H_    0.723911 0.400859 0.612576 0.200790
H17   H     H_    0.150326 0.329891 0.144104 0.143994
H18   H     H_    0.153598 0.332958 0.980825 0.141128
H19   H     H_    0.099848 0.395274 0.817645 0.145981
H20   H     H_    0.893132 0.596982 0.739290 0.160115
H21   H     H_    0.833475 0.653509 0.857334 0.143268
H22   H     H_    0.834224 0.654143 0.020351 0.141668
H23   H     H_    0.101234 0.895085 0.380086 0.153547
N1    N     N_R   0.246280 0.438190 0.553160 -0.235231
N2    N     N_R   0.754320 0.561190 0.447410 -0.212256
O1    O     O_R   0.972510 0.318130 0.526570 -0.587902
O2    O     O_R   0.806530 0.359650 0.490890 -0.595240
O3    O     O_R   0.082980 0.479210 0.647590 -0.594730
O4    O     O_R   0.917000 0.520730 0.611900 -0.605069
O5    O     O_R   0.193470 0.640350 0.509110 -0.510540
O6    O     O_R   0.027490 0.681870 0.473430 -0.592876
O7    O     O_R   0.083000 0.479270 0.388100 -0.505092
O8    O     O_R   0.917020 0.520790 0.352410 -0.617175
S1    S     S_3+6 0.345989 0.598151 0.386414 -0.000282
O9    O     O_2   0.476504 0.685259 0.377776 -0.316099
O10   O     O_2   0.301681 0.538713 0.305542 -0.367575
O11   O     O_3   0.271292 0.680300 0.367309 -0.504899
H24   H     H_    0.291719 0.730498 0.305352 0.362932

loop_
_geom_bond_atom_site_label_1
_geom_bond_atom_site_label_2
_ccdc_geom_bond_type
C16   C28   A    
C21   C26   A    
C19   C20   A    
C25   H8    S    
C7    C8    A    
C10   H19   S    
C2    C46   A    
C39   H16   S    
C8    H21   S    
C1    O1    A    
Cu2   O6    S    
C36   C37   A    
C19   C21   A    
C44   H12   S    
Cu1   O3    S    
C5    C6    A    
C20   C25   A    
C33   C36   A    
Cu2   O8    S    
C18   C19   A    
C16   H5    S    
C34   O7    A    
C38   H10   S    
Cu1   Cu2   S    
C8    C9    A    
C1    C28   S    
C34   O8    A    
C14   C27   A    
C40   N1    A    
C17   H7    S    
C15   C23   S    
C21   C22   A    
Cu2   O2    S    
C3    H17   S    
Cu1   O7    S    
C24   H2    S    
C1    O2    A    
C40   S1    S    
C36   C40   A    
C24   C25   A    
C30   N2    A    
C16   C17   A    
C15   C26   A    
C20   C28   A    
O11   H24   S    
C3    C45   A    
Cu2   O4    S    
C35   C39   A    
C43   C44   A    
C37   C38   A    
C26   H4    S    
C15   C27   A    
C14   H3    S    
C30   C31   A    
C12   O4    A    
C17   C18   A    
C9    H22   S    
C41   N1    A    
S1    O10   D    
C12   O3    A    
C22   C24   A    
C42   C43   A    
C3    C4    A    
S1    O11   S    
C27   H23   S    
C44   C45   A    
C35   N2    A    
C6    C46   A    
C29   C41   A    
Cu2   N2    S    
C31   C32   A    
C34   C43   S    
Cu1   O1    S    
C4    C5    A    
C11   C12   S    
C6    C7    A    
C31   H15   S    
C32   C33   A    
C14   C22   A    
C41   H9    S    
C5    C10   A    
C4    H18   S    
C11   C13   A    
C38   C39   A    
C2    C42   A    
C33   C35   A    
C23   O5    A    
Cu1   N1    S    
C10   C11   A    
C18   H6    S    
C42   H1    S    
C32   H14   S    
C45   C46   A    
C7    C13   A    
S1    O9    D    
C30   H13   S    
C29   C37   A    
C29   H11   S    
Cu1   O5    S    
C23   O6    A    
C2    C9    A    
C13   H20   S    
