data_mof_unit_35798.cif
_audit_creation_date              2012-12-11T14:51:49-0500
_audit_creation_method            fapswitch 2.2
_symmetry_space_group_name_H-M    P1
_symmetry_Int_Tables_number       1
_space_group_crystal_system       triclinic
_cell_length_a                    6.954007
_cell_length_b                    16.820922
_cell_length_c                    16.880136
_cell_angle_alpha                 101.31825
_cell_angle_beta                  90.820706
_cell_angle_gamma                 90.725593
_cell_volume                      1935.67714434

loop_
_atom_site_label
_atom_site_type_symbol
_atom_type_description
_atom_site_fract_x
_atom_site_fract_y
_atom_site_fract_z
_atom_type_partial_charge
O1    O     O_R   0.506340 0.439070 0.579550 -0.532100
O2    O     O_R   0.170010 0.404890 0.412100 -0.540520
O3    O     O_R   0.005010 0.560930 0.420450 -0.543245
C1    C     C_R   0.338976 0.380395 0.384174 0.688345
O4    O     O_R   0.176280 0.429360 0.578400 -0.533045
O5    O     O_R   0.011320 0.585570 0.587940 -0.526192
C2    C     C_R   0.344861 0.413169 0.604224 0.726301
O6    O     O_R   0.500030 0.414430 0.412060 -0.527535
O7    O     O_3   0.340950 0.551220 0.502940 -0.374047
V1    V     V_3+5 0.064020 0.490500 0.499460 1.463569
O8    O     O_R   0.681910 0.595110 0.587900 -0.542162
C3    C     C_R   0.853385 0.617626 0.617109 0.734904
O9    O     O_R   0.675640 0.570640 0.421600 -0.551298
C4    C     C_R   0.843819 0.586109 0.394769 0.697344
V2    V     V_3+5 0.564670 0.509500 0.500540 1.441234
O10   O     O_3   0.837610 0.448780 0.497060 -0.351849
C5    C     C_R   0.918398 0.863541 0.168377 -0.052317
C6    C     C_R   0.850753 0.636246 0.330480 -0.133405
C7    C     C_R   0.756838 0.655007 0.193493 0.053857
C8    C     C_R   0.767330 0.605053 0.253025 0.086059
C9    C     C_R   0.940337 0.714320 0.346372 -0.017208
C10   C     C_R   0.937322 0.762864 0.285762 0.095490
C11   C     C_R   0.834819 0.735523 0.211575 0.062445
C12   C     C_R   0.817344 0.789407 0.156199 -0.210923
C13   C     C_R   0.029782 0.886856 0.238643 -0.161617
C14   C     C_R   0.035166 0.838816 0.297259 -0.159924
H1    H     H_    0.729200 0.774678 0.102036 0.117996
H2    H     H_    0.111136 0.943437 0.248874 0.113489
H3    H     H_    0.121498 0.861908 0.350612 0.121602
C15   C     C_3   0.771248 0.809146 0.734989 -0.125500
C16   C     C_3   0.941374 0.773802 0.682167 -0.263733
H4    H     H_    0.988999 0.793948 0.626714 0.133084
H5    H     H_    0.682924 0.858999 0.721632 0.168260
C17   C     C_3   0.873260 0.687405 0.687855 -0.127390
C18   C     C_3   0.703076 0.721835 0.739978 -0.061222
C19   C     C_3   0.828394 0.725777 0.817645 -0.180132
C20   C     C_3   0.998378 0.691105 0.764689 0.283141
C21   C     C_3   0.064252 0.777436 0.759656 0.298225
C22   C     C_3   0.895876 0.812080 0.811900 -0.089391
H6    H     H_    0.556770 0.694475 0.730086 0.204582
H7    H     H_    0.781469 0.706028 0.873440 0.145672
C23   C     C_3   0.508064 0.241934 0.308782 0.297851
C24   C     C_3   0.354801 0.177351 0.272236 -0.163895
H8    H     H_    0.332423 0.118202 0.290828 0.124237
C25   C     C_3   0.410784 0.189250 0.187239 -0.035952
C26   C     C_3   0.564442 0.252914 0.223579 -0.140485
C27   C     C_3   0.412528 0.320580 0.228704 -0.202272
C28   C     C_3   0.258709 0.256207 0.191179 -0.117299
C29   C     C_3   0.202933 0.245217 0.277007 -0.167466
C30   C     C_3   0.356670 0.309131 0.313849 -0.047205
H9    H     H_    0.714203 0.255333 0.202211 0.115741
H10   H     H_    0.432957 0.380197 0.211428 0.113368
H11   H     H_    0.156206 0.262518 0.141829 0.114735
H12   H     H_    0.053618 0.241907 0.298013 0.179538
C31   C     C_R   0.414736 0.135327 0.830280 -0.114087
C32   C     C_R   0.351039 0.359658 0.664472 -0.089372
C33   C     C_R   0.286771 0.344674 0.801558 -0.184055
C34   C     C_R   0.286737 0.390793 0.741859 -0.176293
C35   C     C_R   0.405968 0.277324 0.644567 0.065443
C36   C     C_R   0.411908 0.230173 0.706890 0.078299
C37   C     C_R   0.354422 0.264623 0.786508 0.099783
C38   C     C_R   0.368113 0.219005 0.849561 0.004818
C39   C     C_R   0.471375 0.101408 0.750560 0.057243
C40   C     C_R   0.475852 0.149960 0.691977 -0.194845
H13   H     H_    0.233250 0.373451 0.859718 0.138402
H14   H     H_    0.528439 0.122703 0.633815 0.152509
H15   H     H_    0.234262 0.451597 0.756253 0.189528
O11   O     O_R   0.266070 0.085680 0.087850 -0.543505
O12   O     O_R   0.590090 0.070660 0.921580 -0.543808
O13   O     O_R   0.754780 0.914400 0.912080 -0.531407
C41   C     C_R   0.421495 0.085401 0.894252 0.701003
O14   O     O_R   0.596110 0.095130 0.087880 -0.541126
O15   O     O_R   0.760850 0.939050 0.079570 -0.538012
C42   C     C_R   0.427447 0.119015 0.116257 0.675079
O16   O     O_R   0.260010 0.061030 0.920360 -0.534749
O17   O     O_3   0.425070 0.948840 0.997010 -0.349451
V3    V     V_3+5 0.702100 0.009490 0.000550 1.444710
O18   O     O_R   0.090200 0.929250 0.078500 -0.540387
C43   C     C_R   0.922272 0.913848 0.105197 0.690231
O19   O     O_R   0.084180 0.904770 0.912200 -0.510111
C44   C     C_R   0.913121 0.882203 0.882847 0.744131
V4    V     V_3+5 0.201420 0.990350 0.999580 1.480806
O20   O     O_3   0.928580 0.051150 0.002990 -0.379012
Br1   Br    Br    0.174153 0.612704 0.791739 -0.636454
Br2   Br    Br    0.317147 0.823830 0.777447 -0.645546
Br3   Br    Br    0.705551 0.226615 0.385945 -0.685765
C45   C     C_3   0.363719 0.262441 0.937717 -0.358578
C46   C     C_3   0.544429 0.316835 0.957409 -0.289122
C47   C     C_3   0.555896 0.356831 0.045996 -0.824695
H16   H     H_    0.421377 0.389628 0.064816 0.231569
H17   H     H_    0.581553 0.309873 0.082314 0.237698
H18   H     H_    0.678223 0.400614 0.055970 0.225787
H19   H     H_    0.675155 0.279790 0.942361 0.197798
H20   H     H_    0.546065 0.365311 0.921341 0.205545
H21   H     H_    0.230461 0.297973 0.950292 0.162171
H22   H     H_    0.360543 0.219733 0.980035 0.161568
C48   C     C_3   0.542573 0.015003 0.726712 -0.332115
C49   C     C_3   0.452521 0.968301 0.646207 -0.309082
C50   C     C_3   0.599200 0.951628 0.578310 -0.792917
H23   H     H_    0.672191 0.008307 0.569917 0.232257
H24   H     H_    0.709685 0.909070 0.592271 0.226058
H25   H     H_    0.525435 0.923834 0.520593 0.222955
H26   H     H_    0.394778 0.909175 0.655006 0.223102
H27   H     H_    0.327889 0.000785 0.626560 0.197701
H28   H     H_    0.702023 0.017526 0.723013 0.174666
H29   H     H_    0.511075 0.979927 0.774142 0.177013
C51   C     C_3   0.439991 0.240672 0.556020 -0.366957
C52   C     C_3   0.251419 0.211875 0.509910 -0.274529
C53   C     C_3   0.167724 0.134843 0.531815 -0.717915
H30   H     H_    0.274242 0.085446 0.520501 0.220632
H31   H     H_    0.125007 0.146102 0.596098 0.230125
H32   H     H_    0.037640 0.115072 0.493771 0.231723
H33   H     H_    0.142795 0.260522 0.521155 0.210601
H34   H     H_    0.280106 0.199159 0.444198 0.207358
H35   H     H_    0.506399 0.287336 0.526819 0.188991
H36   H     H_    0.548203 0.192378 0.546406 0.197895
C54   C     C_3   0.669829 0.621415 0.109650 -0.352026
C55   C     C_3   0.451688 0.634049 0.108974 -0.337540
C56   C     C_3   0.360408 0.595758 0.027437 -0.703472
H37   H     H_    0.422481 0.623405 0.978714 0.256584
H38   H     H_    0.384882 0.529363 0.013875 0.225977
H39   H     H_    0.202961 0.606133 0.029064 0.224432
H40   H     H_    0.384156 0.606621 0.156706 0.190411
H41   H     H_    0.421217 0.700002 0.122053 0.205936
H42   H     H_    0.738458 0.648422 0.062131 0.166110
H43   H     H_    0.703692 0.556842 0.088440 0.179376
C57   C     C_3   0.698993 0.516286 0.233863 -0.365104
C58   C     C_3   0.866267 0.455822 0.224154 -0.291465
C59   C     C_3   0.022147 0.473794 0.166811 -0.747156
H44   H     H_    0.960680 0.475832 0.106375 0.219871
H45   H     H_    0.096644 0.532236 0.191869 0.226780
H46   H     H_    0.130227 0.425141 0.159392 0.200875
H47   H     H_    0.934080 0.454531 0.283713 0.198816
H48   H     H_    0.807158 0.394032 0.200716 0.180867
H49   H     H_    0.604416 0.503883 0.282400 0.147356
H50   H     H_    0.602600 0.501510 0.180454 0.163461
C60   C     C_3   0.034655 0.745866 0.428999 -0.359199
C61   C     C_3   0.251477 0.729141 0.427391 -0.293234
C62   C     C_3   0.340794 0.750565 0.512069 -0.707683
H51   H     H_    0.310478 0.814491 0.539133 0.215892
H52   H     H_    0.279937 0.711073 0.551303 0.248465
H53   H     H_    0.498951 0.742342 0.509052 0.211303
H54   H     H_    0.277306 0.664129 0.402200 0.215722
H55   H     H_    0.325013 0.765307 0.388060 0.180044
H56   H     H_    0.007735 0.811476 0.449891 0.159595
H57   H     H_    0.967126 0.718012 0.476352 0.155966

loop_
_geom_bond_atom_site_label_1
_geom_bond_atom_site_label_2
_ccdc_geom_bond_type
C45   C46   S    
C54   C55   S    
C17   C20   S    
C4    C6    S    
O12   V3    S    
C7    C8    A    
C12   H1    S    
C9    C60   S    
C1    O6    A    
C58   C59   S    
C48   C49   S    
C25   C26   S    
C13   H2    S    
C20   C21   S    
C15   C18   S    
C31   C39   A    
C19   C20   S    
C57   H49   S    
C61   H54   S    
C53   H31   S    
O5    C3    A    
C21   C22   S    
C62   H53   S    
C25   C28   S    
V3    O20   S    
O11   C42   A    
V2    O10   S    
C6    C9    A    
C31   C38   A    
C5    C43   S    
C52   C53   S    
C17   C18   S    
C23   C26   S    
C52   H34   S    
O12   C41   A    
O13   C44   A    
C55   C56   S    
C46   H19   S    
O8    V2    S    
C50   H23   S    
C45   H21   S    
C49   H26   S    
C51   C52   S    
C20   Br1   S    
C23   Br3   S    
C47   H17   S    
C54   H43   S    
C59   H46   S    
C48   H28   S    
C35   C36   A    
O9    C4    A    
O13   V3    S    
C19   H7    S    
C2    C32   S    
C27   C30   S    
C56   H38   S    
C28   H11   S    
C62   H51   S    
C46   H20   S    
C5    C12   A    
C21   Br2   S    
C60   H57   S    
O17   V3    S    
C22   C44   S    
C8    C57   S    
O19   V4    S    
C53   H32   S    
O17   V4    S    
O4    C2    A    
O18   C43   A    
C24   C29   S    
C13   C14   A    
C26   H9    S    
C19   C22   S    
C35   C51   S    
C1    C30   S    
C36   C37   A    
C18   C19   S    
C40   H14   S    
C52   H33   S    
O2    C1    A    
C24   H8    S    
O14   V3    S    
C58   H48   S    
O18   V4    S    
C27   C28   S    
C11   C12   A    
C45   H22   S    
O15   C43   A    
C16   C17   S    
C55   H41   S    
C57   H50   S    
C47   H18   S    
C24   C25   S    
C51   H35   S    
O3    C4    A    
C23   C30   S    
O1    V2    S    
C48   H29   S    
O14   C42   A    
C28   C29   S    
C50   H24   S    
C29   C30   S    
O6    V2    S    
O9    V2    S    
C23   C24   S    
C3    C17   S    
C57   C58   S    
O2    V1    S    
C7    C11   A    
C59   H44   S    
O7    V1    S    
C56   H39   S    
C60   H56   S    
C26   C27   S    
C15   H5    S    
O1    C2    A    
C16   H4    S    
C33   H13   S    
O19   C44   A    
O5    V1    S    
C56   H37   S    
C16   C21   S    
O16   V4    S    
C33   C37   A    
C27   H10   S    
C60   C61   S    
C38   C45   S    
C32   C35   A    
C36   C40   A    
C5    C13   A    
C18   H6    S    
O7    V2    S    
O11   V4    S    
O4    V1    S    
C39   C48   S    
O3    V1    S    
V1    O10   S    
C58   H47   S    
C41   O16   A    
C62   H52   S    
C33   C34   A    
C15   C16   S    
C49   H27   S    
C49   C50   S    
C32   C34   A    
C15   C22   S    
C6    C8    A    
C55   H40   S    
C37   C38   A    
C51   H36   S    
C61   C62   S    
C39   C40   A    
C34   H15   S    
C50   H25   S    
C46   C47   S    
C7    C54   S    
C14   H3    S    
V4    O20   S    
C10   C14   A    
C53   H30   S    
O15   V3    S    
C10   C11   A    
C25   C42   S    
C61   H55   S    
C47   H16   S    
C9    C10   A    
C54   H42   S    
C31   C41   S    
C29   H12   S    
O8    C3    A    
C59   H45   S    
