data_mof_unit_40844.cif
_audit_creation_date              2012-12-11T20:30:27-0500
_audit_creation_method            fapswitch 2.2
_symmetry_space_group_name_H-M    P1
_symmetry_Int_Tables_number       1
_space_group_crystal_system       triclinic
_cell_length_a                    8.170019
_cell_length_b                    17.411805
_cell_length_c                    18.703265
_cell_angle_alpha                 102.716735
_cell_angle_beta                  90.806218
_cell_angle_gamma                 98.904734
_cell_volume                      2560.88090216

loop_
_atom_site_label
_atom_site_type_symbol
_atom_type_description
_atom_site_fract_x
_atom_site_fract_y
_atom_site_fract_z
_atom_type_partial_charge
Ba1   Ba    Ba6+2 0.853800 0.535410 0.467450 1.643311
Ba2   Ba    Ba6+2 0.336030 0.464660 0.532560 1.630581
C1    C     C_3   0.643114 0.812035 0.283577 -0.189684
C2    C     C_R   0.905352 0.410210 0.086488 0.014264
C3    C     C_R   0.749438 0.366630 0.058820 -0.103753
C4    C     C_3   0.146035 0.762764 0.289341 0.382902
C5    C     C_R   0.686338 0.369157 0.989579 -0.088032
C6    C     C_R   0.779114 0.414042 0.945845 0.029937
C7    C     C_R   0.937512 0.456371 0.972123 0.010133
C8    C     C_R   0.716195 0.416495 0.876197 -0.115726
C9    C     C_R   0.812841 0.457059 0.829742 -0.039770
C10   C     C_R   0.972697 0.499426 0.855901 -0.004456
C11   C     C_R   0.032368 0.500378 0.927870 -0.007319
C12   C     C_3   0.616927 0.732118 0.306493 0.413668
C13   C     C_R   0.757349 0.454867 0.757117 -0.005730
C14   C     C_R   0.865912 0.487635 0.710315 -0.298722
C15   C     C_R   0.022013 0.531395 0.735487 0.040846
C16   C     C_3   0.092513 0.815729 0.241174 -0.357625
C17   C     C_R   0.073905 0.540294 0.810132 -0.043735
C18   C     C_R   0.159109 0.496813 0.069443 -0.009340
C19   C     C_R   0.221801 0.496148 0.140707 -0.009199
C20   C     C_R   0.117313 0.457990 0.187700 -0.023157
C21   C     C_R   0.963081 0.412578 0.158191 -0.063774
C22   C     C_R   0.225130 0.587503 0.840188 -0.050201
C23   C     C_3   0.462297 0.330768 0.304299 0.323988
C24   C     C_R   0.284022 0.588097 0.911021 0.036028
C25   C     C_R   0.189337 0.543366 0.954798 0.012389
C26   C     C_R   0.253508 0.540698 0.024977 -0.002794
C27   C     C_R   0.439068 0.631628 0.938112 -0.088515
C28   C     C_3   0.242943 0.710391 0.631001 0.314539
C29   C     C_R   0.504382 0.626953 0.005808 -0.094550
C30   C     C_R   0.415553 0.578974 0.048723 0.046575
C31   C     C_R   0.389172 0.531909 0.163727 -0.038937
C32   C     C_R   0.490154 0.564989 0.112229 0.020116
C33   C     C_R   0.445150 0.533774 0.237204 -0.014816
C34   C     C_3   0.450005 0.303366 0.221164 -0.409007
C35   C     C_R   0.332987 0.503756 0.284934 -0.300543
C36   C     C_R   0.170465 0.466125 0.262325 0.053634
C37   C     C_2   0.446107 0.718204 0.478364 -0.242442
C38   C     C_3   0.368494 0.765899 0.432589 -0.076502
C39   C     C_2   0.419359 0.854083 0.459187 -0.108841
C40   C     C_3   0.280072 0.801000 0.652763 -0.385984
C41   C     C_2   0.554311 0.884181 0.505055 0.011546
C42   C     C_2   0.640468 0.828213 0.536198 -0.127117
C43   C     C_1   0.578852 0.751036 0.522579 0.061980
C44   C     C_R   0.793346 0.141394 0.542882 -0.143094
C45   C     C_3   0.056308 0.309128 0.727144 0.360596
C46   C     C_R   0.856549 0.222033 0.550181 0.011451
C47   C     C_R   0.617917 0.238605 0.479863 0.033276
C48   C     C_R   0.556298 0.157479 0.470606 -0.128642
C49   C     C_R   0.642783 0.108396 0.502394 0.013142
C50   C     C_2   0.616827 0.971364 0.525875 -0.077411
C51   C     C_2   0.582038 0.021766 0.484506 -0.074337
C52   C     C_3   0.974896 0.278160 0.356521 0.313132
C53   C     C_R   0.765930 0.270927 0.521038 -0.266218
C54   C     C_3   0.972020 0.189211 0.320005 -0.083178
C55   C     C_3   0.729398 0.650716 0.693055 0.319406
C56   C     C_3   0.082703 0.293246 0.802956 -0.362437
C57   C     C_3   0.742079 0.676666 0.776330 -0.401908
C58   C     C_3   0.800713 0.151045 0.283401 -0.354419
C59   C     C_3   0.024205 0.141389 0.373285 -0.449047
C60   C     C_3   0.597823 0.802419 0.202198 -0.405717
C61   C     C_3   0.140955 0.677876 0.243246 -0.290143
C62   C     C_3   0.597898 0.175226 0.763650 -0.420146
C63   C     C_3   0.674449 0.564324 0.111146 -0.365705
C64   C     C_3   0.524999 0.259956 0.678018 0.390175
C65   C     C_3   0.490083 0.178355 0.697358 -0.193729
C66   C     C_R   0.000653 0.454697 0.042828 0.014841
H1    H     H_    0.654605 0.743863 0.365620 0.035615
H2    H     H_    0.760878 0.626080 0.800915 0.061426
H3    H     H_    0.625897 0.697730 0.796252 0.119438
H4    H     H_    0.564963 0.852119 0.316466 0.053577
H5    H     H_    0.554939 0.386281 0.319277 0.060154
H6    H     H_    0.353031 0.249756 0.204158 0.117327
H7    H     H_    0.417026 0.351476 0.196146 0.058727
H8    H     H_    0.571009 0.288436 0.201105 0.115970
H9    H     H_    0.124560 0.369286 0.726479 0.081871
H10   H     H_    0.921800 0.307710 0.717025 -0.067913
H11   H     H_    0.217134 0.299379 0.817140 0.150156
H12   H     H_    0.385334 0.820460 0.694318 0.115512
H13   H     H_    0.028413 0.336445 0.844671 0.074103
H14   H     H_    0.021873 0.232011 0.804276 0.107206
H15   H     H_    0.659667 0.274809 0.670528 -0.078799
H16   H     H_    0.456507 0.256063 0.625389 0.079376
H17   H     H_    0.515629 0.131855 0.649695 0.071796
H18   H     H_    0.674164 0.332148 0.091535 0.063236
H19   H     H_    0.564559 0.335984 0.970258 0.067617
H20   H     H_    0.824965 0.482337 0.653938 0.072774
H21   H     H_    0.593342 0.384553 0.858186 0.105227
H22   H     H_    0.885240 0.378870 0.190520 0.101335
H23   H     H_    0.312922 0.825551 0.604074 0.082091
H24   H     H_    0.300859 0.623012 0.808581 0.093884
H25   H     H_    0.512185 0.667831 0.906165 0.060347
H26   H     H_    0.275537 0.789170 0.308585 -0.031710
H27   H     H_    0.374198 0.508515 0.341183 0.068669
H28   H     H_    0.506719 0.999390 0.433900 0.064757
H29   H     H_    0.751561 0.851683 0.571704 0.079713
H30   H     H_    0.867974 0.104141 0.563640 0.074238
H31   H     H_    0.695148 0.993713 0.575733 0.070876
H32   H     H_    0.347168 0.891909 0.437729 0.059840
H33   H     H_    0.443753 0.132192 0.436839 0.065512
H34   H     H_    0.859032 0.287107 0.384688 -0.013428
H35   H     H_    0.405789 0.654133 0.465583 0.074792
H36   H     H_    0.816018 0.333224 0.525932 0.072908
H37   H     H_    0.969310 0.789531 0.213426 0.127324
H38   H     H_    0.086289 0.876054 0.275194 0.101830
H39   H     H_    0.356119 0.687060 0.611581 0.001206
H40   H     H_    0.145236 0.692625 0.586183 0.090824
H41   H     H_    0.169033 0.824916 0.676009 0.129178
H42   H     H_    0.764095 0.185217 0.243826 0.144560
H43   H     H_    0.803525 0.088889 0.252846 0.103583
H44   H     H_    0.705707 0.149811 0.325186 0.123119
H45   H     H_    0.079860 0.300071 0.396937 0.069201
H46   H     H_    0.938025 0.142357 0.418090 0.130387
H47   H     H_    0.023049 0.078327 0.344283 0.123528
H48   H     H_    0.152151 0.166066 0.396100 0.157351
H49   H     H_    0.063722 0.185462 0.276355 0.123322
H50   H     H_    0.483354 0.705971 0.297257 -0.106793
H51   H     H_    0.338910 0.343222 0.323136 -0.002414
H52   H     H_    0.677654 0.764824 0.167531 0.141221
H53   H     H_    0.466235 0.774509 0.189396 0.118917
H54   H     H_    0.615774 0.861936 0.188480 0.114160
H55   H     H_    0.183582 0.822084 0.198461 0.068349
H56   H     H_    0.849857 0.635665 0.673462 0.006132
H57   H     H_    0.357097 0.164743 0.709132 0.146186
H58   H     H_    0.180828 0.639056 0.277438 0.077517
H59   H     H_    0.014024 0.652219 0.219657 0.155423
H60   H     H_    0.225808 0.678113 0.197459 0.042381
H61   H     H_    0.574715 0.220949 0.812443 0.148037
H62   H     H_    0.568107 0.115431 0.776396 0.121221
H63   H     H_    0.731044 0.185661 0.751501 0.123319
H64   H     H_    0.625861 0.660926 0.024289 0.068792
H65   H     H_    0.702230 0.513435 0.132031 0.142504
H66   H     H_    0.717067 0.551938 0.054344 0.099000
H67   H     H_    0.631466 0.597440 0.677007 0.068430
H68   H     H_    0.746324 0.622088 0.140151 0.140432
H69   H     H_    0.774071 0.841209 0.295983 0.123337
H70   H     H_    0.848121 0.725921 0.794187 0.121094
O1    O     O_2   0.871520 0.445720 0.321500 -0.451805
O2    O     O_2   0.194934 0.222683 0.537581 -0.496835
O3    O     O_3   0.116004 0.250376 0.674770 -0.595650
O4    O     O_3   0.121030 0.451930 0.411150 -0.495397
O5    O     O_3   0.581210 0.598010 0.542960 -0.493428
O6    O     O_2   0.335820 0.303580 0.452320 -0.476218
O7    O     O_3   0.511369 0.270355 0.334471 -0.646250
O8    O     O_2   0.418413 0.464578 0.755490 -0.489184
O9    O     O_3   0.470315 0.317324 0.733638 -0.608107
O10   O     O_3   0.662190 0.593100 0.375060 -0.469892
O11   O     O_2   0.796211 0.540466 0.252542 -0.485908
O12   O     O_3   0.690379 0.713856 0.664565 -0.634990
O13   O     O_3   0.989339 0.319195 0.300187 -0.660801
O14   O     O_3   0.716376 0.680897 0.266623 -0.591832
O15   O     O_2   0.853880 0.696450 0.547730 -0.458612
O16   O     O_3   0.085100 0.636210 0.413950 -0.462840
O17   O     O_2   0.059869 0.780810 0.491329 -0.483794
O18   O     O_3   0.039295 0.763153 0.348279 -0.558768
O19   O     O_2   0.318180 0.554310 0.678550 -0.467156
O20   O     O_3   0.068680 0.548140 0.588860 -0.497224
O21   O     O_3   0.527520 0.406960 0.624950 -0.478925
O22   O     O_3   0.190995 0.681550 0.692372 -0.643066
O23   O     O_3   0.608500 0.402060 0.457050 -0.472189
O24   O     O_3   0.104610 0.363860 0.586060 -0.481227
P1    P     P_3+3 0.038810 0.422920 0.331160 0.977708
P2    P     P_3+3 0.678260 0.686080 0.568600 0.982780
P3    P     P_3+3 0.138837 0.738398 0.422119 0.970429
P4    P     P_3+3 0.150900 0.577150 0.668860 0.969941
P5    P     P_3+3 0.068252 0.263111 0.587072 0.946860
P6    P     P_3+3 0.652663 0.584985 0.280910 0.955483
P7    P     P_3+3 0.520134 0.301210 0.430225 0.939290
P8    P     P_3+3 0.544018 0.412123 0.718999 0.940678

loop_
_geom_bond_atom_site_label_1
_geom_bond_atom_site_label_2
_ccdc_geom_bond_type
C46   C53   A    
C47   P7    S    
C40   H12   S    
O21   P8    S    
C28   H39   S    
Ba2   O6    S    
C54   H49   S    
Ba2   O24   S    
C5    C6    A    
C50   C51   D    
C28   O22   S    
C61   H59   S    
C35   H27   S    
C24   C25   A    
C35   C36   A    
C44   C49   A    
C58   H44   S    
C25   C26   A    
Ba1   O20   S    
C33   C35   A    
C40   H41   S    
C22   C24   A    
Ba1   Ba2   S    
C15   P4    S    
C65   H57   S    
C41   C50   S    
C55   C57   S    
C19   C31   A    
C13   C14   A    
C20   C36   A    
C52   H45   S    
C23   H51   S    
C57   H3    S    
C32   C63   S    
C40   H23   S    
C7    C11   A    
Ba1   O4    S    
C34   H8    S    
C31   C33   A    
C64   H15   S    
C9    C13   A    
C5    H19   S    
C8    H21   S    
C6    C7    A    
C12   H50   S    
C59   H47   S    
O16   P3    S    
C1    H69   S    
O22   P4    S    
Ba2   P4    S    
C60   H52   S    
C61   H60   S    
Ba1   O1    S    
O9    P8    S    
C16   H55   S    
C37   C43   D    
O23   P7    S    
O2    P5    D    
C64   C65   S    
C44   H30   S    
Ba1   O23   S    
C19   C20   A    
C51   H28   S    
Ba2   O5    S    
C39   C41   D    
O11   P6    D    
C22   H24   S    
Ba2   O23   S    
O14   P6    S    
C52   H34   S    
C48   C49   A    
O7    P7    S    
C4    C16   S    
C44   C46   A    
C65   H17   S    
O3    P5    S    
O15   P2    D    
C63   H68   S    
C62   C65   S    
C26   C30   A    
Ba1   P2    S    
C56   H13   S    
C37   C38   S    
C3    C5    A    
C2    C21   A    
Ba2   O21   S    
C18   C26   A    
C57   H70   S    
C4    H26   S    
C47   C53   A    
C53   H36   S    
C54   C58   S    
C13   P8    S    
C49   C51   S    
C30   C32   A    
C4    C61   S    
C41   C42   S    
C16   H38   S    
C29   H64   S    
Ba1   O5    S    
C34   H7    S    
C42   H29   S    
C29   C30   A    
C21   H22   S    
C62   H63   S    
Ba2   O20   S    
C55   O12   S    
C59   H48   S    
C33   P6    S    
C38   P3    S    
C39   H32   S    
C10   C11   A    
Ba1   O15   S    
C64   O9    S    
C1    C12   S    
C34   H6    S    
C56   H11   S    
C24   C27   A    
C3    H18   S    
C36   P1    S    
C62   H62   S    
O13   P1    S    
O8    P8    D    
Ba2   O4    S    
C12   H1    S    
C45   H9    S    
O5    P2    S    
C60   H54   S    
C42   C43   D    
O20   P4    S    
C2    C66   A    
C1    C60   S    
C38   C39   S    
C28   H40   S    
C23   C34   S    
C54   C59   S    
C18   C66   A    
C28   C40   S    
C63   H66   S    
C2    C3    A    
O19   P4    D    
C9    C10   A    
C52   C54   S    
C37   H35   S    
C52   O13   S    
C62   H61   S    
O12   P2    S    
C45   O3    S    
C50   H31   S    
C56   H14   S    
C17   C22   A    
C16   H37   S    
C55   H67   S    
C27   C29   A    
C58   H43   S    
C45   C56   S    
C27   H25   S    
C14   C15   A    
C46   P5    S    
O18   P3    S    
O17   P3    D    
Ba2   O19   S    
O10   P6    S    
O6    P7    D    
C10   C17   A    
O1    P1    D    
C15   C17   A    
C31   C32   A    
C1    H4    S    
C23   H5    S    
O4    P1    S    
Ba1   O16   S    
C4    O18   S    
C7    C66   A    
C61   H58   S    
C58   H42   S    
C8    C9    A    
C57   H2    S    
C64   H16   S    
O24   P5    S    
C18   C19   A    
Ba1   P1    S    
C48   H33   S    
C6    C8    A    
C47   C48   A    
C12   O14   S    
C59   H46   S    
C14   H20   S    
C20   C21   A    
C11   C25   A    
Ba1   O10   S    
C23   O7    S    
C45   H10   S    
C60   H53   S    
C63   H65   S    
C43   P2    S    
C55   H56   S    
