data_mof_unit_41830.cif
_audit_creation_date              2012-12-10T17:32:15-0500
_audit_creation_method            fapswitch 2.2
_symmetry_space_group_name_H-M    P1
_symmetry_Int_Tables_number       1
_space_group_crystal_system       triclinic
_cell_length_a                    12.321881
_cell_length_b                    13.244983
_cell_length_c                    15.060026
_cell_angle_alpha                 77.996948
_cell_angle_beta                  101.286415
_cell_angle_gamma                 116.768201
_cell_volume                      2131.76691247

loop_
_atom_site_label
_atom_site_type_symbol
_atom_type_description
_atom_site_fract_x
_atom_site_fract_y
_atom_site_fract_z
_atom_type_partial_charge
C1    C     C_R   0.854678 0.286953 0.511340 0.792179
C2    C     C_R   0.938466 0.553826 0.074483 0.117037
C3    C     C_R   0.099132 0.371011 0.085456 -0.272570
C4    C     C_R   0.097775 0.368923 0.992670 0.449954
C5    C     C_R   0.046865 0.433555 0.925853 -0.013962
C6    C     C_R   0.995632 0.497043 0.953385 -0.043287
C7    C     C_R   0.948550 0.565607 0.887909 0.007453
C8    C     C_R   0.886667 0.617827 0.917012 -0.072600
C9    C     C_R   0.882375 0.612514 0.009339 -0.200061
C10   C     C_R   0.044264 0.435807 0.832274 -0.192099
C11   C     C_R   0.003622 0.507581 0.767409 -0.226578
C12   C     C_R   0.001764 0.503406 0.670757 0.865877
C13   C     C_R   0.965280 0.580585 0.795445 0.310271
C14   C     C_R   0.282760 0.012671 0.367993 -0.178985
C15   C     C_R   0.227845 0.833217 0.467288 -0.030649
C16   C     C_R   0.806784 0.100931 0.605039 -0.287478
C17   C     C_R   0.721865 0.995110 0.640364 0.427143
C18   C     C_R   0.600683 0.953316 0.600244 -0.238731
C19   C     C_R   0.562463 0.015392 0.522029 0.015221
C20   C     C_R   0.650832 0.121641 0.484775 0.077343
C21   C     C_R   0.438775 0.977136 0.481074 0.104280
C22   C     C_R   0.405254 0.046929 0.406327 0.152549
C23   C     C_R   0.145084 0.712872 0.485560 0.840877
C24   C     C_R   0.494760 0.147829 0.368108 -0.222607
C25   C     C_R   0.616235 0.182476 0.404565 -0.173634
C26   C     C_R   0.347590 0.870051 0.510128 -0.243454
C27   C     C_R   0.194089 0.906215 0.398699 -0.169083
C28   C     C_R   0.771693 0.165961 0.529542 -0.142528
C29   C     C_R   0.347720 0.330787 0.646248 -0.247578
C30   C     C_R   0.759249 0.644571 0.376267 0.105042
C31   C     C_R   0.662598 0.675824 0.349859 -0.231842
C32   C     C_R   0.559336 0.621430 0.396455 -0.173647
C33   C     C_R   0.551475 0.534558 0.470638 0.002822
C34   C     C_R   0.999644 0.498917 0.329109 0.788973
C35   C     C_R   0.653166 0.505665 0.495369 0.312788
C36   C     C_R   0.447243 0.475554 0.521248 -0.026777
C37   C     C_R   0.447489 0.389766 0.595301 0.158364
C38   C     C_R   0.547282 0.363201 0.618332 -0.249701
C39   C     C_R   0.647567 0.419772 0.569639 -0.140007
C40   C     C_R   0.341886 0.497387 0.502032 0.033146
C41   C     C_R   0.247416 0.356536 0.623933 0.105586
C42   C     C_R   0.940023 0.553809 0.167032 -0.227473
C43   C     C_R   0.997859 0.496556 0.232578 -0.066434
C44   C     C_R   0.051318 0.435902 0.205576 -0.206166
C45   C     C_R   0.048170 0.433241 0.112835 0.032183
C46   C     C_R   0.993622 0.494199 0.046837 0.093517
Cu1   Cu    Cu3+1 0.098270 0.475420 0.521130 0.954355
Cu2   Cu    Cu3+1 0.901730 0.524580 0.478870 0.984191
H1    H     H_    0.898194 0.600392 0.187987 0.151710
H2    H     H_    0.471119 0.199149 0.308480 0.162323
H3    H     H_    0.256517 0.066295 0.311799 0.157943
H4    H     H_    0.367750 0.810249 0.562798 0.154225
H5    H     H_    0.898526 0.136516 0.640425 0.176330
H6    H     H_    0.538608 0.873678 0.633887 0.170286
H7    H     H_    0.682681 0.257976 0.368960 0.167212
H8    H     H_    0.170099 0.311410 0.662986 0.136189
H9    H     H_    0.548084 0.297693 0.674939 0.164869
H10   H     H_    0.347387 0.265196 0.703018 0.161347
H11   H     H_    0.094042 0.389871 0.256666 0.156954
H12   H     H_    0.333602 0.560859 0.446950 0.125407
H13   H     H_    0.839038 0.687322 0.339769 0.117464
H14   H     H_    0.487389 0.649155 0.373106 0.140039
H15   H     H_    0.667745 0.742492 0.293068 0.157359
H16   H     H_    0.718886 0.393020 0.593232 0.197764
H17   H     H_    0.139873 0.323746 0.136908 0.188994
H18   H     H_    0.075101 0.382743 0.808407 0.226617
H19   H     H_    0.839018 0.661417 0.868892 0.238004
H20   H     H_    0.836172 0.655426 0.029800 0.171200
H21   H     H_    0.101266 0.878139 0.364867 0.151060
N1    N     N_R   0.246280 0.438190 0.553160 -0.191523
N2    N     N_R   0.754320 0.561190 0.447410 -0.202782
O1    O     O_R   0.972510 0.318130 0.526570 -0.582174
O2    O     O_R   0.806530 0.359650 0.490890 -0.615868
O3    O     O_R   0.082980 0.479210 0.647590 -0.587645
O4    O     O_R   0.917000 0.520730 0.611900 -0.538113
O5    O     O_R   0.193470 0.640350 0.509110 -0.596692
O6    O     O_R   0.027490 0.681870 0.473430 -0.541602
O7    O     O_R   0.083000 0.479270 0.388100 -0.591057
O8    O     O_R   0.917020 0.520790 0.352410 -0.605301
S1    S     S_3+6 0.763581 0.919101 0.741044 0.057199
O9    O     O_2   0.699560 0.918546 0.816532 -0.236027
O10   O     O_2   0.723743 0.797981 0.726523 -0.235969
O11   O     O_3   0.915592 0.980316 0.771680 -0.474369
H22   H     H_    0.952404 0.982117 0.718175 0.361377
S2    S     S_3+6 0.163499 0.287221 0.963282 -0.001260
O12   O     O_2   0.267494 0.364887 0.908252 -0.301532
O13   O     O_2   0.210809 0.228531 0.047469 -0.282000
O14   O     O_3   0.056566 0.188232 0.900212 -0.504073
H23   H     H_    0.102363 0.157351 0.875294 0.392007
S3    S     S_3+6 0.961505 0.702677 0.720005 0.031840
O15   O     O_2   0.836048 0.671204 0.668078 -0.221815
O16   O     O_2   0.991740 0.798932 0.772200 -0.270297
O17   O     O_3   0.064945 0.749878 0.645734 -0.517666
H24   H     H_    0.144707 0.767965 0.684178 0.328827

loop_
_geom_bond_atom_site_label_1
_geom_bond_atom_site_label_2
_ccdc_geom_bond_type
C16   C28   A    
C21   C26   A    
O17   H24   S    
C40   H12   S    
C12   O3    A    
C13   S3    S    
C19   C20   A    
C23   O5    A    
C30   N2    A    
C7    C8    A    
C41   H8    S    
S2    O12   D    
C2    C46   A    
C39   H16   S    
C40   N1    A    
O11   H22   S    
C29   H10   S    
Cu2   O8    S    
C36   C37   A    
C19   C21   A    
Cu1   O5    S    
C30   C31   A    
C20   C25   A    
C44   H11   S    
C33   C36   A    
C18   C19   A    
C16   H5    S    
C15   C27   A    
C31   C32   A    
C8    C9    A    
C1    C28   S    
C14   C27   A    
C27   H21   S    
C15   C23   S    
C35   N2    A    
C21   C22   A    
Cu2   O4    S    
C3    H17   S    
S1    O11   S    
C10   H18   S    
C24   H2    S    
C38   C39   A    
C1    O1    A    
S2    O13   D    
Cu1   Cu2   S    
C31   H15   S    
C36   C40   A    
C24   C25   A    
S1    O10   D    
C16   C17   A    
C15   C26   A    
C4    S2    S    
C20   C28   A    
C45   C46   A    
C3    C45   A    
C17   S1    S    
Cu2   O6    S    
C35   C39   A    
C43   C44   A    
Cu1   N1    S    
C37   C38   A    
C26   H4    S    
C34   O8    A    
C38   H9    S    
S3    O16   D    
C14   H3    S    
C7    C13   A    
C17   C18   A    
C23   O6    A    
C22   C24   A    
C12   O4    A    
C42   C43   A    
Cu2   N2    S    
C3    C4    A    
C44   C45   A    
S3    O17   S    
S2    O14   S    
C6    C46   A    
C29   C41   A    
Cu2   O2    S    
C34   C43   S    
C25   H7    S    
Cu1   O3    S    
S1    O9    D    
C11   C12   S    
C6    C7    A    
C1    O2    A    
C32   C33   A    
C14   C22   A    
C9    H20   S    
C32   H14   S    
C5    C10   A    
C34   O7    A    
C11   C13   A    
S3    O15   D    
C5    C6    A    
C2    C42   A    
C33   C35   A    
Cu1   O1    S    
C10   C11   A    
C18   H6    S    
C42   H1    S    
C4    C5    A    
O14   H23   S    
C8    H19   S    
C30   H13   S    
C29   C37   A    
Cu1   O7    S    
C2    C9    A    
C41   N1    A    
