data_mof_unit_13928.cif
_audit_creation_date              2012-12-10T20:28:46-0500
_audit_creation_method            fapswitch 2.2
_symmetry_space_group_name_H-M    P1
_symmetry_Int_Tables_number       1
_space_group_crystal_system       triclinic
_cell_length_a                    10.668143
_cell_length_b                    10.631514
_cell_length_c                    9.84028
_cell_angle_alpha                 89.591427
_cell_angle_beta                  91.553951
_cell_angle_gamma                 89.871114
_cell_volume                      1115.62776107

loop_
_atom_site_label
_atom_site_type_symbol
_atom_type_description
_atom_site_fract_x
_atom_site_fract_y
_atom_site_fract_z
_atom_type_partial_charge
C1    C     C_R   0.504396 0.260367 0.500753 0.892342
C2    C     C_R   0.617561 0.933100 0.441667 0.150873
C3    C     C_R   0.515560 0.871514 0.502334 -0.159699
C4    C     C_R   0.258692 0.503581 0.498035 0.877209
C5    C     C_R   0.433850 0.936215 0.583502 0.091067
C6    C     C_3   0.294028 0.930163 0.587211 -0.491221
C7    C     C_3   0.295317 0.072820 0.587595 -0.465437
C8    C     C_R   0.422617 0.420808 0.069705 0.196282
C9    C     C_R   0.568527 0.584990 0.073291 -0.071491
C10   C     C_R   0.568242 0.585315 0.929227 -0.122454
C11   C     C_R   0.422395 0.421066 0.926885 0.227719
C12   C     C_R   0.059664 0.525097 0.616714 -0.023765
C13   C     C_3   0.423899 0.281038 0.921774 -0.498278
C14   C     C_3   0.425115 0.280570 0.075881 -0.494847
C15   C     C_R   0.502709 0.739718 0.499806 0.916044
C16   C     C_R   0.738709 0.482824 0.502760 0.878608
C17   C     C_R   0.110758 0.597151 0.725066 -0.258623
C18   C     C_R   0.056531 0.595252 0.853031 0.097234
C19   C     C_R   0.953605 0.516476 0.874581 0.622339
C20   C     C_R   0.897759 0.451499 0.765026 0.060856
C21   C     C_R   0.941081 0.473749 0.631454 0.008724
C22   C     C_3   0.118162 0.402620 0.252473 -0.807571
C23   C     C_R   0.123365 0.498783 0.495116 -0.114908
C24   C     C_3   0.114789 0.671406 0.966138 -0.869956
C25   C     C_3   0.808958 0.345337 0.796349 -0.751794
C26   C     C_3   0.725469 0.137571 0.378677 -0.908907
C27   C     C_3   0.719522 0.856522 0.376131 -0.848485
C28   C     C_R   0.057659 0.445663 0.381510 0.170976
C29   C     C_R   0.929573 0.432536 0.388509 -0.189198
C30   C     C_R   0.870501 0.453770 0.510369 -0.157796
C31   C     C_R   0.435101 0.063683 0.584454 0.084359
C32   C     C_R   0.518697 0.128714 0.505147 -0.154355
C33   C     C_R   0.619458 0.065970 0.443133 0.164654
F1    F     F_    0.908479 0.501393 0.001487 -0.705125
H1    H     H_    0.261282 0.888538 0.683899 0.202610
H2    H     H_    0.192110 0.656009 0.710928 0.187167
H3    H     H_    0.875160 0.407168 0.298127 0.202816
H4    H     H_    0.250855 0.889674 0.493156 0.196313
H5    H     H_    0.049527 0.359303 0.180048 0.254081
H6    H     H_    0.160789 0.483584 0.199259 0.259949
H7    H     H_    0.189871 0.329617 0.277210 0.222966
H8    H     H_    0.116302 0.772171 0.935764 0.229826
H9    H     H_    0.061976 0.663146 0.061412 0.281828
H10   H     H_    0.212548 0.638962 0.986787 0.229896
H11   H     H_    0.724234 0.382067 0.845315 0.265208
H12   H     H_    0.253327 0.115830 0.493481 0.194983
H13   H     H_    0.780763 0.291933 0.703945 0.217957
H14   H     H_    0.856158 0.277872 0.867720 0.222753
H15   H     H_    0.717438 0.240506 0.388560 0.236296
H16   H     H_    0.816038 0.111116 0.429393 0.238232
H17   H     H_    0.728155 0.115833 0.268596 0.247849
H18   H     H_    0.680719 0.810607 0.283598 0.243284
H19   H     H_    0.801490 0.912343 0.345386 0.240120
H20   H     H_    0.755207 0.783345 0.448535 0.229238
H21   H     H_    0.262498 0.113405 0.684095 0.200596
H22   H     H_    0.626552 0.651180 0.128717 0.152732
H23   H     H_    0.625903 0.651941 0.875855 0.161181
H24   H     H_    0.335692 0.243054 0.875905 0.198541
H25   H     H_    0.511515 0.242796 0.879187 0.219375
H26   H     H_    0.338219 0.240823 0.118419 0.198154
H27   H     H_    0.513860 0.242834 0.122172 0.228519
N1    N     N_R   0.499160 0.499140 0.142800 -0.113987
N2    N     N_R   0.499160 0.499180 0.857150 -0.125520
O1    O     O_R   0.500020 0.316790 0.614690 -0.623927
O2    O     O_R   0.500000 0.316760 0.385350 -0.620564
O3    O     O_R   0.316770 0.500020 0.614690 -0.614684
O4    O     O_R   0.316760 0.499980 0.385350 -0.614819
O5    O     O_R   0.500000 0.683240 0.614650 -0.621917
O6    O     O_R   0.499980 0.683210 0.385310 -0.618202
O7    O     O_R   0.683240 0.500020 0.614650 -0.611438
O8    O     O_R   0.683230 0.499980 0.385310 -0.615279
Zn1   Zn    Zn3+2 0.500010 0.500020 0.653130 0.933264
Zn2   Zn    Zn3+2 0.499990 0.499980 0.346870 0.939228

loop_
_geom_bond_atom_site_label_1
_geom_bond_atom_site_label_2
_ccdc_geom_bond_type
C12   C17   A    
C4    O4    A    
C1    O2    A    
C27   H18   S    
C27   H19   S    
N1    Zn2   S    
O6    Zn2   S    
C29   C30   A    
O4    Zn2   S    
C17   H2    S    
O2    Zn2   S    
C14   H26   S    
C9    C10   A    
C25   H13   S    
C26   C33   S    
C31   C32   A    
C25   H14   S    
C7    H21   S    
O5    Zn1   S    
O1    Zn1   S    
C22   H6    S    
C32   C33   A    
C10   N2    A    
C6    H4    S    
C17   C18   A    
C27   H20   S    
C16   O7    A    
C9    H22   S    
C22   C28   S    
C13   C14   S    
C6    H1    S    
C4    O3    A    
C24   H8    S    
C11   C13   S    
C12   C23   A    
C2    C27   S    
C16   O8    A    
C1    O1    A    
C8    C11   A    
C13   H25   S    
C22   H5    S    
C2    C33   A    
C28   C29   A    
C8    N1    A    
C2    C3    A    
C6    C7    S    
C11   N2    A    
C26   H16   S    
C5    C6    S    
C24   H10   S    
C15   O6    A    
C18   C24   S    
N2    Zn1   S    
C22   H7    S    
C7    C31   S    
C20   C25   S    
C15   O5    A    
C16   C30   S    
C9    N1    A    
C7    H12   S    
C25   H11   S    
C10   H23   S    
C3    C15   S    
C20   C21   A    
C18   C19   A    
C21   C30   A    
C26   H15   S    
C29   H3    S    
O8    Zn2   S    
C24   H9    S    
O7    Zn1   S    
C13   H24   S    
C8    C14   S    
C5    C31   A    
C4    C23   S    
C26   H17   S    
C14   H27   S    
C12   C21   A    
C1    C32   S    
C23   C28   A    
C19   C20   A    
O3    Zn1   S    
C3    C5    A    
C19   F1    S    
