data_mof_unit_48100.cif
_audit_creation_date              2012-12-11T15:49:57-0500
_audit_creation_method            fapswitch 2.2
_symmetry_space_group_name_H-M    P1
_symmetry_Int_Tables_number       1
_space_group_crystal_system       triclinic
_cell_length_a                    8.241333
_cell_length_b                    19.005359
_cell_length_c                    27.019197
_cell_angle_alpha                 94.963558
_cell_angle_beta                  92.745704
_cell_angle_gamma                 85.539089
_cell_volume                      4199.74738521

loop_
_atom_site_label
_atom_site_type_symbol
_atom_type_description
_atom_site_fract_x
_atom_site_fract_y
_atom_site_fract_z
_atom_type_partial_charge
Ba1   Ba    Ba6+2 0.854000 0.466860 0.523710 1.646689
Ba2   Ba    Ba6+2 0.335820 0.533080 0.476290 1.658381
C1    C     C_3   0.706113 0.202055 0.653317 -0.189368
C2    C     C_R   0.951412 0.575549 0.180805 0.600854
C3    C     C_2   0.770738 0.556124 0.272774 -0.092035
C4    C     C_3   0.122800 0.314697 0.660435 0.317849
C5    C     C_3   0.747730 0.575200 0.327578 -0.046817
C6    C     C_1   0.981744 0.490667 0.343701 0.041114
C7    C     C_2   0.020459 0.485364 0.296065 -0.077190
C8    C     C_2   0.908417 0.518484 0.257425 0.208197
C9    C     C_R   0.025652 0.507043 0.103430 -0.080727
C10   C     C_R   0.028344 0.444902 0.128552 -0.034621
C11   C     C_R   0.068158 0.379648 0.102154 -0.056605
C12   C     C_3   0.664057 0.276122 0.636249 0.286882
C13   C     C_R   0.986531 0.572702 0.129918 -0.029412
C14   C     C_2   0.852792 0.529342 0.360888 -0.281480
C15   C     C_2   0.348841 0.480201 0.641053 -0.284436
C16   C     C_3   0.099271 0.295200 0.712911 -0.266758
C17   C     C_R   0.148910 0.434112 0.974982 0.019653
C18   C     C_R   0.084889 0.563010 0.974847 0.020504
C19   C     C_R   0.135071 0.496891 0.949421 0.050852
C20   C     C_R   0.206183 0.370252 0.948452 -0.099732
C21   C     C_R   0.244547 0.367851 0.898684 -0.053569
C22   C     C_R   0.227555 0.428878 0.872714 -0.027601
C23   C     C_3   0.520019 0.633061 0.625859 0.292871
C24   C     C_R   0.172319 0.493513 0.897885 -0.079546
C25   C     C_R   0.155196 0.554762 0.871589 -0.036277
C26   C     C_R   0.192913 0.550545 0.820623 0.598226
C27   C     C_R   0.265715 0.426181 0.822068 0.577858
C28   C     C_3   0.187404 0.317873 0.418838 0.312652
C29   C     C_2   0.426978 0.448277 0.727476 -0.079628
C30   C     C_3   0.446003 0.429430 0.672593 -0.044361
C31   C     C_1   0.211032 0.512409 0.657244 0.028118
C32   C     C_2   0.169467 0.513690 0.704613 -0.102922
C33   C     C_2   0.286010 0.482508 0.743353 0.193804
C34   C     C_3   0.523100 0.649815 0.681931 -0.353162
C35   C     C_R   0.106675 0.437133 0.025959 0.020767
C36   C     C_R   0.062260 0.503609 0.051850 0.051437
C37   C     C_R   0.054156 0.566736 0.026759 0.019012
C38   C     C_R   0.106452 0.375725 0.052219 -0.097537
C39   C     C_R   0.984040 0.634579 0.105146 -0.047081
C40   C     C_3   0.195964 0.238028 0.406801 -0.378905
C41   C     C_R   0.066540 0.623281 0.947080 -0.097155
C42   C     C_R   0.100878 0.619128 0.896819 -0.057505
C43   C     C_R   0.016683 0.631801 0.054899 -0.097336
C44   C     C_R   0.399882 0.299123 0.523285 -0.295684
C45   C     C_3   0.985187 0.733645 0.343464 0.266416
C46   C     C_R   0.537442 0.276441 0.496664 0.065279
C47   C     C_R   0.589147 0.204364 0.491464 -0.124965
C48   C     C_R   0.501125 0.154209 0.512157 -0.019469
C49   C     C_R   0.357743 0.177814 0.537195 -0.127891
C50   C     C_R   0.306047 0.250097 0.541685 0.013688
C51   C     C_R   0.546516 0.034077 0.544857 -0.075254
C52   C     C_3   0.007072 0.681783 0.579781 0.311883
C53   C     C_R   0.597152 0.961981 0.538849 -0.074876
C54   C     C_R   0.656745 0.931171 0.493362 0.055097
C55   C     C_R   0.666628 0.974585 0.454254 -0.076914
C56   C     C_3   0.020803 0.747359 0.290662 -0.270287
C57   C     C_R   0.616258 0.046825 0.460309 -0.073279
C58   C     C_R   0.555092 0.077421 0.505665 0.059599
C59   C     C_R   0.845901 0.827516 0.461393 -0.135203
C60   C     C_R   0.891000 0.754431 0.457064 -0.011406
C61   C     C_R   0.658093 0.733181 0.503155 0.041282
C62   C     C_R   0.611686 0.805605 0.507708 -0.120517
C63   C     C_R   0.704275 0.853785 0.486596 -0.003521
C64   C     C_3   0.993179 0.761604 0.592117 -0.380516
C65   C     C_R   0.792663 0.707721 0.476030 -0.264436
C66   C     C_3   0.671600 0.382734 0.376247 0.296883
C67   C     C_3   0.511893 0.722872 0.358283 0.463449
C68   C     C_3   0.670617 0.366353 0.320137 -0.351604
C69   C     C_2   0.645355 0.195628 0.704079 0.909975
C70   C     C_2   0.546887 0.796882 0.287496 0.865158
C71   C     C_3   0.469408 0.793843 0.336352 -0.176697
C72   C     C_R   0.989374 0.449164 0.179410 0.594704
H1    H     H_    0.709164 0.276657 0.598181 0.073649
H2    H     H_    0.794631 0.396380 0.389705 0.005404
H3    H     H_    0.582559 0.428481 0.384803 0.080480
H4    H     H_    0.649941 0.162449 0.626471 0.000280
H5    H     H_    0.764548 0.322939 0.310269 0.136472
H6    H     H_    0.697080 0.413963 0.301860 0.070190
H7    H     H_    0.548981 0.350100 0.306212 0.133965
H8    H     H_    0.529046 0.286039 0.634634 -0.041063
H9    H     H_    0.394247 0.621751 0.613019 0.018443
H10   H     H_    0.604368 0.585475 0.617484 0.068587
H11   H     H_    0.436671 0.696152 0.691754 0.137280
H12   H     H_    0.275212 0.222857 0.374915 0.129288
H13   H     H_    0.487111 0.603636 0.700221 0.075092
H14   H     H_    0.647837 0.661845 0.695769 0.132969
H15   H     H_    0.839972 0.189807 0.653565 0.117082
H16   H     H_    0.091667 0.343974 0.738534 0.108148
H17   H     H_    0.939541 0.680230 0.342764 0.017843
H18   H     H_    0.890936 0.774842 0.357142 0.024539
H19   H     H_    0.116764 0.707846 0.275922 0.175069
H20   H     H_    0.908350 0.743287 0.266707 0.142716
H21   H     H_    0.062305 0.801430 0.289879 0.106042
H22   H     H_    0.646864 0.713827 0.360654 -0.245809
H23   H     H_    0.246761 0.210624 0.439232 0.061984
H24   H     H_    0.466970 0.726858 0.396628 0.062291
H25   H     H_    0.513088 0.836766 0.363105 0.017558
H26   H     H_    0.044217 0.363759 0.654585 0.086393
H27   H     H_    0.335670 0.803596 0.331144 0.086039
H28   H     H_    0.135005 0.457895 0.284874 0.115907
H29   H     H_    0.069902 0.330767 0.120117 0.124308
H30   H     H_    0.517049 0.426343 0.753664 0.120055
H31   H     H_    0.288070 0.317313 0.880494 0.129663
H32   H     H_    0.225839 0.320804 0.965235 0.072867
H33   H     H_    0.132822 0.323085 0.035087 0.072110
H34   H     H_    0.071957 0.220618 0.397164 0.129218
H35   H     H_    0.686429 0.580578 0.246082 0.125147
H36   H     H_    0.956115 0.686045 0.124633 0.126392
H37   H     H_    0.023122 0.674865 0.962839 0.072313
H38   H     H_    0.252461 0.324548 0.657125 -0.028098
H39   H     H_    0.084609 0.667144 0.877681 0.124738
H40   H     H_    0.051305 0.537560 0.715581 0.126062
H41   H     H_    0.014072 0.682245 0.039479 0.072835
H42   H     H_    0.835965 0.538745 0.400556 0.080073
H43   H     H_    0.382477 0.481967 0.602859 0.077748
H44   H     H_    0.505393 0.824200 0.528494 0.076270
H45   H     H_    0.885850 0.663717 0.568562 -0.001130
H46   H     H_    0.590939 0.930414 0.570102 0.068858
H47   H     H_    0.502445 0.056129 0.580453 0.076410
H48   H     H_    0.696963 0.187581 0.470907 0.085309
H49   H     H_    0.709927 0.952341 0.418602 0.082535
H50   H     H_    0.984701 0.268952 0.714841 0.169286
H51   H     H_    0.622202 0.078466 0.429083 0.068127
H52   H     H_    0.924017 0.863605 0.447107 0.072934
H53   H     H_    0.283204 0.140149 0.551270 0.083498
H54   H     H_    0.828850 0.651599 0.473397 0.057608
H55   H     H_    0.358944 0.354755 0.526394 0.071450
H56   H     H_    0.090462 0.669083 0.548744 0.071277
H57   H     H_    0.202122 0.258744 0.725135 0.181451
H58   H     H_    0.311671 0.334512 0.427378 0.002710
H59   H     H_    0.110991 0.331450 0.451539 0.064983
H60   H     H_    0.701054 0.179171 0.775822 0.320952
H61   H     H_    0.699415 0.845624 0.247892 0.313759
H62   H     H_    0.903307 0.775958 0.621336 0.132880
H63   H     H_    0.953073 0.789108 0.558718 0.063638
H64   H     H_    0.113523 0.779787 0.605681 0.128890
N1    N     N_R   0.950623 0.514131 0.205113 -0.423798
N2    N     N_R   0.247172 0.486558 0.796060 -0.423580
O1    O     O_2   0.913240 0.537010 0.617740 -0.458685
O2    O     O_2   0.227818 0.749460 0.465604 -0.486873
O3    O     O_3   0.128742 0.737269 0.373198 -0.584698
O4    O     O_3   0.145240 0.536960 0.557560 -0.492622
O5    O     O_3   0.557280 0.416300 0.475860 -0.490706
O6    O     O_2   0.376710 0.670070 0.522470 -0.456663
O7    O     O_3   0.568435 0.691459 0.603358 -0.640441
O8    O     O_2   0.425141 0.529466 0.322188 -0.486051
O9    O     O_3   0.437386 0.667955 0.329255 -0.556776
O10   O     O_2   0.987973 0.394905 0.200524 -0.595399
O11   O     O_2   0.314947 0.369557 0.801110 -0.604269
O12   O     O_3   0.630410 0.322812 0.398154 -0.633664
O13   O     O_2   0.922540 0.633117 0.203607 -0.611123
O14   O     O_2   0.179963 0.604213 0.798456 -0.594534
O15   O     O_3   0.669960 0.410470 0.588880 -0.480226
O16   O     O_2   0.777737 0.464197 0.677957 -0.495799
O17   O     O_3   0.066481 0.649820 0.622290 -0.624873
O18   O     O_3   0.739341 0.327227 0.668667 -0.605440
O19   O     O_2   0.812980 0.329910 0.477500 -0.460016
O20   O     O_3   0.078660 0.374870 0.564770 -0.496317
O21   O     O_2   0.969107 0.249103 0.533943 -0.485787
O22   O     O_2   0.499098 0.201335 0.710696 -0.616094
O23   O     O_3   0.079105 0.258999 0.626104 -0.596205
O24   O     O_R   0.756465 0.182347 0.743472 -0.750075
O25   O     O_2   0.511755 0.755673 0.252005 -0.577800
O26   O     O_R   0.656897 0.847977 0.282635 -0.771559
O27   O     O_2   0.276450 0.462960 0.382230 -0.459409
O28   O     O_3   0.044470 0.462980 0.442430 -0.496001
O29   O     O_3   0.519740 0.589470 0.411120 -0.477315
O30   O     O_3   0.120578 0.350182 0.377240 -0.627159
O31   O     O_3   0.632420 0.583650 0.524140 -0.478770
O32   O     O_3   0.111040 0.625070 0.435230 -0.466054
P1    P     P_3+3 0.082480 0.557670 0.610090 0.994195
P2    P     P_3+3 0.635220 0.340300 0.462910 0.985733
P3    P     P_3+3 0.107686 0.282657 0.566156 0.946818
P4    P     P_3+3 0.107220 0.442270 0.389900 0.996300
P5    P     P_3+3 0.088054 0.717519 0.433086 0.958739
P6    P     P_3+3 0.659910 0.410796 0.653134 0.951136
P7    P     P_3+3 0.561254 0.671695 0.538830 0.949519
P8    P     P_3+3 0.531553 0.587611 0.346618 0.993524

loop_
_geom_bond_atom_site_label_1
_geom_bond_atom_site_label_2
_ccdc_geom_bond_type
O32   P5    S    
O1    P1    D    
C53   C54   A    
Ba2   O6    S    
C69   O22   D    
C10   C72   A    
Ba2   O4    S    
C70   O25   D    
Ba1   O5    S    
C26   N2    Am   
C19   C24   A    
C67   H22   S    
O23   P3    S    
C4    O23   S    
C44   H55   S    
C61   P7    S    
O30   P4    S    
C34   H14   S    
Ba2   O5    S    
C45   H17   S    
Ba1   P1    S    
C24   C25   A    
C15   C31   D    
C60   C65   A    
C12   O18   S    
C17   C19   A    
C56   H19   S    
C22   C24   A    
C32   C33   S    
C35   C38   A    
C36   C37   A    
O21   P3    D    
C55   C57   A    
O2    P5    D    
C55   H49   S    
C54   C63   S    
C21   H31   S    
C44   C50   A    
C62   H44   S    
C54   C55   A    
O28   P4    S    
Ba1   Ba2   S    
C45   H18   S    
Ba1   O15   S    
C68   H7    S    
C22   C27   A    
C28   O30   S    
C11   C38   A    
C17   C35   A    
Ba2   P4    S    
O16   P6    D    
C25   C42   A    
C6    C7    D    
O19   P2    D    
O4    P1    S    
C5    P8    S    
C23   H10   S    
C21   C22   A    
C67   C71   S    
C59   H52   S    
C40   H12   S    
C11   H29   S    
C31   P1    S    
C7    C8    S    
O29   P8    S    
O15   P6    S    
C15   H43   S    
Ba2   O31   S    
C37   C43   A    
O12   P2    S    
C67   H24   S    
C71   H27   S    
C2    O13   D    
C57   C58   A    
C6    C14   D    
C52   H45   S    
C26   O14   D    
O31   P7    S    
C16   H57   S    
C41   H37   S    
C60   P5    S    
C52   H56   S    
C14   H42   S    
Ba2   O32   S    
C51   C58   A    
C48   C49   A    
C46   P2    S    
C53   H46   S    
C51   C53   A    
C34   H13   S    
C4    C16   S    
C61   C65   A    
Ba1   P2    S    
C69   O24   S    
C68   H6    S    
C49   C50   A    
C16   H16   S    
Ba1   O19   S    
C17   C20   A    
C67   O9    S    
C13   C39   A    
C40   H23   S    
C3    C5    S    
C18   C37   A    
C7    H28   S    
C23   C34   S    
Ba1   O28   S    
C20   H32   S    
Ba1   O31   S    
O9    P8    S    
C45   C56   S    
C4    H26   S    
C9    C36   A    
C1    C69   S    
C56   H21   S    
C35   C36   A    
C66   O12   S    
O7    P7    S    
C33   N2    S    
C27   O11   D    
C43   H41   S    
C29   C30   S    
C64   H64   S    
C28   H59   S    
C31   C32   D    
C23   O7    S    
C18   C19   A    
C50   P3    S    
C1    C12   S    
C38   H33   S    
C64   H62   S    
C66   C68   S    
C46   C47   A    
C42   H39   S    
C9    C13   A    
C39   H36   S    
C41   C42   A    
O20   P3    S    
C29   C33   D    
C66   H2    S    
C8    N1    S    
C12   H8    S    
Ba2   O28   S    
C18   C41   A    
C66   H3    S    
C71   H25   S    
C27   N2    Am   
C5    C14   S    
O5    P2    S    
C68   H5    S    
C70   O26   S    
Ba1   O20   S    
C72   O10   D    
C45   O3    S    
C70   C71   S    
C9    C10   A    
C6    P4    S    
C52   C64   S    
C34   H11   S    
C32   H40   S    
C72   N1    Am   
C1    H15   S    
C48   C58   S    
C29   H30   S    
C2    C13   A    
C30   P6    S    
C56   H20   S    
C49   H53   S    
C3    C8    D    
Ba1   O4    S    
C51   H47   S    
C57   H51   S    
C62   C63   A    
C2    N1    Am   
C64   H63   S    
C3    H35   S    
C28   H58   S    
C47   H48   S    
H61   O26   S    
H60   O24   S    
O6    P7    D    
O3    P5    S    
O18   P6    S    
C59   C60   A    
Ba1   O1    S    
Ba2   O29   S    
C61   C62   A    
C44   C46   A    
C59   C63   A    
C10   C11   A    
O8    P8    D    
C47   C48   A    
C16   H50   S    
C25   C26   A    
C23   H9    S    
C15   C30   S    
C39   C43   A    
C20   C21   A    
C28   C40   S    
C4    H38   S    
C65   H54   S    
C1    H4    S    
C40   H34   S    
Ba2   O27   S    
C12   H1    S    
O17   P1    S    
O27   P4    D    
C52   O17   S    
