data_mof_unit_51636.cif
_audit_creation_date              2012-12-11T14:00:03-0500
_audit_creation_method            fapswitch 2.2
_symmetry_space_group_name_H-M    P1
_symmetry_Int_Tables_number       1
_space_group_crystal_system       triclinic
_cell_length_a                    11.393548
_cell_length_b                    11.427432
_cell_length_c                    18.69474
_cell_angle_alpha                 90.339273
_cell_angle_beta                  89.609746
_cell_angle_gamma                 120.323531
_cell_volume                      2100.9742129

loop_
_atom_site_label
_atom_site_type_symbol
_atom_type_description
_atom_site_fract_x
_atom_site_fract_y
_atom_site_fract_z
_atom_type_partial_charge
C1    C     C_R   0.541407 0.478877 0.852452 0.564427
C2    C     C_R   0.480452 0.541989 0.350282 0.558373
C3    C     C_R   0.069177 0.522211 0.353379 0.556214
C4    C     C_R   0.458368 0.939886 0.350116 0.560681
C5    C     C_2   0.017525 0.510892 0.584902 -0.102250
C6    C     C_2   0.521032 0.491597 0.572382 -0.100695
C7    C     C_2   0.541581 0.093962 0.565233 -0.095627
C8    C     C_2   0.515653 0.029146 0.411891 -0.104204
C9    C     C_2   0.505447 0.489364 0.415063 -0.106607
C10   C     C_2   0.029388 0.508018 0.427878 -0.090374
C11   C     C_2   0.086227 0.457838 0.472077 -0.149268
C12   C     C_R   0.519665 0.061592 0.851575 0.581196
C13   C     C_2   0.618706 0.565849 0.451968 -0.159596
C14   C     C_2   0.445686 0.078540 0.445867 -0.151822
C15   C     C_2   0.475484 0.130141 0.519528 -0.163486
C16   C     C_2   0.628410 0.542810 0.527333 -0.153937
C17   C     C_2   0.053700 0.434661 0.547535 -0.164591
C18   C     C_2   0.002676 0.502463 0.923555 -0.100040
C19   C     C_2   0.494625 0.499218 0.922051 -0.104305
C20   C     C_2   0.496424 0.993312 0.920229 -0.094643
C21   C     C_2   0.502834 0.002828 0.076454 -0.100617
C22   C     C_2   0.499621 0.495100 0.077942 -0.104653
C23   C     C_R   0.935814 0.457591 0.853301 0.568817
C24   C     C_2   0.993263 0.496514 0.079797 -0.095055
C25   C     C_2   0.004337 0.602546 0.043481 0.221910
C26   C     C_2   0.391953 0.404449 0.039343 0.216889
C27   C     C_2   0.596951 0.992333 0.036310 0.210195
C28   C     C_2   0.602880 0.004461 0.956427 0.221187
C29   C     C_2   0.404506 0.391787 0.960913 0.215945
C30   C     C_2   0.992405 0.596623 0.963561 0.210398
C31   C     C_3   0.102755 0.833652 0.068405 0.018995
C32   C     C_3   0.121577 0.925281 0.132660 -0.329979
C33   C     C_3   0.159781 0.306615 0.049985 0.007588
C34   C     C_R   0.479102 0.541666 0.147536 0.559282
C35   C     C_3   0.039944 0.199183 0.092128 -0.342668
C36   C     C_3   0.679096 0.851441 0.055139 0.012462
C37   C     C_3   0.789983 0.841392 0.093814 -0.331256
C38   C     C_3   0.834763 0.102993 0.931495 0.017935
C39   C     C_3   0.926813 0.122222 0.867193 -0.328810
C40   C     C_3   0.307616 0.160487 0.950477 0.006587
C41   C     C_3   0.199248 0.040751 0.908908 -0.342200
C42   C     C_3   0.851760 0.679323 0.944549 0.012356
C43   C     C_3   0.841721 0.789805 0.905607 -0.329546
C44   C     C_R   0.061759 0.519815 0.148407 0.570184
C45   C     C_R   0.457841 0.935985 0.146706 0.566247
C46   C     C_R   0.546896 0.477611 0.646651 0.550408
C47   C     C_R   0.549138 0.128942 0.640376 0.566901
C48   C     C_R   0.938674 0.457972 0.649746 0.551915
Cr1   Cr    Cr6+3 0.464030 0.233680 0.750360 1.021002
Cr2   Cr    Cr6+3 0.766320 0.230350 0.750360 1.004784
Cr3   Cr    Cr6+3 0.769650 0.535970 0.750360 1.018166
Cr4   Cr    Cr6+3 0.233680 0.464030 0.249640 1.022016
Cr5   Cr    Cr6+3 0.230350 0.766320 0.249640 1.006452
Cr6   Cr    Cr6+3 0.535970 0.769650 0.249640 1.023483
H1    H     H_    0.152426 0.422409 0.451531 0.153403
H2    H     H_    0.587682 0.035241 0.548440 0.112209
H3    H     H_    0.417566 0.453195 0.554273 0.089032
H4    H     H_    0.028846 0.603821 0.562792 0.107498
H5    H     H_    0.959743 0.400181 0.053916 0.013088
H6    H     H_    0.598592 0.552390 0.053081 0.006802
H7    H     H_    0.438997 0.037465 0.053095 0.012979
H8    H     H_    0.399883 0.959837 0.946259 0.012716
H9    H     H_    0.551689 0.598098 0.946682 0.007181
H10   H     H_    0.037150 0.438672 0.947018 0.013221
H11   H     H_    0.076031 0.875000 0.022308 0.147788
H12   H     H_    0.704499 0.654779 0.428262 0.155258
H13   H     H_    0.199859 0.835985 0.056840 0.142188
H14   H     H_    0.216949 0.024348 0.126693 0.135064
H15   H     H_    0.038239 0.945964 0.138997 0.091166
H16   H     H_    0.121678 0.875633 0.183358 0.209767
H17   H     H_    0.138580 0.277856 0.992971 0.155286
H18   H     H_    0.170819 0.407949 0.055969 0.145286
H19   H     H_    0.062515 0.206732 0.150194 0.195787
H20   H     H_    0.947062 0.204942 0.083434 0.140123
H21   H     H_    0.022418 0.100747 0.073102 0.113002
H22   H     H_    0.688590 0.836228 0.997975 0.144654
H23   H     H_    0.355207 0.070240 0.421859 0.152805
H24   H     H_    0.575384 0.770892 0.069440 0.159308
H25   H     H_    0.809592 0.891286 0.147105 0.182414
H26   H     H_    0.766570 0.736300 0.101487 0.153573
H27   H     H_    0.881513 0.890831 0.060111 0.097720
H28   H     H_    0.876233 0.076215 0.977564 0.148003
H29   H     H_    0.836932 0.199687 0.943138 0.141093
H30   H     H_    0.026120 0.217324 0.873194 0.135624
H31   H     H_    0.947414 0.038987 0.860770 0.092943
H32   H     H_    0.877172 0.122771 0.816551 0.211632
H33   H     H_    0.279912 0.139682 0.007671 0.155350
H34   H     H_    0.428148 0.186488 0.538911 0.138616
H35   H     H_    0.409272 0.171788 0.943839 0.144332
H36   H     H_    0.205852 0.062950 0.850815 0.196898
H37   H     H_    0.205133 0.948178 0.917435 0.140236
H38   H     H_    0.100918 0.023499 0.928582 0.112133
H39   H     H_    0.836638 0.689194 0.001652 0.144342
H40   H     H_    0.770778 0.575863 0.930625 0.158169
H41   H     H_    0.892050 0.809469 0.852357 0.184204
H42   H     H_    0.736253 0.766286 0.897925 0.154120
H43   H     H_    0.890849 0.881115 0.939169 0.096972
H44   H     H_    0.730712 0.579402 0.547164 0.152921
H45   H     H_    0.049777 0.345849 0.570847 0.154691
H46   H     H_    0.963638 0.544993 0.446740 0.087635
H47   H     H_    0.422815 0.396233 0.437389 0.094975
H48   H     H_    0.610867 0.044197 0.432857 0.103863
O1    O     O_R   0.434100 0.092480 0.829780 -0.539223
O2    O     O_R   0.362730 0.477510 0.175360 -0.444482
O3    O     O_R   0.114780 0.637270 0.175360 -0.459850
O4    O     O_R   0.522490 0.885220 0.175360 -0.456975
O5    O     O_R   0.432250 0.092620 0.670380 -0.504262
O6    O     O_R   0.907380 0.339630 0.670380 -0.525930
O7    O     O_R   0.660370 0.567750 0.670380 -0.511079
O8    O     O_R   0.092620 0.432250 0.329620 -0.519845
O9    O     O_R   0.339630 0.907380 0.329620 -0.520063
O10   O     O_R   0.567750 0.660370 0.329620 -0.514018
O11   O     O_R   0.475790 0.362860 0.676880 -0.520464
O12   O     O_R   0.907520 0.341620 0.829780 -0.558189
O13   O     O_R   0.637140 0.112930 0.676880 -0.499094
O14   O     O_R   0.887070 0.524210 0.676880 -0.508212
O15   O     O_R   0.362860 0.475790 0.323120 -0.510509
O16   O     O_R   0.112930 0.637140 0.323120 -0.499747
O17   O     O_R   0.524210 0.887070 0.323120 -0.498732
O18   O     O_3   0.666667 0.333333 0.749450 -0.292645
O19   O     O_3   0.333333 0.666667 0.250550 -0.268821
O20   O     O_3   0.995868 0.701664 0.083539 -0.563370
O21   O     O_3   0.276745 0.308815 0.075338 -0.555852
O22   O     O_3   0.696187 0.979371 0.070687 -0.565679
O23   O     O_R   0.658380 0.565900 0.829780 -0.548803
O24   O     O_3   0.702484 0.996390 0.916308 -0.561533
O25   O     O_3   0.308914 0.276672 0.925145 -0.556149
O26   O     O_3   0.979909 0.695825 0.929018 -0.564324
O27   O     O_R   0.092480 0.434100 0.170220 -0.542514
O28   O     O_R   0.341620 0.907520 0.170220 -0.559666
O29   O     O_R   0.565900 0.658380 0.170220 -0.553121
O30   O     O_R   0.477510 0.362730 0.824640 -0.443370
O31   O     O_R   0.637270 0.114780 0.824640 -0.455008
O32   O     O_R   0.885220 0.522490 0.824640 -0.453313

loop_
_geom_bond_atom_site_label_1
_geom_bond_atom_site_label_2
_ccdc_geom_bond_type
Cr1   O11   S    
C35   H20   S    
C38   H29   S    
C42   H39   S    
C4    C8    S    
C1    O30   A    
C18   H10   S    
Cr1   O5    S    
C44   O3    A    
C47   O13   A    
Cr6   O29   S    
C37   H25   S    
C35   H21   S    
C5    H4    S    
Cr2   O18   S    
Cr4   O27   S    
C40   H33   S    
C36   C37   S    
C36   O22   S    
C1    O23   A    
C39   H30   S    
C22   H6    S    
C38   C39   S    
Cr3   O32   S    
Cr1   O18   S    
C5    C17   D    
C3    O8    A    
Cr2   O13   S    
C14   H23   S    
C9    C13   D    
C36   H22   S    
C33   H18   S    
C38   O24   S    
C35   H19   S    
C19   H9    S    
C43   H41   S    
C4    O17   A    
C18   C30   D    
C40   H35   S    
C25   O20   S    
C21   H7    S    
C23   O32   A    
C42   O26   S    
C48   O14   A    
Cr4   O15   S    
Cr5   O9    S    
C7    C15   D    
C41   H36   S    
C21   C27   D    
C45   O28   A    
Cr3   O7    S    
Cr6   O17   S    
C38   H28   S    
Cr2   O6    S    
C6    H3    S    
C37   H27   S    
C7    H2    S    
Cr1   O30   S    
C2    O15   A    
C28   O24   S    
Cr3   O18   S    
C21   C45   S    
C13   H12   S    
C22   C34   S    
C5    C48   S    
C30   O26   S    
C1    C19   S    
Cr6   O4    S    
C18   C23   S    
Cr3   O23   S    
C24   C25   D    
C12   O1    A    
Cr5   O16   S    
C32   H16   S    
C20   C28   D    
C44   O27   A    
C40   O25   S    
C34   O2    A    
Cr2   O12   S    
C7    C47   S    
C31   H13   S    
C37   H26   S    
C3    O16   A    
Cr4   O19   S    
C31   C32   S    
Cr4   O8    S    
C2    O10   A    
C12   C20   S    
C43   H42   S    
Cr6   O10   S    
C10   H46   S    
C17   H45   S    
C40   C41   S    
C41   H37   S    
Cr6   O19   S    
C34   O29   A    
C47   O5    A    
C12   O31   A    
C29   O25   S    
C22   C26   D    
C24   C44   S    
C46   O7    A    
C42   C43   S    
C39   H31   S    
C19   C29   D    
C11   H1    S    
C45   O4    A    
C25   C30   S    
C31   H11   S    
Cr4   O2    S    
C8    C14   D    
C6    C46   S    
C46   O11   A    
C42   H40   S    
C4    O9    A    
C43   H43   S    
C31   O20   S    
Cr2   O31   S    
C11   C17   S    
Cr1   O1    S    
C27   O22   S    
C32   H15   S    
Cr3   O14   S    
C32   H14   S    
C3    C10   S    
C36   H24   S    
C23   O12   A    
C16   H44   S    
C48   O6    A    
C24   H5    S    
C33   C35   S    
C20   H8    S    
C10   C11   D    
C33   H17   S    
C6    C16   D    
Cr5   O3    S    
C41   H38   S    
C26   C29   S    
C9    H47   S    
C26   O21   S    
C13   C16   S    
C27   C28   S    
C33   O21   S    
C14   C15   S    
Cr5   O19   S    
Cr5   O28   S    
C39   H32   S    
C2    C9    S    
C8    H48   S    
C15   H34   S    
