data_mof_unit_50222.cif
_audit_creation_date              2012-12-11T14:29:48-0500
_audit_creation_method            fapswitch 2.2
_symmetry_space_group_name_H-M    P1
_symmetry_Int_Tables_number       1
_space_group_crystal_system       triclinic
_cell_length_a                    6.941626
_cell_length_b                    14.710333
_cell_length_c                    16.229881
_cell_angle_alpha                 90.515054
_cell_angle_beta                  89.952041
_cell_angle_gamma                 89.971197
_cell_volume                      1657.22430574

loop_
_atom_site_label
_atom_site_type_symbol
_atom_type_description
_atom_site_fract_x
_atom_site_fract_y
_atom_site_fract_z
_atom_type_partial_charge
O1    O     O_R   0.494400 0.416610 0.413880 -0.546416
O2    O     O_R   0.823920 0.406790 0.585520 -0.540240
O3    O     O_R   0.994250 0.583390 0.586120 -0.538155
C1    C     C_R   0.654694 0.385132 0.613585 0.743016
O4    O     O_R   0.824110 0.405730 0.414490 -0.515166
O5    O     O_R   0.994440 0.582310 0.413870 -0.542160
C2    C     C_R   0.655221 0.383268 0.386693 0.812998
O6    O     O_R   0.494210 0.417690 0.586130 -0.547580
O7    O     O_3   0.660810 0.557940 0.500000 -0.376688
V1    V     V_3+5 0.935650 0.489250 0.500000 1.454116
O8    O     O_R   0.324160 0.593210 0.414480 -0.547411
C3    C     C_R   0.155438 0.615178 0.386500 0.732840
O9    O     O_R   0.323970 0.594270 0.585510 -0.540795
C4    C     C_R   0.155027 0.616352 0.613689 0.688837
V2    V     V_3+5 0.435660 0.510750 0.500000 1.416287
O10   O     O_3   0.160630 0.442060 0.500000 -0.365949
C5    C     C_R   0.287355 0.573608 0.777887 -0.239027
C6    C     C_R   0.347648 0.549287 0.857144 0.517394
C7    C     C_R   0.339932 0.613471 0.920631 -0.183798
C8    C     C_R   0.264958 0.699852 0.906793 -0.224383
C9    C     C_R   0.199272 0.725383 0.827827 0.070971
C10   C     C_R   0.211462 0.661063 0.761918 0.011661
C11   C     C_R   0.119740 0.812873 0.814240 -0.142002
C12   C     C_R   0.052057 0.835821 0.734567 0.068155
C13   C     C_R   0.064696 0.771587 0.668585 -0.003184
C14   C     C_R   0.144848 0.684222 0.682156 -0.128989
C15   C     C_R   0.975729 0.923109 0.718557 -0.221619
C16   C     C_R   0.910792 0.946076 0.640269 -0.215955
C17   C     C_R   0.918831 0.882617 0.575678 0.513415
C18   C     C_R   0.999655 0.797148 0.589451 -0.215462
H1    H     H_    0.300800 0.523163 0.729392 0.121531
H2    H     H_    0.389967 0.595829 0.981614 0.133429
H3    H     H_    0.257984 0.745954 0.959004 0.127594
H4    H     H_    0.967256 0.975101 0.765980 0.131338
H5    H     H_    0.856230 0.013942 0.629661 0.125526
C19   C     C_2   0.985135 0.711114 0.284154 -0.112607
C20   C     C_2   0.150275 0.683223 0.319860 -0.302539
H6    H     H_    0.287975 0.710230 0.300567 0.126440
C21   C     C_2   0.972847 0.778647 0.216184 -0.113331
C22   C     C_2   0.126054 0.814893 0.177447 -0.305185
H7    H     H_    0.271069 0.795850 0.194700 0.125434
C23   C     C_2   0.779839 0.209511 0.782625 -0.131315
C24   C     C_2   0.614311 0.179184 0.816233 -0.299510
H8    H     H_    0.916208 0.183490 0.805221 0.129282
C25   C     C_2   0.791803 0.277707 0.715370 -0.130791
C26   C     C_2   0.638356 0.317642 0.680042 -0.277571
H9    H     H_    0.493446 0.301467 0.699611 0.123836
C27   C     C_2   0.760841 0.180984 0.237513 0.389696
C28   C     C_2   0.613354 0.176013 0.182873 -0.456618
H10   H     H_    0.485479 0.217045 0.191776 0.080739
C29   C     C_2   0.756411 0.242899 0.312188 0.383525
C30   C     C_2   0.644478 0.318136 0.317001 -0.438447
H11   H     H_    0.540994 0.333752 0.269302 0.088293
O11   O     O_R   0.770210 0.079270 0.910680 -0.543548
O12   O     O_R   0.440150 0.091160 0.082270 -0.560083
O13   O     O_R   0.269970 0.914530 0.082860 -0.546882
C31   C     C_R   0.608390 0.111033 0.112423 0.811369
O14   O     O_R   0.440480 0.090100 0.911240 -0.548273
O15   O     O_R   0.270310 0.913460 0.910610 -0.537058
C32   C     C_R   0.609195 0.111717 0.883095 0.735358
O16   O     O_R   0.769870 0.080340 0.082930 -0.510394
O17   O     O_3   0.603660 0.938980 0.996790 -0.372635
V3    V     V_3+5 0.328750 0.007610 0.996740 1.395173
O18   O     O_R   0.940600 0.902510 0.911180 -0.540108
C33   C     C_R   0.109525 0.880702 0.882791 0.688484
O19   O     O_R   0.940270 0.903570 0.082200 -0.535096
C34   C     C_R   0.109468 0.882099 0.110527 0.759134
V4    V     V_3+5 0.828770 0.986010 0.996670 1.445340
O20   O     O_3   0.103730 0.054750 0.996710 -0.376273
O21   O     O_3   0.863272 0.905381 0.496697 -0.555539
C35   C     C_3   0.661341 0.915883 0.494597 -0.266162
H12   H     H_    0.615241 0.977974 0.528848 0.129480
H13   H     H_    0.586001 0.854803 0.518842 0.143171
H14   H     H_    0.616274 0.924146 0.429526 0.168305
H15   H     H_    0.828938 0.798445 0.197183 0.134267
H16   H     H_    0.476062 0.203529 0.795000 0.120555
H17   H     H_    0.935563 0.295490 0.694542 0.126849
O22   O     O_3   0.907765 0.117351 0.231760 -0.540562
C36   C     C_3   0.080268 0.161794 0.210561 -0.140221
H18   H     H_    0.195188 0.109768 0.205378 0.153694
H19   H     H_    0.126254 0.211436 0.258673 0.144188
H20   H     H_    0.067437 0.195852 0.149835 0.115449
O23   O     O_3   0.882108 0.224838 0.376378 -0.541337
C37   C     C_3   0.802631 0.155057 0.424723 -0.179640
H21   H     H_    0.789954 0.090340 0.389154 0.175140
H22   H     H_    0.659934 0.175258 0.450439 0.100230
H23   H     H_    0.900219 0.142372 0.477489 0.159275
O24   O     O_3   0.427244 0.464882 0.872557 -0.551707
C38   C     C_3   0.284275 0.397377 0.863325 -0.260823
H24   H     H_    0.248783 0.385624 0.797337 0.123795
H25   H     H_    0.151551 0.414267 0.899000 0.139694
H26   H     H_    0.341324 0.332605 0.887869 0.163371
H27   H     H_    0.010509 0.751316 0.537137 0.126326
H28   H     H_    0.849056 0.683702 0.305711 0.134235

loop_
_geom_bond_atom_site_label_1
_geom_bond_atom_site_label_2
_ccdc_geom_bond_type
O19   V4    S    
C7    C8    A    
C12   C15   A    
C1    O6    A    
O11   C32   A    
C25   C26   D    
C17   C18   A    
O18   V4    S    
C16   C17   A    
C20   H6    S    
C37   H22   S    
C2    C30   S    
C18   H27   S    
O5    C3    A    
O11   V4    S    
O14   C32   A    
V2    O10   S    
C24   H16   S    
C28   C31   S    
C6    C7    A    
C27   O22   S    
C3    C20   S    
O8    V2    S    
C9    C11   A    
C27   C29   S    
V3    O20   S    
C16   H5    S    
V4    O20   S    
C22   C34   S    
O12   V3    S    
C11   C12   A    
C37   H23   S    
O21   C35   S    
O1    V2    S    
C21   H15   S    
C38   H25   S    
O7    V1    S    
O24   C38   S    
O19   C34   A    
O9    C4    A    
C23   H8    S    
C7    H2    S    
O4    C2    A    
C15   H4    S    
C29   C30   D    
C12   C13   A    
C21   C22   D    
C35   H13   S    
O22   C36   S    
C13   C18   A    
C1    C26   S    
C13   C14   A    
C4    C14   S    
C23   C25   S    
O2    C1    A    
O17   V3    S    
C35   H14   S    
O23   C37   S    
C5    C6    A    
O13   V3    S    
C37   H21   S    
C38   H26   S    
O3    C4    A    
C24   C32   S    
C8    H3    S    
C22   H7    S    
O6    V2    S    
O12   C31   A    
C5    H1    S    
C23   C24   D    
O2    V1    S    
C29   O23   S    
C30   H11   S    
C36   H19   S    
C17   O21   S    
O14   V3    S    
C26   H9    S    
C19   C20   D    
O1    C2    A    
C19   C21   S    
O5    V1    S    
C36   H20   S    
O8    C3    A    
C31   O16   A    
O13   C34   A    
O15   V3    S    
C5    C10   A    
O17   V4    S    
O18   C33   A    
C11   C33   S    
O9    V2    S    
O7    V2    S    
O4    V1    S    
O3    V1    S    
V1    O10   S    
O15   C33   A    
O16   V4    S    
C27   C28   D    
C6    O24   S    
C36   H18   S    
C19   H28   S    
C35   H12   S    
C8    C9    A    
C28   H10   S    
C10   C14   A    
C15   C16   A    
C25   H17   S    
C38   H24   S    
C9    C10   A    
