data_mof_unit_26025.cif
_audit_creation_date              2012-12-10T17:44:30-0500
_audit_creation_method            fapswitch 2.2
_symmetry_space_group_name_H-M    P1
_symmetry_Int_Tables_number       1
_space_group_crystal_system       triclinic
_cell_length_a                    9.893775
_cell_length_b                    10.738208
_cell_length_c                    15.463344
_cell_angle_alpha                 91.254324
_cell_angle_beta                  67.452385
_cell_angle_gamma                 88.874824
_cell_volume                      1516.20749385

loop_
_atom_site_label
_atom_site_type_symbol
_atom_type_description
_atom_site_fract_x
_atom_site_fract_y
_atom_site_fract_z
_atom_type_partial_charge
C1    C     C_R   0.501984 0.739958 0.492834 0.914249
C2    C     C_R   0.403443 0.453116 0.916216 0.095850
C3    C     C_R   0.256729 0.489124 0.972716 0.167872
C4    C     C_R   0.505098 0.426688 0.957969 0.051242
C5    C     C_R   0.466182 0.459930 0.053511 0.086569
C6    C     C_R   0.317134 0.487224 0.109565 -0.135096
C7    C     C_R   0.213561 0.499875 0.069624 -0.271506
C8    C     C_R   0.643695 0.368166 0.907748 -0.222214
C9    C     C_R   0.743890 0.349738 0.949581 -0.205503
C10   C     C_R   0.712392 0.395328 0.040455 0.104817
C11   C     C_R   0.576341 0.458169 0.090951 0.048812
C12   C     C_R   0.408182 0.498445 0.676164 0.852056
C13   C     C_R   0.814691 0.378317 0.081949 -0.226653
C14   C     C_R   0.780579 0.419535 0.174079 -0.251160
C15   C     C_R   0.557311 0.520353 0.175799 0.371823
C16   C     C_R   0.237914 0.894909 0.499748 -0.123403
C17   C     C_R   0.103500 0.959415 0.540238 -0.125344
C18   C     C_R   0.094076 0.071707 0.588729 -0.125470
C19   C     C_R   0.221468 0.125535 0.587833 -0.123525
C20   C     C_R   0.360087 0.066276 0.538433 0.091763
C21   C     C_R   0.366183 0.942623 0.507127 0.031658
C22   C     C_R   0.500864 0.873843 0.484017 -0.190836
C23   C     C_R   0.496430 0.260856 0.507640 0.906153
C24   C     C_R   0.632753 0.935344 0.466646 0.444302
C25   C     C_R   0.627481 0.063073 0.480176 -0.330313
C26   C     C_R   0.493184 0.128135 0.515093 -0.176280
C27   C     C_R   0.783853 0.662895 0.624781 -0.173137
C28   C     C_R   0.815270 0.738190 0.688625 -0.339304
C29   C     C_R   0.955000 0.734553 0.690707 0.463988
C30   C     C_R   0.062778 0.656025 0.627226 -0.199726
C31   C     C_R   0.033906 0.577754 0.562516 0.052807
C32   C     C_R   0.889701 0.579298 0.561836 0.190080
C33   C     C_R   0.965612 0.424623 0.440636 -0.129103
C34   C     C_R   0.591838 0.500619 0.323907 0.872569
C35   C     C_R   0.108956 0.424959 0.440449 -0.078364
C36   C     C_R   0.350160 0.489289 0.777864 -0.061828
C37   C     C_R   0.649729 0.487458 0.222081 -0.170682
C38   C     C_R   0.156474 0.516975 0.931125 -0.195178
C39   C     C_R   0.203017 0.516823 0.833786 -0.183200
C40   C     C_R   0.447558 0.454710 0.819156 -0.260003
H1    H     H_    0.100763 0.522958 0.114341 0.161713
H2    H     H_    0.917387 0.327647 0.044912 0.158295
H3    H     H_    0.239485 0.811359 0.459321 0.173591
H4    H     H_    0.006243 0.921008 0.535314 0.145001
H5    H     H_    0.989020 0.119435 0.623852 0.129801
H6    H     H_    0.210752 0.214009 0.625108 0.147363
H7    H     H_    0.729276 0.111834 0.461181 0.164870
H8    H     H_    0.941942 0.363077 0.392243 0.133988
H9    H     H_    0.675532 0.674217 0.627112 0.222535
H10   H     H_    0.730295 0.800271 0.736095 0.157913
H11   H     H_    0.168759 0.660227 0.629508 0.227993
H12   H     H_    0.193240 0.363606 0.391856 0.148376
H13   H     H_    0.853544 0.394683 0.208678 0.171405
H14   H     H_    0.847422 0.301562 0.910049 0.149202
H15   H     H_    0.043819 0.543446 0.973730 0.159747
H16   H     H_    0.125789 0.542497 0.802564 0.173994
H17   H     H_    0.560656 0.436579 0.774312 0.163357
H18   H     H_    0.277692 0.494861 0.185089 0.201751
H19   H     H_    0.674568 0.329918 0.837438 0.143481
N1    N     N_R   0.856800 0.501200 0.500850 -0.105480
N2    N     N_R   0.142390 0.501280 0.500880 -0.109950
O1    O     O_R   0.385310 0.683220 0.500000 -0.663769
O2    O     O_R   0.614640 0.683250 0.500010 -0.564875
O3    O     O_R   0.319840 0.499980 0.632240 -0.642246
O4    O     O_R   0.549160 0.500000 0.632250 -0.641991
O5    O     O_R   0.385360 0.316750 0.499990 -0.622629
O6    O     O_R   0.614690 0.316780 0.500000 -0.620482
O7    O     O_R   0.450840 0.500000 0.367750 -0.593903
O8    O     O_R   0.680160 0.500020 0.367760 -0.601826
Zn1   Zn    Zn3+2 0.346880 0.499980 0.499990 0.929574
Zn2   Zn    Zn3+2 0.653120 0.500020 0.500010 0.956528
O9    O     O_3   0.765624 0.869779 0.433065 -0.748475
H20   H     H_    0.846066 0.927368 0.426091 0.321924
O10   O     O_3   0.452983 0.616011 0.210209 -0.778079
H21   H     H_    0.478606 0.670349 0.253997 0.335432
O11   O     O_3   0.990955 0.808561 0.752318 -0.767318
H22   H     H_    0.903415 0.859616 0.791690 0.334409

loop_
_geom_bond_atom_site_label_1
_geom_bond_atom_site_label_2
_ccdc_geom_bond_type
N2    Zn1   S    
C8    C9    A    
C30   H11   S    
C16   C21   A    
C34   C37   S    
C31   N2    A    
C19   C20   A    
C4    C8    A    
C1    O1    A    
C19   H6    S    
C29   O11   S    
C23   O5    A    
C28   C29   A    
C5    C11   A    
C3    C7    A    
C8    H19   S    
C5    C6    A    
C12   O3    A    
O1    Zn1   S    
C18   C19   A    
C23   C26   S    
C23   O6    A    
O8    Zn2   S    
C6    H18   S    
C15   C37   A    
C28   H10   S    
C38   H15   S    
C39   H16   S    
C3    C38   A    
C16   C17   A    
O3    Zn1   S    
C12   C36   S    
C9    C10   A    
C25   H7    S    
C1    C22   S    
C21   C22   A    
C11   C15   A    
C1    O2    A    
C13   H2    S    
C38   C39   A    
O10   H21   S    
C36   C40   A    
O11   H22   S    
C34   O7    A    
O9    H20   S    
N1    Zn2   S    
C25   C26   A    
O4    Zn2   S    
C2    C4    A    
C29   C30   A    
C31   C32   A    
C16   H3    S    
C30   C31   A    
C14   H13   S    
C17   C18   A    
C35   N2    A    
C24   C25   A    
C34   O8    A    
O2    Zn2   S    
C33   N1    A    
C22   C24   A    
C32   N1    A    
C18   H5    S    
C27   C28   A    
C24   O9    S    
C40   H17   S    
C27   C32   A    
C36   C39   A    
C4    C5    A    
C10   C13   A    
C6    C7    A    
C12   O4    A    
C2    C3    A    
C17   H4    S    
C14   C37   A    
O5    Zn1   S    
C20   C26   A    
C33   C35   A    
O6    Zn2   S    
C7    H1    S    
C10   C11   A    
C2    C40   A    
C15   O10   S    
C20   C21   A    
O7    Zn1   S    
C35   H12   S    
C33   H8    S    
C9    H14   S    
C13   C14   A    
C27   H9    S    
