data_mof_unit_15392.cif
_audit_creation_date              2013-03-05T16:41:05-0500
_audit_creation_method            fapswitch 2.2
_symmetry_space_group_name_H-M    P1
_symmetry_Int_Tables_number       1
_space_group_crystal_system       triclinic
_cell_length_a                    8.58846
_cell_length_b                    10.675472
_cell_length_c                    9.872768
_cell_angle_alpha                 89.360853
_cell_angle_beta                  98.55852
_cell_angle_gamma                 90.217028
_cell_volume                      895.055613151

loop_
_atom_site_label
_atom_site_type_symbol
_atom_site_description
_atom_site_fract_x
_atom_site_fract_y
_atom_site_fract_z
_atom_type_partial_charge
O1    O     O_R   0.500020 0.316790 0.614690 -0.615404
O2    O     O_R   0.500000 0.316760 0.385350 -0.624207
C1    C     C_R   0.506480 0.259924 0.501480 0.903040
O3    O     O_R   0.271760 0.500010 0.587850 -0.621281
O4    O     O_R   0.271740 0.499970 0.358500 -0.588695
C2    C     C_R   0.201222 0.500451 0.464158 0.985688
Zn1   Zn    Zn3+2 0.500010 0.500020 0.653130 0.953653
Zn2   Zn    Zn3+2 0.499990 0.499980 0.346870 0.979796
O5    O     O_R   0.500000 0.683240 0.614650 -0.625548
O6    O     O_R   0.499980 0.683210 0.385310 -0.596733
O7    O     O_R   0.728260 0.500030 0.641500 -0.623617
O8    O     O_R   0.728240 0.499990 0.412150 -0.625326
C3    C     C_R   0.509247 0.740016 0.500283 0.878095
C4    C     C_R   0.798760 0.501075 0.535772 0.963796
C5    C     C_2   0.036078 0.500453 0.444836 -0.337116
H1    H     H_    0.974396 0.496202 0.340467 0.219380
C6    C     C_2   0.963812 0.504158 0.554815 -0.407498
H2    H     H_    0.025371 0.509810 0.659003 0.188461
C7    C     C_R   0.534967 0.061820 0.627677 0.140632
C8    C     C_R   0.537723 0.129024 0.506751 -0.130946
C9    C     C_R   0.579366 0.068509 0.391928 -0.240241
H3    H     H_    0.599000 0.121538 0.301727 0.176122
C10   C     C_R   0.583532 0.937998 0.389667 0.095353
C11   C     C_R   0.541885 0.871336 0.503867 -0.132073
C12   C     C_R   0.535647 0.934285 0.625715 0.094941
C13   C     C_3   0.421929 0.923304 0.726130 -0.441947
C14   C     C_3   0.422054 0.065125 0.729032 -0.484144
H4    H     H_    0.306635 0.882785 0.680620 0.205968
H5    H     H_    0.476324 0.879727 0.824651 0.211232
H6    H     H_    0.306586 0.107171 0.686241 0.206932
H7    H     H_    0.478240 0.102388 0.829239 0.204785
C15   C     C_R   0.364920 0.475232 0.054288 0.168955
N1    N     N_R   0.498950 0.499140 0.142680 -0.144497
C16   C     C_R   0.629336 0.536468 0.088124 -0.083363
H8    H     H_    0.734599 0.564318 0.155183 0.173293
C17   C     C_R   0.629335 0.536438 0.944297 -0.087466
H9    H     H_    0.734503 0.564142 0.903549 0.184952
N2    N     N_R   0.498950 0.499180 0.857030 -0.117084
C18   C     C_R   0.364751 0.475464 0.911614 0.176452
C19   C     C_3   0.269026 0.358341 0.894116 -0.573017
C20   C     C_3   0.270832 0.357035 0.048435 0.121907
H10   H     H_    0.151002 0.373964 0.833460 0.229059
H11   H     H_    0.335432 0.279903 0.858285 0.187979
H12   H     H_    0.335887 0.276508 0.102378 0.118198
N3    N     N_R   0.114840 0.375712 0.087492 0.238023
O9    O     O_R   0.061020 0.295428 0.169190 -0.410301
O10   O     O_R   0.029134 0.472011 0.042280 -0.446894
N4    N     N_3   0.619813 0.874618 0.270402 -0.415484
H13   H     H_    0.727223 0.828619 0.298631 0.186008
H14   H     H_    0.637081 0.938969 0.193346 0.180180

loop_
_geom_bond_atom_site_label_1
_geom_bond_atom_site_label_2
_geom_bond_distance
_ccdc_geom_bond_type
O4    Zn2   1.980660 S    
C10   C11   1.416249 A    
C5    C6    1.329461 D    
O2    C1    1.285115 A    
C7    C14   1.494273 S    
C13   H4    1.112714 S    
C7    C8    1.389167 A    
Zn2   O8    1.970322 S    
C15   C20   1.492810 S    
C15   N1    1.362172 A    
C19   H11   1.105374 S    
C17   N2    1.368061 A    
C6    H2    1.086504 S    
C2    C5    1.402693 S    
C1    C8    1.422862 S    
O1    Zn1   1.996698 S    
C9    H3    1.083832 S    
C11   C12   1.392524 A    
C14   H6    1.112587 S    
Zn1   O7    1.980660 S    
C4    C6    1.402255 S    
C13   C14   1.514588 S    
N2    C18   1.364744 A    
O3    Zn1   1.970323 S    
N4    H14   1.045869 S    
C17   H9    1.081025 S    
O7    C4    1.282231 A    
Zn1   N2    2.014351 S    
O8    C4    1.279376 A    
N1    C16   1.369029 A    
C16   C17   1.419970 A    
Zn2   N1    2.014731 S    
N3    O10   1.302157 A    
C9    C10   1.394376 A    
O4    C2    1.281847 A    
C7    C12   1.361895 A    
C20   H12   1.113404 S    
C14   H7    1.111345 S    
C5    H1    1.087577 S    
C8    C9    1.403251 A    
C13   H5    1.112235 S    
O3    C2    1.279852 A    
C16   H8    1.080845 S    
C15   C18   1.408351 A    
C18   C19   1.491259 S    
Zn1   O5    1.988346 S    
C19   C20   1.521229 S    
C20   N3    1.463156 S    
N4    H13   1.045769 S    
O5    C3    1.288269 A    
C10   N4    1.438723 S    
C12   C13   1.495047 S    
N3    O9    1.300517 A    
Zn2   O6    1.996697 S    
O2    Zn2   1.988345 S    
C3    C11   1.428406 S    
C19   H10   1.110083 S    
O1    C1    1.286351 A    
O6    C3    1.284780 A    
