data_mof_unit_27083.cif
_audit_creation_date              2012-12-10T17:03:42-0500
_audit_creation_method            fapswitch 2.2
_symmetry_space_group_name_H-M    P1
_symmetry_Int_Tables_number       1
_space_group_crystal_system       triclinic
_cell_length_a                    10.067384
_cell_length_b                    10.72866
_cell_length_c                    13.106645
_cell_angle_alpha                 89.516336
_cell_angle_beta                  69.729783
_cell_angle_gamma                 90.406829
_cell_volume                      1327.84758863

loop_
_atom_site_label
_atom_site_type_symbol
_atom_type_description
_atom_site_fract_x
_atom_site_fract_y
_atom_site_fract_z
_atom_type_partial_charge
C1    C     C_R   0.502121 0.737178 0.496804 0.920567
C2    C     C_R   0.432084 0.481526 0.984581 0.052632
C3    C     C_R   0.453395 0.437050 0.879360 0.021774
C4    C     C_R   0.541074 0.465057 0.028417 0.023593
C5    C     C_R   0.662393 0.393207 0.972553 0.032988
C6    C     C_R   0.669902 0.332360 0.876232 0.334219
C7    C     C_R   0.560202 0.347043 0.834026 0.064566
C8    C     C_R   0.532482 0.518864 0.126957 -0.196318
C9    C     C_R   0.749786 0.421656 0.122302 -0.226274
C10   C     C_R   0.367228 0.485420 0.823193 -0.090753
C11   C     C_2   0.605294 0.066740 0.506066 -0.268860
C12   C     C_R   0.420707 0.494902 0.704401 0.876020
C13   C     C_2   0.485901 0.132351 0.529309 0.220633
C14   C     C_2   0.602139 0.933313 0.516236 -0.109162
C15   C     C_2   0.509703 0.868799 0.485099 -0.261657
C16   C     C_2   0.076737 0.399725 0.494738 -0.100812
C17   C     C_2   0.920682 0.401764 0.513817 0.010022
C18   C     C_R   0.497282 0.262665 0.504981 0.852108
C19   C     C_R   0.579085 0.500996 0.295606 0.855480
C20   C     C_R   0.769036 0.377442 0.018610 -0.112851
C21   C     C_R   0.627448 0.487337 0.178207 -0.058741
C22   C     C_R   0.239856 0.544518 0.880652 -0.158714
C23   C     C_R   0.204552 0.566326 0.990933 -0.143948
C24   C     C_R   0.301257 0.539338 0.042107 -0.153761
H1    H     H_    0.825565 0.397887 0.161028 0.161340
H2    H     H_    0.679904 0.888489 0.544301 0.180242
H3    H     H_    0.438470 0.913317 0.450170 0.187436
H4    H     H_    0.129445 0.310458 0.481559 0.188918
H5    H     H_    0.091472 0.576744 0.531455 0.196364
H6    H     H_    0.861994 0.315653 0.541728 0.144802
H7    H     H_    0.863477 0.324503 0.978513 0.202904
H8    H     H_    0.447546 0.580362 0.169543 0.141555
H9    H     H_    0.170458 0.578461 0.839472 0.169850
H10   H     H_    0.268967 0.562241 0.127083 0.127140
H11   H     H_    0.105465 0.610839 0.035575 0.148571
H12   H     H_    0.709211 0.110799 0.472707 0.157059
N1    N     N_2   0.148270 0.498670 0.498870 -0.201111
N2    N     N_2   0.852610 0.498640 0.498840 -0.055265
O1    O     O_R   0.386950 0.680940 0.500020 -0.604140
O2    O     O_R   0.613110 0.680900 0.499980 -0.618038
O3    O     O_R   0.330780 0.500000 0.653640 -0.594604
O4    O     O_R   0.556930 0.499960 0.653610 -0.584808
O5    O     O_R   0.386890 0.319100 0.500020 -0.567769
O6    O     O_R   0.613050 0.319060 0.499980 -0.655252
O7    O     O_R   0.443070 0.500040 0.346390 -0.607845
O8    O     O_R   0.669220 0.500000 0.346360 -0.620086
Zn1   Zn    Zn3+2 0.349000 0.500030 0.500020 0.981141
Zn2   Zn    Zn3+2 0.651000 0.499970 0.499980 0.943097
Cl1   Cl    Cl    0.314798 0.073133 0.606349 -0.590831
C25   C     C_3   0.928543 0.598402 0.425122 -0.612616
H13   H     H_    0.865867 0.628302 0.374800 0.238062
H14   H     H_    0.939908 0.680807 0.472159 0.188590
H15   H     H_    0.032060 0.568999 0.366027 0.178479
Cl2   Cl    Cl    0.812946 0.232430 0.809728 -0.629365
C26   C     C_3   0.546865 0.252048 0.753687 -0.714178
H16   H     H_    0.547984 0.156709 0.787042 0.259578
H17   H     H_    0.445728 0.259042 0.738289 0.218463
H18   H     H_    0.637524 0.261589 0.676636 0.259564

loop_
_geom_bond_atom_site_label_1
_geom_bond_atom_site_label_2
_ccdc_geom_bond_type
C16   H4    S    
C25   H14   S    
C23   C24   A    
C19   O7    A    
C6    C7    A    
C1    C15   S    
C18   O6    A    
N1    Zn1   S    
O5    Zn1   S    
C9    C20   A    
C15   H3    S    
C7    C26   S    
C16   N1    D    
C4    C8    A    
C14   H2    S    
C26   H16   S    
O7    Zn1   S    
C25   H13   S    
O3    Zn1   S    
C19   O8    A    
C9    H1    S    
C3    C10   A    
O4    Zn2   S    
C18   O5    A    
C10   C22   A    
C17   H6    S    
C11   C13   D    
C9    C21   A    
C12   O3    A    
C10   C12   S    
C13   C18   S    
C6    Cl2   S    
C13   Cl1   S    
C2    C4    A    
C11   H12   S    
C19   C21   S    
C2    C3    A    
C3    C7    A    
C17   N2    D    
C26   H17   S    
C2    C24   A    
C5    C6    A    
C23   H11   S    
O8    Zn2   S    
C25   H15   S    
N2    C25   S    
C1    O1    A    
C8    H8    S    
O1    Zn1   S    
C26   H18   S    
H5    N1    S    
C11   C14   S    
C5    C20   A    
C22   H9    S    
O2    Zn2   S    
C14   C15   D    
C16   C17   S    
C12   O4    A    
C1    O2    A    
C22   C23   A    
N2    Zn2   S    
C24   H10   S    
O6    Zn2   S    
C4    C5    A    
C20   H7    S    
C8    C21   A    
