data_mof_unit_9229.cif
_audit_creation_date              2012-12-10T17:48:50-0500
_audit_creation_method            fapswitch 2.2
_symmetry_space_group_name_H-M    P1
_symmetry_Int_Tables_number       1
_space_group_crystal_system       triclinic
_cell_length_a                    10.764576
_cell_length_b                    14.653411
_cell_length_c                    14.633703
_cell_angle_alpha                 64.572011
_cell_angle_beta                  102.345577
_cell_angle_gamma                 104.319054
_cell_volume                      2004.57802162

loop_
_atom_site_label
_atom_site_type_symbol
_atom_type_description
_atom_site_fract_x
_atom_site_fract_y
_atom_site_fract_z
_atom_type_partial_charge
C1    C     C_R   0.474137 0.120828 0.311257 0.925864
C2    C     C_3   0.880239 0.005741 0.494756 -0.062615
C3    C     C_3   0.955067 0.994576 0.601449 -0.413702
C4    C     C_3   0.946496 0.107393 0.407756 0.666279
C5    C     C_R   0.441343 0.187645 0.202164 -0.209507
C6    C     C_R   0.488624 0.810428 0.795502 -0.179880
C7    C     C_R   0.340086 0.199934 0.031833 0.457320
C8    C     C_R   0.375008 0.141447 0.134849 -0.273822
C9    C     C_R   0.466167 0.295834 0.165054 0.347000
C10   C     C_R   0.403727 0.352888 0.068830 -0.128328
C11   C     C_R   0.359993 0.308706 0.995622 -0.076994
C12   C     C_R   0.260387 0.997406 0.503455 0.763862
C13   C     C_R   0.396297 0.456418 0.040978 0.141007
C14   C     C_R   0.395831 0.524674 0.937945 0.033294
C15   C     C_R   0.367058 0.482880 0.863703 -0.278633
C16   C     C_R   0.342766 0.376571 0.891036 0.438970
C17   C     C_R   0.389706 0.492779 0.114341 -0.081637
C18   C     C_R   0.402127 0.597169 0.088667 -0.182739
C19   C     C_R   0.425771 0.667342 0.990213 0.086894
C20   C     C_R   0.424678 0.631963 0.914023 0.122588
C21   C     C_R   0.452082 0.772370 0.968034 -0.243600
C22   C     C_R   0.481746 0.844963 0.871552 0.340775
C23   C     C_R   0.511163 0.879566 0.688426 0.815836
C24   C     C_R   0.459838 0.704304 0.818724 -0.287823
C25   C     C_R   0.731750 0.298333 0.650336 -0.256401
C26   C     C_R   0.694364 0.213138 0.625292 0.219210
C27   C     C_R   0.510940 0.279399 0.517688 0.133576
C28   C     C_R   0.546171 0.370244 0.537083 -0.003547
C29   C     C_R   0.658278 0.377046 0.606581 0.131781
C30   C     C_R   0.476156 0.454350 0.489637 0.097285
C31   C     C_R   0.518321 0.542466 0.515216 0.085992
C32   C     C_R   0.628891 0.543407 0.587173 -0.204679
C33   C     C_R   0.697369 0.462671 0.631238 -0.135329
C34   C     C_R   0.740658 0.002845 0.496469 0.856703
C35   C     C_R   0.367110 0.454307 0.416147 -0.150417
C36   C     C_R   0.301810 0.536975 0.368957 -0.172042
C37   C     C_R   0.341419 0.622937 0.393183 0.140100
C38   C     C_R   0.449364 0.627170 0.466916 -0.015025
C39   C     C_R   0.273570 0.705147 0.343858 -0.286904
C40   C     C_R   0.311952 0.791026 0.367954 0.096062
C41   C     C_R   0.482998 0.716906 0.488283 0.023374
C42   C     C_3   0.034302 0.905138 0.482953 -0.365648
C43   C     C_3   0.892559 0.908449 0.480836 -0.390211
C44   C     C_3   0.099282 0.995820 0.603113 -0.311625
C45   C     C_3   0.088808 0.097283 0.412355 -0.430641
C46   C     C_3   0.123022 0.998249 0.501178 0.027773
Cu1   Cu    Cu3+1 0.465900 0.918260 0.475680 0.962702
Cu2   Cu    Cu3+1 0.534100 0.081740 0.524320 1.070972
H1    H     H_    0.059390 0.832218 0.544665 0.179460
H2    H     H_    0.158714 0.063828 0.616323 0.247196
H3    H     H_    0.943872 0.055265 0.623694 0.236763
H4    H     H_    0.469206 0.678400 0.762168 0.173459
H5    H     H_    0.399534 0.623145 0.147218 0.149740
H6    H     H_    0.352851 0.058540 0.161664 0.204536
H7    H     H_    0.047925 0.905733 0.409380 0.207595
H8    H     H_    0.356449 0.531482 0.783347 0.172583
H9    H     H_    0.376405 0.440256 0.192172 0.155908
H10   H     H_    0.450096 0.797555 0.027234 0.189238
H11   H     H_    0.782742 0.467706 0.684976 0.152830
H12   H     H_    0.562540 0.726200 0.544014 0.120737
H13   H     H_    0.259257 0.854201 0.330187 0.125633
H14   H     H_    0.219198 0.533575 0.312467 0.171191
H15   H     H_    0.818659 0.303274 0.702661 0.173270
H16   H     H_    0.752993 0.153827 0.656932 0.161235
H17   H     H_    0.426086 0.266945 0.467318 0.120588
H18   H     H_    0.835804 0.904997 0.409241 0.252215
H19   H     H_    0.666692 0.606499 0.610320 0.125222
H20   H     H_    0.330212 0.391670 0.392182 0.151485
H21   H     H_    0.191026 0.702907 0.287063 0.153154
H22   H     H_    0.851391 0.837627 0.543424 0.166967
H23   H     H_    0.129200 0.926410 0.667809 0.170492
H24   H     H_    0.913981 0.920785 0.660815 0.166216
H25   H     H_    0.158820 0.164216 0.420330 0.196057
H26   H     H_    0.107910 0.097932 0.340338 0.153317
N1    N     N_R   0.585360 0.204570 0.560800 -0.178529
N2    N     N_R   0.414550 0.795430 0.439160 -0.180754
O1    O     O_R   0.455060 0.022100 0.338110 -0.578861
O2    O     O_R   0.512640 0.160150 0.379180 -0.522948
O3    O     O_R   0.288900 0.930980 0.479450 -0.607115
O4    O     O_R   0.346480 0.069030 0.520520 -0.590044
O5    O     O_R   0.487360 0.839850 0.620820 -0.607486
O6    O     O_R   0.544940 0.977900 0.661890 -0.512482
O7    O     O_R   0.653520 0.930970 0.479480 -0.585136
O8    O     O_R   0.711100 0.069020 0.520550 -0.542918
S1    S     S_3+6 0.957238 0.227291 0.423713 0.025001
O9    O     O_2   0.045573 0.226153 0.518699 -0.338034
O10   O     O_2   0.015305 0.315882 0.334945 -0.261926
O11   O     O_3   0.815439 0.250810 0.430237 -0.452251
H27   H     H_    0.836424 0.317777 0.436530 0.376480
Cl1   Cl    Cl    0.307969 0.338442 0.787834 -0.493312
S2    S     S_3+6 0.509385 0.976157 0.852651 0.052022
O12   O     O_2   0.418785 0.032475 0.763692 -0.231572
O13   O     O_2   0.487996 0.987143 0.945415 -0.226910
O14   O     O_3   0.662751 0.028977 0.829482 -0.527871
H28   H     H_    0.716235 0.986339 0.889310 0.348277
Cl2   Cl    Cl    0.261473 0.128851 0.957999 -0.458030
S3    S     S_3+6 0.608932 0.360185 0.215027 0.039150
O15   O     O_2   0.586033 0.369861 0.307881 -0.350327
O16   O     O_2   0.713846 0.299225 0.242191 -0.139620
O17   O     O_3   0.659398 0.477890 0.128252 -0.523699
H29   H     H_    0.735485 0.507750 0.164575 0.379012
S4    S     S_3+6 0.865769 0.120345 0.280565 0.046779
O18   O     O_2   0.721931 0.101547 0.277377 -0.256189
O19   O     O_2   0.907959 0.226300 0.203106 -0.213936
O20   O     O_3   0.902150 0.035071 0.245962 -0.572493
H30   H     H_    0.962913 0.075252 0.194491 0.365163

loop_
_geom_bond_atom_site_label_1
_geom_bond_atom_site_label_2
_ccdc_geom_bond_type
C24   H4    S    
C16   Cl1   S    
C23   O6    A    
C1    O1    A    
C19   C20   A    
Cu1   O3    S    
S3    O15   D    
C7    C8    A    
C45   C46   S    
C7    C11   A    
C7    Cl2   S    
C30   C35   A    
C44   H23   S    
C1    C5    S    
C28   C29   A    
C19   C21   A    
Cu1   N2    S    
C42   C46   S    
C30   C31   A    
C36   H14   S    
C15   C16   A    
C6    C22   A    
C12   O3    A    
C29   C33   A    
S4    O20   S    
C45   H25   S    
C18   C19   A    
C25   H15   S    
Cu2   O2    S    
C26   H16   S    
C18   H5    S    
Cu1   Cu2   S    
C4    S4    S    
C22   S2    S    
Cu1   O7    S    
C9    C10   A    
C2    C34   S    
C33   H11   S    
C21   C22   A    
C1    O2    A    
Cu2   N1    S    
S4    O18   D    
C34   O8    A    
C27   N1    A    
S3    O16   D    
C44   C46   S    
C26   N1    A    
C4    C45   S    
S1    O10   D    
C25   C29   A    
C3    C44   S    
C14   C20   A    
C38   C41   A    
C12   C46   S    
C8    H6    S    
C39   C40   A    
C3    H3    S    
C4    S1    S    
C25   C26   A    
S1    O9    D    
C40   H13   S    
C40   N2    A    
C45   H26   S    
C35   C36   A    
C2    C4    S    
C5    C9    A    
C37   C38   A    
C27   H17   S    
C42   H7    S    
S2    O13   D    
C11   C16   A    
C31   C32   A    
C2    C43   S    
C6    C24   A    
C17   C18   A    
C39   H21   S    
S4    O19   D    
C32   H19   S    
C43   H22   S    
C34   O7    A    
Cu1   O1    S    
S2    O12   D    
S3    O17   S    
S1    O11   S    
C44   H2    S    
C36   C37   A    
C9    S3    S    
C23   O5    A    
C41   H12   S    
C10   C13   A    
C5    C8    A    
O20   H30   S    
C31   C38   A    
C13   C17   A    
C32   C33   A    
Cu2   O4    S    
C28   C30   A    
C3    H24   S    
C21   H10   S    
C37   C39   A    
C15   H8    S    
S2    O14   S    
C35   H20   S    
C43   H18   S    
C6    C23   S    
C12   O4    A    
O17   H29   S    
Cu2   O6    S    
C2    C3    S    
Cu1   O5    S    
O14   H28   S    
C10   C11   A    
C42   H1    S    
Cu2   O8    S    
O11   H27   S    
C42   C43   S    
C27   C28   A    
C14   C15   A    
C13   C14   A    
C20   C24   A    
C17   H9    S    
C41   N2    A    
