data_mof_unit_52017.cif
_audit_creation_date              2012-12-11T14:13:26-0500
_audit_creation_method            fapswitch 2.2
_symmetry_space_group_name_H-M    P1
_symmetry_Int_Tables_number       1
_space_group_crystal_system       triclinic
_cell_length_a                    11.69224
_cell_length_b                    18.61435
_cell_length_c                    10.175743
_cell_angle_alpha                 89.80934
_cell_angle_beta                  110.237296
_cell_angle_gamma                 90.496873
_cell_volume                      2077.88879076

loop_
_atom_site_label
_atom_site_type_symbol
_atom_type_description
_atom_site_fract_x
_atom_site_fract_y
_atom_site_fract_z
_atom_type_partial_charge
C1    C     C_R   0.073027 0.646784 0.140329 0.562144
C2    C     C_2   0.626750 0.062260 0.021415 -0.001850
C3    C     C_2   0.593500 0.421979 0.083668 0.004508
C4    C     C_2   0.406490 0.578016 0.916343 0.004506
C5    C     C_2   0.482666 0.968532 0.033897 -0.008144
C6    C     C_2   0.516271 0.032112 0.966359 -0.009697
C7    C     C_2   0.542625 0.473186 0.988124 0.006398
C8    C     C_2   0.457393 0.526819 0.011905 0.006428
C9    C     C_2   0.015544 0.924764 0.123587 -0.020892
C10   C     C_2   0.981836 0.074439 0.874867 -0.020044
C11   C     C_2   0.999144 0.419248 0.893389 -0.003415
C12   C     C_R   0.926975 0.353215 0.859672 0.562312
C13   C     C_2   0.000866 0.580751 0.106621 -0.003368
C14   C     C_2   0.994573 0.959663 0.002740 -0.157276
C15   C     C_2   0.003510 0.039368 0.995612 -0.158293
C16   C     C_2   0.966682 0.466739 0.973697 -0.121338
C17   C     C_2   0.033359 0.533249 0.026357 -0.121302
C18   C     C_R   0.465014 0.645928 0.436721 0.530864
C19   C     C_R   0.534987 0.354072 0.563282 0.530631
C20   C     C_R   0.529671 0.147613 0.556797 0.520776
C21   C     C_R   0.470220 0.852627 0.442894 0.520104
C22   C     C_R   0.375585 0.645796 0.964096 0.567595
C23   C     C_R   0.926164 0.146092 0.858349 0.556064
C24   C     C_R   0.624416 0.354204 0.035901 0.567602
C25   C     C_R   0.645444 0.137864 0.995142 0.575482
C26   C     C_R   0.354357 0.862094 0.005095 0.576421
C27   C     C_R   0.518187 0.426063 0.503133 -0.046142
C28   C     C_R   0.481813 0.573941 0.496889 -0.046202
C29   C     C_R   0.496407 0.924768 0.508154 -0.043186
C30   C     C_R   0.503098 0.075965 0.490107 -0.042189
C31   C     C_R   0.298345 0.404342 0.398448 -0.090068
C32   C     C_R   0.701654 0.595663 0.601568 -0.090082
C33   C     C_R   0.710691 0.920782 0.519235 -0.094142
C34   C     C_R   0.073315 0.853680 0.141413 0.556220
C35   C     C_R   0.288919 0.080426 0.477423 -0.092971
C36   C     C_R   0.180257 0.427892 0.372945 -0.117243
C37   C     C_R   0.819741 0.572114 0.627058 -0.117244
C38   C     C_R   0.801630 0.951218 0.477104 -0.158252
C39   C     C_R   0.196942 0.050182 0.517651 -0.154851
C40   C     C_R   0.161450 0.498525 0.401971 -0.126662
C41   C     C_R   0.838546 0.501481 0.598028 -0.126668
C42   C     C_R   0.795494 0.023470 0.440298 -0.160915
C43   C     C_R   0.201954 0.977837 0.553043 -0.160396
C44   C     C_R   0.258621 0.547114 0.442601 -0.087376
C45   C     C_R   0.399020 0.451854 0.452676 -0.002916
C46   C     C_R   0.741376 0.452891 0.557413 -0.087373
C47   C     C_R   0.700337 0.065557 0.449135 -0.076924
C48   C     C_R   0.297798 0.935609 0.546607 -0.078105
C49   C     C_R   0.379557 0.525535 0.461876 -0.010298
C50   C     C_R   0.620443 0.474470 0.538149 -0.010271
C51   C     C_R   0.603487 0.034770 0.485497 -0.002881
C52   C     C_R   0.395703 0.966118 0.511989 -0.002605
C53   C     C_3   0.450794 0.044479 0.813925 -0.339960
C54   C     C_3   0.550299 0.954527 0.184599 -0.336613
C55   C     C_3   0.413478 0.519581 0.135916 -0.366461
C56   C     C_R   0.600980 0.548150 0.547347 -0.002948
C57   C     C_3   0.586555 0.480423 0.864121 -0.366516
C58   C     C_3   0.736292 0.014677 0.065086 -0.416321
C59   C     C_3   0.261918 0.983394 0.923187 -0.414916
C60   C     C_3   0.353083 0.562401 0.762637 -0.414499
C61   C     C_3   0.646916 0.437594 0.237372 -0.414513
C62   C     C_3   0.966667 0.034341 0.742797 -0.389410
C63   C     C_3   0.028325 0.965058 0.254703 -0.392653
C64   C     C_3   0.890314 0.571479 0.149669 -0.414045
C65   C     C_3   0.109663 0.428536 0.850285 -0.414037
C66   C     C_R   0.604813 0.960017 0.509831 -0.004420
C67   C     C_R   0.394673 0.040872 0.487770 -0.002314
C68   C     C_2   0.372699 0.937830 0.979680 -0.005844
Cr1   Cr    Cr6+3 0.187610 0.750000 0.979860 0.989993
Cr2   Cr    Cr6+3 0.812390 0.250000 0.020140 0.989636
Cr3   Cr    Cr6+3 0.245810 0.750000 0.341640 0.990336
Cr4   Cr    Cr6+3 0.754190 0.250000 0.658360 0.990673
Cr5   Cr    Cr6+3 0.485760 0.750000 0.219910 1.000818
Cr6   Cr    Cr6+3 0.514240 0.250000 0.780090 1.000622
H1    H     H_    0.071714 0.515774 0.395389 0.113194
H2    H     H_    0.688846 0.651721 0.620697 0.116510
H3    H     H_    0.720586 0.865157 0.552442 0.131830
H4    H     H_    0.279807 0.136121 0.444610 0.130723
H5    H     H_    0.237739 0.599167 0.473051 0.170061
H6    H     H_    0.762257 0.400839 0.526963 0.170051
H7    H     H_    0.696888 0.120007 0.410915 0.154980
H8    H     H_    0.300109 0.881172 0.584457 0.154893
H9    H     H_    0.408398 0.993926 0.768395 0.144245
H10   H     H_    0.381207 0.087064 0.795494 0.173632
H11   H     H_    0.517485 0.056893 0.762041 0.150412
H12   H     H_    0.928276 0.484235 0.604590 0.113183
H13   H     H_    0.590194 0.005274 0.231139 0.142736
H14   H     H_    0.485177 0.940288 0.237404 0.153340
H15   H     H_    0.621071 0.912928 0.199323 0.172266
H16   H     H_    0.399220 0.462295 0.156787 0.124235
H17   H     H_    0.478978 0.545421 0.229395 0.162883
H18   H     H_    0.324139 0.545682 0.115982 0.124347
H19   H     H_    0.600650 0.537710 0.843097 0.124288
H20   H     H_    0.675980 0.454414 0.884170 0.124294
H21   H     H_    0.521151 0.454481 0.770702 0.162959
H22   H     H_    0.762465 0.999182 0.175739 0.134278
H23   H     H_    0.866180 0.047526 0.408123 0.111838
H24   H     H_    0.720297 0.965632 0.998941 0.140511
H25   H     H_    0.812101 0.044454 0.050419 0.153728
H26   H     H_    0.280648 0.041706 0.942423 0.139932
H27   H     H_    0.219858 0.972723 0.811065 0.140405
H28   H     H_    0.199645 0.967947 0.978100 0.148938
H29   H     H_    0.408523 0.591259 0.710628 0.128506
H30   H     H_    0.346085 0.504067 0.739889 0.146693
H31   H     H_    0.258033 0.582058 0.718767 0.141180
H32   H     H_    0.654074 0.495936 0.260088 0.146672
H33   H     H_    0.591371 0.408824 0.289360 0.128476
H34   H     H_    0.128774 0.953597 0.580398 0.105941
H35   H     H_    0.741904 0.417839 0.281302 0.141200
H36   H     H_    0.017271 0.071377 0.088676 0.141501
H37   H     H_    0.983133 0.927522 0.910502 0.144785
H38   H     H_    0.113020 0.544670 0.998013 0.141267
H39   H     H_    0.887044 0.455309 0.002080 0.141269
H40   H     H_    0.027196 0.988104 0.755669 0.104704
H41   H     H_    0.871979 0.014343 0.708211 0.170836
H42   H     H_    0.984151 0.069869 0.663985 0.152397
H43   H     H_    0.964973 0.009980 0.241401 0.104112
H44   H     H_    0.013483 0.929065 0.334398 0.151991
H45   H     H_    0.104171 0.390645 0.336908 0.115848
H46   H     H_    0.121538 0.987239 0.287892 0.169832
H47   H     H_    0.806528 0.571853 0.055197 0.134242
H48   H     H_    0.894083 0.519936 0.205959 0.124074
H49   H     H_    0.884225 0.615955 0.219365 0.141057
H50   H     H_    0.193473 0.428156 0.944729 0.134228
H51   H     H_    0.115729 0.384072 0.780558 0.141062
H52   H     H_    0.105875 0.480085 0.794015 0.124074
H53   H     H_    0.895826 0.609362 0.663083 0.115829
H54   H     H_    0.878416 0.919318 0.476746 0.109145
H55   H     H_    0.119697 0.082113 0.516459 0.109616
H56   H     H_    0.311152 0.348285 0.379317 0.116423
O1    O     O_R   0.267710 0.668200 0.902110 -0.528280
O2    O     O_R   0.883280 0.330790 0.732340 -0.532030
O3    O     O_R   0.883280 0.169210 0.732340 -0.516128
O4    O     O_R   0.116720 0.830790 0.267660 -0.516437
O5    O     O_R   0.366710 0.675440 0.427590 -0.521227
O6    O     O_R   0.633290 0.324560 0.572410 -0.521415
O7    O     O_R   0.633290 0.175440 0.572410 -0.506809
O8    O     O_R   0.366710 0.824560 0.427590 -0.506739
O9    O     O_R   0.534870 0.669390 0.371760 -0.516438
O10   O     O_R   0.465130 0.330610 0.628240 -0.516620
O11   O     O_R   0.465130 0.169390 0.628240 -0.537537
O12   O     O_R   0.732290 0.331800 0.097890 -0.528208
O13   O     O_R   0.534870 0.830610 0.371760 -0.537813
O14   O     O_R   0.453080 0.674480 0.075160 -0.495268
O15   O     O_R   0.546920 0.325520 0.924840 -0.495345
O16   O     O_R   0.546920 0.174480 0.924840 -0.505793
O17   O     O_R   0.453080 0.825520 0.075160 -0.505942
O18   O     O_3   0.306390 0.750000 0.180470 -0.269926
O19   O     O_3   0.693610 0.250000 0.819530 -0.269595
O20   O     O_R   0.732290 0.168200 0.097890 -0.523843
O21   O     O_R   0.267710 0.831800 0.902110 -0.522781
O22   O     O_R   0.099480 0.674460 0.038850 -0.508779
O23   O     O_R   0.900520 0.325540 0.961150 -0.508581
O24   O     O_R   0.900520 0.174460 0.961150 -0.526150
O25   O     O_R   0.099480 0.825540 0.038850 -0.524927
O26   O     O_R   0.116720 0.669210 0.267660 -0.532122

loop_
_geom_bond_atom_site_label_1
_geom_bond_atom_site_label_2
_ccdc_geom_bond_type
C44   C49   A    
C46   H6    S    
C30   C51   A    
C22   O1    A    
Cr2   O23   S    
Cr6   O15   S    
Cr2   O20   S    
C12   O23   A    
C4    C8    D    
C61   H35   S    
C16   H39   S    
Cr3   O4    S    
C28   C56   A    
C7    C8    S    
C20   C30   S    
C34   O25   A    
C41   H12   S    
Cr1   O25   S    
Cr5   O17   S    
C53   H10   S    
C26   O21   A    
C62   H40   S    
C31   H56   S    
C3    C7    D    
C24   O15   A    
Cr3   O5    S    
C54   H13   S    
C63   H43   S    
Cr4   O6    S    
C34   O4    A    
C64   H47   S    
C1    O22   A    
C11   C16   D    
C65   H50   S    
C26   O17   A    
C36   H45   S    
C58   H22   S    
C55   H17   S    
C47   C51   A    
C24   O12   A    
C19   O10   A    
C58   H24   S    
C41   C46   A    
Cr6   O19   S    
C25   O16   A    
C35   C67   A    
C60   H29   S    
C19   C27   S    
C43   C48   A    
C30   C67   A    
C27   C50   A    
C43   H34   S    
C27   C45   A    
Cr3   O18   S    
C57   H19   S    
C32   C56   A    
C59   H26   S    
Cr1   O22   S    
C15   H36   S    
C3    C24   S    
C10   C62   S    
Cr2   O19   S    
C21   O8    A    
C5    C68   D    
C8    C55   S    
C33   C66   A    
Cr4   O2    S    
Cr3   O8    S    
C3    C61   S    
C14   H37   S    
C29   C52   A    
Cr2   O12   S    
C23   O3    A    
Cr5   O18   S    
C59   H27   S    
C5    C54   S    
C36   C40   A    
C18   C28   S    
C21   O13   A    
C54   H15   S    
C53   H9    S    
C42   H23   S    
C63   H44   S    
C16   C17   S    
C39   C43   A    
C39   H55   S    
C19   O6    A    
C21   C29   S    
C50   C56   A    
C2    C6    D    
C25   O20   A    
C51   C66   A    
Cr1   O21   S    
C20   O7    A    
C1    O26   A    
C35   C39   A    
C9    C14   D    
C62   H42   S    
C55   H18   S    
C59   C68   S    
C4    C22   S    
C28   C49   A    
C14   C15   S    
C45   C49   A    
Cr1   O1    S    
C4    C60   S    
C18   O5    A    
C32   C37   A    
C61   H32   S    
C52   C67   A    
Cr4   O7    S    
Cr6   O11   S    
C57   H20   S    
C31   C45   A    
C9    C34   S    
C1    C13   S    
C6    C53   S    
C17   H38   S    
Cr2   O24   S    
Cr5   O13   S    
C12   O2    A    
C9    C63   S    
C59   H28   S    
C20   O11   A    
Cr6   O16   S    
C44   H5    S    
C58   H25   S    
C32   H2    S    
C38   H54   S    
C11   C12   S    
C2    C58   S    
C38   C42   A    
C10   C23   S    
C55   H16   S    
C64   H49   S    
Cr5   O9    S    
C46   C50   A    
C35   H4    S    
C33   C38   A    
C40   H1    S    
C13   C17   D    
C10   C15   D    
C26   C68   S    
C65   H52   S    
C62   H41   S    
C60   H30   S    
C54   H14   S    
C63   H46   S    
C33   H3    S    
Cr4   O3    S    
C5    C6    S    
C13   C64   S    
Cr6   O10   S    
C64   H48   S    
Cr3   O26   S    
C48   H8    S    
C2    C25   S    
C42   C47   A    
C47   H7    S    
C37   C41   A    
C18   O9    A    
C61   H33   S    
C29   C66   A    
C40   C44   A    
Cr4   O19   S    
C57   H21   S    
C23   O24   A    
C22   O14   A    
Cr1   O18   S    
C31   C36   A    
C53   H11   S    
C48   C52   A    
C7    C57   S    
C60   H31   S    
C11   C65   S    
C65   H51   S    
C37   H53   S    
Cr5   O14   S    
