data_mof_unit_27082.cif
_audit_creation_date              2012-12-10T16:42:55-0500
_audit_creation_method            fapswitch 2.2
_symmetry_space_group_name_H-M    P1
_symmetry_Int_Tables_number       1
_space_group_crystal_system       triclinic
_cell_length_a                    7.462542
_cell_length_b                    8.67415
_cell_length_c                    12.969333
_cell_angle_alpha                 88.082915
_cell_angle_beta                  79.366717
_cell_angle_gamma                 102.808754
_cell_volume                      802.146717208

loop_
_atom_site_label
_atom_site_type_symbol
_atom_type_description
_atom_site_fract_x
_atom_site_fract_y
_atom_site_fract_z
_atom_type_partial_charge
C1    C     C_R   0.452791 0.199712 0.503184 0.875662
C2    C     C_R   0.547222 0.800294 0.496751 0.887683
C3    C     C_R   0.466780 0.495196 0.701081 0.891856
C4    C     C_R   0.533171 0.504224 0.298909 0.871829
C5    C     C_R   0.551925 0.512647 0.185592 -0.270037
C6    C     C_R   0.448107 0.483737 0.814340 -0.242558
C7    C     C_R   0.265285 0.372161 0.984794 0.511176
C8    C     C_R   0.737719 0.616034 0.014518 0.520110
C9    C     C_R   0.287334 0.387709 0.876043 -0.286580
C10   C     C_R   0.714879 0.604456 0.123191 -0.280796
C11   C     C_R   0.591714 0.566894 0.859505 0.640135
C12   C     C_R   0.408273 0.428037 0.140858 0.671324
C13   C     C_R   0.584358 0.544222 0.967813 -0.234410
C14   C     C_R   0.417019 0.446847 0.032051 -0.215187
C15   C     C_2   0.426209 0.031811 0.504738 -0.316969
C16   C     C_2   0.573825 0.968207 0.495108 -0.327529
Cu1   Cu    Cu3+1 0.686350 0.517570 0.488220 1.031373
Cu2   Cu    Cu3+1 0.313650 0.482430 0.511780 1.042169
H1    H     H_    0.826526 0.665762 0.160047 0.244316
H2    H     H_    0.177178 0.325630 0.838434 0.230802
H3    H     H_    0.934108 0.376644 0.583175 0.236445
H4    H     H_    0.065889 0.623342 0.416815 0.236929
H5    H     H_    0.283938 0.960197 0.513850 0.194092
H6    H     H_    0.716099 0.039823 0.485982 0.190637
N1    N     N_2   0.033570 0.455950 0.529530 -0.190806
N2    N     N_2   0.966430 0.544050 0.470470 -0.191772
O1    O     O_R   0.621060 0.286250 0.492350 -0.597339
O2    O     O_R   0.378940 0.713750 0.507650 -0.589606
O3    O     O_R   0.306310 0.256580 0.512240 -0.574422
O4    O     O_R   0.693690 0.743420 0.487760 -0.573552
O5    O     O_R   0.631800 0.512400 0.642670 -0.544026
O6    O     O_R   0.368200 0.487600 0.357330 -0.539301
O7    O     O_R   0.317060 0.482730 0.662570 -0.569653
O8    O     O_R   0.682940 0.517270 0.337430 -0.585565
F1    F     F_    0.267112 0.322230 0.204809 -0.593823
F2    F     F_    0.730496 0.676845 0.796967 -0.588881
S1    S     S_3+6 0.043069 0.262454 0.055303 0.096186
O9    O     O_2   0.903857 0.229758 0.983786 -0.276606
O10   O     O_2   0.064444 0.107161 0.100544 -0.201966
O11   O     O_3   0.960594 0.366019 0.153146 -0.470410
H7    H     H_    0.845267 0.293033 0.193047 0.372116
S2    S     S_3+6 0.964784 0.713001 0.943452 0.097863
O12   O     O_2   0.025291 0.616797 0.854845 -0.248912
O13   O     O_2   0.960037 0.874399 0.899685 -0.185050
O14   O     O_3   0.121752 0.734268 0.023026 -0.517779
H8    H     H_    0.246073 0.762712 0.975128 0.370832

loop_
_geom_bond_atom_site_label_1
_geom_bond_atom_site_label_2
_ccdc_geom_bond_type
C8    C13   A    
C1    C15   S    
C2    C16   S    
C9    H2    S    
C10   H1    S    
C2    O4    A    
C3    C6    S    
C6    C9    A    
C1    O3    A    
Cu1   Cu2   S    
C7    S1    S    
C5    C10   A    
C16   H6    S    
Cu2   O3    S    
C13   C14   A    
C12   F1    S    
C3    O5    A    
Cu1   O4    S    
C11   C13   A    
C4    O6    A    
Cu2   N1    S    
S2    O13   D    
Cu1   N2    S    
C15   H5    S    
C11   F2    S    
S1    O9    D    
C8    S2    S    
S1    O11   S    
C7    C14   A    
H4    N2    S    
Cu1   O5    S    
Cu2   O7    S    
C4    O8    A    
Cu2   O6    S    
S2    O12   D    
C3    O7    A    
C15   C16   D    
Cu1   O1    S    
C7    C9    A    
Cu2   O2    S    
C5    C12   A    
S1    O10   D    
Cu1   O8    S    
C6    C11   A    
C1    O1    A    
H3    N1    S    
O11   H7    S    
C2    O2    A    
N1    N2    D    
O14   H8    S    
C8    C10   A    
C12   C14   A    
C4    C5    S    
S2    O14   S    
