data_mof_unit_58313.cif
_audit_creation_date              2012-12-11T14:24:50-0500
_audit_creation_method            fapswitch 2.2
_symmetry_space_group_name_H-M    P1
_symmetry_Int_Tables_number       1
_space_group_crystal_system       triclinic
_cell_length_a                    19.195193
_cell_length_b                    11.24026
_cell_length_c                    18.793508
_cell_angle_alpha                 90.407843
_cell_angle_beta                  89.794776
_cell_angle_gamma                 89.964069
_cell_volume                      4054.73814104

loop_
_atom_site_label
_atom_site_type_symbol
_atom_type_description
_atom_site_fract_x
_atom_site_fract_y
_atom_site_fract_z
_atom_type_partial_charge
C1    C     C_R   0.715995 0.335043 0.138581 0.551495
C2    C     C_R   0.231633 0.850765 0.061484 0.049802
C3    C     C_R   0.698006 0.625080 0.392315 -0.066950
C4    C     C_R   0.942585 0.974967 0.514716 -0.089715
C5    C     C_R   0.149262 0.207398 0.415806 -0.068347
C6    C     C_R   0.442592 0.474932 0.514682 -0.089824
C7    C     C_R   0.649120 0.707377 0.415847 -0.068354
C8    C     C_R   0.931481 0.056059 0.462076 -0.118540
C9    C     C_R   0.134699 0.216444 0.487863 -0.110627
C10   C     C_R   0.431475 0.556075 0.462068 -0.118665
C11   C     C_R   0.634597 0.716413 0.487913 -0.110593
C12   C     C_R   0.864186 0.078349 0.440504 -0.058811
C13   C     C_R   0.269018 0.349555 0.938311 0.044949
C14   C     C_R   0.174928 0.154837 0.537034 -0.090649
C15   C     C_R   0.364171 0.578386 0.440522 -0.058946
C16   C     C_R   0.674871 0.654826 0.537058 -0.090571
C17   C     C_R   0.737309 0.013224 0.439596 0.013617
C18   C     C_R   0.261875 0.991711 0.561702 0.023910
C19   C     C_R   0.237312 0.513212 0.439598 0.013539
C20   C     C_R   0.761928 0.491820 0.561678 0.023773
C21   C     C_R   0.731655 0.382297 0.351481 0.555629
C22   C     C_R   0.272503 0.373422 0.643760 0.537118
C23   C     C_R   0.231645 0.882263 0.351494 0.555480
C24   C     C_R   0.731633 0.350766 0.061484 0.049806
C25   C     C_R   0.772484 0.873470 0.643774 0.537127
C26   C     C_R   0.533789 0.158664 0.353553 0.592667
C27   C     C_R   0.468526 0.154510 0.647549 0.565893
C28   C     C_R   0.033778 0.658658 0.353553 0.592641
C29   C     C_R   0.968545 0.654515 0.647560 0.565802
C30   C     C_R   0.728155 0.027066 0.362812 0.583849
C31   C     C_R   0.270673 0.020190 0.636450 0.550332
C32   C     C_R   0.228156 0.527062 0.362814 0.583788
C33   C     C_R   0.770683 0.520218 0.636452 0.550376
C34   C     C_3   0.518573 0.252242 0.963438 0.071839
C35   C     C_R   0.712017 0.798889 0.980023 0.048566
C36   C     C_3   0.481940 0.252504 0.037528 0.070484
C37   C     C_3   0.018574 0.752242 0.963438 0.071838
C38   C     C_3   0.981941 0.752504 0.037528 0.070483
C39   C     C_3   0.569595 0.154814 0.989349 0.021891
C40   C     C_3   0.430494 0.155875 0.010787 0.020633
C41   C     C_3   0.069596 0.654814 0.989349 0.021889
C42   C     C_3   0.930495 0.655875 0.010786 0.020636
C43   C     C_3   0.532516 0.155102 0.062419 -0.015228
C44   C     C_3   0.467578 0.155765 0.937701 -0.019118
C45   C     C_3   0.032517 0.655102 0.062419 -0.015231
C46   C     C_R   0.288153 0.799105 0.019153 0.049589
C47   C     C_3   0.967579 0.655766 0.937700 -0.019115
C48   C     C_R   0.212017 0.298888 0.980023 0.048567
C49   C     C_R   0.788153 0.299105 0.019153 0.049590
C50   C     C_R   0.711188 0.821029 0.055126 -0.049706
C51   C     C_R   0.288998 0.821330 0.944158 -0.053174
C52   C     C_R   0.211189 0.321029 0.055126 -0.049705
C53   C     C_R   0.284448 0.334450 0.861146 0.552764
C54   C     C_R   0.788998 0.321330 0.944158 -0.053173
C55   C     C_R   0.811727 0.944445 0.043811 -0.109930
C56   C     C_R   0.189062 0.946225 0.956631 -0.111287
C57   C     C_R   0.311727 0.444444 0.043812 -0.109929
C58   C     C_R   0.689062 0.446225 0.956631 -0.111284
C59   C     C_R   0.820215 0.913407 0.974171 -0.144694
C60   C     C_R   0.180776 0.915788 0.026187 -0.143085
C61   C     C_R   0.320216 0.413405 0.974172 -0.144693
C62   C     C_R   0.680776 0.415788 0.026187 -0.143084
C63   C     C_R   0.656671 0.726311 0.954397 0.348172
C64   C     C_R   0.215995 0.835043 0.138581 0.551496
C65   C     C_R   0.342838 0.725042 0.044178 0.350618
C66   C     C_R   0.156671 0.226310 0.954397 0.348169
C67   C     C_R   0.842839 0.225043 0.044178 0.350618
C68   C     C_R   0.105950 0.180507 0.000786 -0.057725
C69   C     C_R   0.893085 0.177739 0.997406 -0.059926
C70   C     C_R   0.605950 0.680507 0.000786 -0.057726
C71   C     C_R   0.393085 0.677739 0.997406 -0.059925
C72   C     C_R   0.612613 0.691167 0.073352 0.341405
C73   C     C_R   0.386586 0.688842 0.924911 0.343257
C74   C     C_R   0.112613 0.191167 0.073353 0.341407
C75   C     C_R   0.784447 0.834453 0.861146 0.552768
C76   C     C_R   0.886586 0.188842 0.924911 0.343258
C77   C     C_R   0.666521 0.756726 0.100509 -0.042311
C78   C     C_R   0.333397 0.756312 0.898266 -0.036776
C79   C     C_R   0.166521 0.256725 0.100509 -0.042311
C80   C     C_R   0.833397 0.256312 0.898266 -0.036781
C81   C     C_R   0.560133 0.150731 0.136691 0.548848
C82   C     C_R   0.439956 0.151345 0.863344 0.548673
C83   C     C_R   0.060133 0.650732 0.136691 0.548851
C84   C     C_R   0.939956 0.651345 0.863344 0.548667
C85   C     C_R   0.757247 0.903937 0.084217 0.040299
C86   C     C_3   0.481924 0.059557 0.035866 0.111497
C87   C     C_R   0.243112 0.904793 0.915679 0.041907
C88   C     C_R   0.257247 0.403937 0.084217 0.040297
C89   C     C_R   0.743112 0.404794 0.915679 0.041910
C90   C     C_R   0.498326 0.149379 0.575065 -0.045827
C91   C     C_R   0.507368 0.171657 0.426669 -0.011417
C92   C     C_R   0.998388 0.649387 0.575092 -0.045813
C93   C     C_R   0.007363 0.671614 0.426683 -0.011505
C94   C     C_R   0.480033 0.053070 0.529073 -0.014653
C95   C     C_R   0.471429 0.075385 0.456321 -0.022862
C96   C     C_R   0.980179 0.553003 0.529128 -0.014536
C97   C     C_3   0.517785 0.059307 0.963453 0.112747
C98   C     C_R   0.971521 0.575246 0.456374 -0.022847
C99   C     C_R   0.540207 0.255148 0.472571 0.373526
C100  C     C_R   0.533666 0.245432 0.546435 0.355328
C101  C     C_R   0.040158 0.755197 0.472565 0.373416
C102  C     C_R   0.033656 0.745491 0.546436 0.355307
C103  C     C_R   0.476260 0.933125 0.551325 -0.015415
C104  C     C_R   0.439035 0.989094 0.413066 -0.065195
C105  C     C_R   0.976571 0.433061 0.551418 -0.014999
C106  C     C_R   0.939209 0.488794 0.413161 -0.065129
C107  C     C_R   0.954525 0.344232 0.505217 -0.085365
C108  C     C_3   0.981924 0.559557 0.035866 0.111498
C109  C     C_R   0.934775 0.372508 0.436295 -0.098886
C110  C     C_R   0.454106 0.844426 0.505091 -0.086050
C111  C     C_R   0.434422 0.872827 0.436169 -0.099269
C112  C     C_R   0.759266 0.917084 0.572887 -0.037270
C113  C     C_R   0.253551 0.933323 0.418191 -0.034240
C114  C     C_R   0.259278 0.417051 0.572880 -0.037176
C115  C     C_R   0.753603 0.433469 0.418148 -0.034332
C116  C     C_R   0.817061 0.947228 0.529067 0.020861
C117  C     C_R   0.228107 0.044390 0.440817 0.023186
C118  C     C_R   0.317069 0.447195 0.529057 0.020906
C119  C     C_3   0.017786 0.559307 0.963453 0.112745
C120  C     C_R   0.728056 0.544460 0.440805 0.023274
C121  C     C_R   0.805635 0.016792 0.469812 0.007706
C122  C     C_R   0.223460 0.066918 0.514516 -0.018121
C123  C     C_R   0.305636 0.516777 0.469813 0.007696
C124  C     C_R   0.723431 0.566963 0.514513 -0.018015
C125  C     C_R   0.680490 0.983765 0.482662 0.331158
C126  C     C_R   0.287966 0.883233 0.536995 0.380455
C127  C     C_R   0.180498 0.483768 0.482668 0.331099
C128  C     C_R   0.788198 0.383483 0.536917 0.380241
C129  C     C_R   0.743056 0.966959 0.150829 0.541893
C130  C     C_R   0.769017 0.849558 0.938311 0.044952
C131  C     C_R   0.256994 0.967204 0.849142 0.554172
C132  C     C_R   0.243056 0.466959 0.150829 0.541894
C133  C     C_R   0.756994 0.467204 0.849142 0.554137
C134  C     C_R   0.691595 0.943876 0.551502 -0.099742
C135  C     C_R   0.279596 0.853017 0.467215 -0.090573
C136  C     C_R   0.191606 0.443875 0.551507 -0.099657
C137  C     C_R   0.779840 0.353279 0.467137 -0.090716
C138  C     C_R   0.886549 0.913649 0.543689 -0.077673
C139  C     C_R   0.198137 0.125056 0.392305 -0.067013
C140  C     C_R   0.386560 0.413619 0.543671 -0.077694
Cr1   Cr    Cr6+3 0.772820 0.169820 0.252640 1.101535
Cr2   Cr    Cr6+3 0.383280 0.011130 0.749340 1.092953
Cr3   Cr    Cr6+3 0.116720 0.511130 0.250660 1.073531
Cr4   Cr    Cr6+3 0.883280 0.511130 0.749340 1.093072
Cr5   Cr    Cr6+3 0.227180 0.169820 0.747360 1.128766
Cr6   Cr    Cr6+3 0.272820 0.669820 0.252640 1.101523
Cr7   Cr    Cr6+3 0.727180 0.669820 0.747360 1.128745
Cr8   Cr    Cr6+3 0.615040 0.323610 0.249150 1.125987
Cr9   Cr    Cr6+3 0.384960 0.323610 0.750850 1.130062
Cr10  Cr    Cr6+3 0.115040 0.823610 0.249150 1.126028
Cr11  Cr    Cr6+3 0.884960 0.823610 0.750850 1.130042
Cr12  Cr    Cr6+3 0.616720 0.011130 0.250660 1.073572
F1    F     F_    0.580795 0.343670 0.446496 -0.595851
F2    F     F_    0.355992 0.705390 0.113299 -0.573801
F3    F     F_    0.143517 0.206066 0.885178 -0.571219
F4    F     F_    0.855992 0.205390 0.113299 -0.573804
F5    F     F_    0.066091 0.139941 0.117845 -0.595347
F6    F     F_    0.932599 0.136084 0.879997 -0.586580
F7    F     F_    0.566091 0.639941 0.117845 -0.595348
F8    F     F_    0.432599 0.636083 0.879997 -0.586582
F9    F     F_    0.565246 0.325246 0.590297 -0.588223
F10   F     F_    0.080674 0.843796 0.446465 -0.595894
F11   F     F_    0.065224 0.825347 0.590279 -0.588259
F12   F     F_    0.614904 0.988948 0.457170 -0.660764
F13   F     F_    0.314028 0.799373 0.581378 -0.604217
F14   F     F_    0.114915 0.488952 0.457174 -0.660837
F15   F     F_    0.814406 0.299669 0.581250 -0.604247
F16   F     F_    0.643517 0.706067 0.885178 -0.571217
H1    H     H_    0.495867 0.903622 0.602006 0.157615
H2    H     H_    0.207548 0.117642 0.335595 0.131782
H3    H     H_    0.397577 0.341197 0.577951 0.141627
H4    H     H_    0.707396 0.617693 0.335600 0.131803
H5    H     H_    0.647554 0.925733 0.585974 0.136338
H6    H     H_    0.288857 0.762649 0.452680 0.134199
H7    H     H_    0.147567 0.425738 0.585983 0.136236
H8    H     H_    0.789226 0.262951 0.452597 0.134347
H9    H     H_    0.994730 0.962879 0.533366 0.222846
H10   H     H_    0.120997 0.261162 0.378080 0.171848
H11   H     H_    0.494744 0.462816 0.533313 0.222764
H12   H     H_    0.424426 0.008206 0.358693 0.131806
H13   H     H_    0.620824 0.761133 0.378139 0.171831
H14   H     H_    0.975044 0.102281 0.438085 0.131362
H15   H     H_    0.094054 0.275686 0.506194 0.150561
H16   H     H_    0.475030 0.602345 0.438095 0.131414
H17   H     H_    0.593951 0.775639 0.506268 0.150585
H18   H     H_    0.859939 0.145032 0.400354 0.140775
H19   H     H_    0.162452 0.173455 0.591520 0.174555
H20   H     H_    0.359885 0.645123 0.400412 0.140740
H21   H     H_    0.662427 0.673450 0.591550 0.174585
H22   H     H_    0.847422 0.004824 0.066624 0.206081
H23   H     H_    0.996239 0.403699 0.602109 0.157392
H24   H     H_    0.153325 0.006296 0.934099 0.202390
H25   H     H_    0.347421 0.504824 0.066624 0.206081
H26   H     H_    0.653325 0.506296 0.934099 0.202391
H27   H     H_    0.866685 0.945229 0.947874 0.193028
H28   H     H_    0.134528 0.948556 0.052782 0.196487
H29   H     H_    0.366686 0.445226 0.947874 0.193027
H30   H     H_    0.634529 0.448556 0.052782 0.196489
H31   H     H_    0.061462 0.133779 0.979745 0.198050
H32   H     H_    0.937126 0.129643 0.018027 0.196880
H33   H     H_    0.561462 0.633779 0.979745 0.198050
H34   H     H_    0.924544 0.507811 0.358791 0.131810
H35   H     H_    0.437126 0.629642 0.018027 0.196880
H36   H     H_    0.672913 0.756420 0.157655 0.169810
H37   H     H_    0.327192 0.756452 0.841109 0.190449
H38   H     H_    0.172913 0.256420 0.157655 0.169811
H39   H     H_    0.827192 0.256452 0.841109 0.190428
H40   H     H_    0.952938 0.254195 0.524080 0.145983
H41   H     H_    0.918373 0.305174 0.399255 0.103186
H42   H     H_    0.452348 0.754400 0.523942 0.146326
H43   H     H_    0.417908 0.805610 0.399109 0.103457
H44   H     H_    0.897564 0.841220 0.577965 0.141673
I1    I     I_    0.671124 0.112315 0.955321 -0.378441
I2    I     I_    0.535644 0.893652 0.909434 -0.114998
I3    I     I_    0.963421 0.394546 0.088936 -0.134878
I4    I     I_    0.035645 0.393653 0.909433 -0.115001
I5    I     I_    0.329174 0.113632 0.045056 -0.406543
I6    I     I_    0.171124 0.612314 0.955321 -0.378423
I7    I     I_    0.829174 0.613633 0.045054 -0.406533
I8    I     I_    0.529286 0.413979 0.905052 -0.194608
I9    I     I_    0.471617 0.415281 0.096599 -0.224352
I10   I     I_    0.029286 0.913979 0.905052 -0.194601
I11   I     I_    0.971617 0.915282 0.096598 -0.224347
I12   I     I_    0.463420 0.894545 0.088937 -0.134872
O1    O     O_R   0.788190 0.043000 0.172520 -0.436340
O2    O     O_R   0.454170 0.051610 0.669840 -0.535866
O3    O     O_R   0.045830 0.551610 0.330160 -0.477051
O4    O     O_R   0.954170 0.551610 0.669840 -0.535762
O5    O     O_R   0.681920 0.959720 0.327070 -0.472909
O6    O     O_R   0.318080 0.959720 0.672930 -0.420542
O7    O     O_R   0.181920 0.459720 0.327070 -0.472929
O8    O     O_R   0.818080 0.459720 0.672930 -0.420349
O9    O     O_3   0.668190 0.168190 0.250820 -0.352407
O10   O     O_3   0.331810 0.168190 0.749180 -0.375799
O11   O     O_3   0.168190 0.668190 0.250820 -0.352413
O12   O     O_R   0.211810 0.043000 0.827480 -0.430342
O13   O     O_3   0.831810 0.668190 0.749180 -0.375800
O14   O     O_R   0.766240 0.292300 0.176860 -0.400621
O15   O     O_R   0.233760 0.292300 0.823140 -0.392289
O16   O     O_R   0.266240 0.792300 0.176860 -0.400607
O17   O     O_R   0.733760 0.792300 0.823140 -0.392299
O18   O     O_R   0.670310 0.409160 0.168720 -0.495156
O19   O     O_R   0.329690 0.409160 0.831280 -0.472067
O20   O     O_R   0.170310 0.909160 0.168720 -0.495142
O21   O     O_R   0.829690 0.909160 0.831280 -0.472083
O22   O     O_R   0.556160 0.251900 0.173380 -0.476666
O23   O     O_R   0.288190 0.543000 0.172520 -0.436334
O24   O     O_R   0.443840 0.251900 0.826620 -0.461158
O25   O     O_R   0.056160 0.751900 0.173380 -0.476663
O26   O     O_R   0.943840 0.751900 0.826620 -0.461164
O27   O     O_R   0.545410 0.050140 0.168240 -0.468224
O28   O     O_R   0.454590 0.050140 0.831760 -0.457653
O29   O     O_R   0.045410 0.550140 0.168240 -0.468218
O30   O     O_R   0.954590 0.550140 0.831760 -0.457672
O31   O     O_R   0.681530 0.958350 0.176970 -0.534447
O32   O     O_R   0.318470 0.958350 0.823030 -0.529576
O33   O     O_R   0.181530 0.458350 0.176970 -0.534444
O34   O     O_R   0.711810 0.543000 0.827480 -0.430350
O35   O     O_R   0.818470 0.458350 0.823030 -0.529596
O36   O     O_R   0.788610 0.044480 0.334450 -0.545426
O37   O     O_R   0.211390 0.044480 0.665550 -0.487301
O38   O     O_R   0.288610 0.544480 0.334450 -0.545369
O39   O     O_R   0.711390 0.544480 0.665550 -0.487356
O40   O     O_R   0.766630 0.293670 0.326970 -0.549404
O41   O     O_R   0.233370 0.293670 0.673030 -0.543837
O42   O     O_R   0.266630 0.793670 0.326970 -0.549472
O43   O     O_R   0.733370 0.793670 0.673030 -0.543842
O44   O     O_R   0.670730 0.410640 0.330640 -0.450009
O45   O     O_R   0.556550 0.253260 0.323480 -0.441447
O46   O     O_R   0.329270 0.410640 0.669360 -0.484571
O47   O     O_R   0.170730 0.910640 0.330640 -0.449987
O48   O     O_R   0.829270 0.910640 0.669360 -0.484621
O49   O     O_R   0.443450 0.253260 0.676520 -0.476034
O50   O     O_R   0.056550 0.753260 0.323480 -0.441347
O51   O     O_R   0.943450 0.753260 0.676520 -0.476051
O52   O     O_R   0.545830 0.051610 0.330160 -0.476975

loop_
_geom_bond_atom_site_label_1
_geom_bond_atom_site_label_2
_ccdc_geom_bond_type
C125  C134  A    
C58   C62   A    
C66   C68   A    
C96   C105  A    
C56   H24   S    
C59   C130  A    
C29   O51   A    
Cr1   O14   S    
C14   C122  A    
C134  H5    S    
C55   C59   A    
C6    H11   S    
C10   H16   S    
C72   C77   A    
C105  H23   S    
C31   O37   A    
Cr3   O33   S    
C117  C122  A    
C4    H9    S    
C4    C8    A    
C126  F13   S    
C53   O15   A    
C41   I6    S    
Cr5   O41   S    
C45   C83   S    
C2    C46   A    
C71   H35   S    
C105  C107  A    
C73   F8    S    
C19   C123  A    
C5    C9    A    
C37   C38   S    
C72   F7    S    
C15   C123  A    
C83   O29   A    
C68   H31   S    
C30   O36   A    
C30   O5    A    
C82   O28   A    
C101  F10   S    
Cr9   O46   S    
C20   C128  A    
C3    C7    A    
C10   C15   A    
C126  C135  A    
C66   F3    S    
C40   I5    S    
C34   I8    S    
Cr11  O48   S    
Cr2   O6    S    
C106  H34   S    
Cr7   O17   S    
C68   C74   A    
Cr10  O11   S    
C31   O6    A    
Cr5   O15   S    
C92   C96   A    
C64   O16   A    
Cr2   O32   S    
C75   O17   A    
Cr4   O35   S    
C139  H2    S    
Cr8   O9    S    
C44   C97   S    
C87   C131  S    
C77   H36   S    
Cr6   O42   S    
C86   C97   S    
C48   C66   A    
C110  C111  A    
C38   C45   S    
C50   C85   A    
C85   C129  S    
Cr3   O11   S    
C12   C121  A    
C115  C137  A    
C14   H19   S    
C102  F11   S    
C96   C98   A    
C69   H32   S    
C73   C78   A    
C5    C139  A    
C100  F9    S    
C51   C78   A    
C37   C47   S    
C33   O8    A    
C49   C54   A    
C40   C44   S    
C54   C80   A    
C21   O44   A    
C45   C108  S    
C92   C102  A    
C1    O18   A    
Cr9   O10   S    
C22   O46   A    
C70   H33   S    
C47   C119  S    
C32   O7    A    
C12   H18   S    
C119  I4    S    
C114  C136  A    
Cr5   O10   S    
C83   O25   A    
Cr8   O18   S    
C17   C30   S    
C25   C112  S    
C108  C119  S    
C110  H42   S    
C3    C120  A    
C86   I12   S    
C81   O27   A    
C109  H41   S    
C19   C32   S    
C81   O22   A    
C28   O3    A    
C90   C100  A    
C42   C47   S    
C25   O43   A    
C2    C64   S    
Cr2   O2    S    
Cr11  O26   S    
C13   C53   S    
Cr7   O13   S    
Cr1   O1    S    
Cr11  O13   S    
C90   C94   A    
C89   C133  S    
C116  C121  A    
C39   I1    S    
C84   O26   A    
C34   C39   S    
C108  I3    S    
C101  C102  A    
C129  O31   A    
C52   C88   A    
Cr2   O28   S    
C127  C136  A    
C62   H30   S    
C46   C65   A    
Cr7   O43   S    
C42   I7    S    
Cr12  O52   S    
C93   C101  A    
C71   C73   A    
C7    H13   S    
C131  O32   A    
C56   C87   A    
C39   C43   S    
Cr12  O9    S    
Cr12  O31   S    
C59   H27   S    
C26   C91   S    
C65   C71   A    
Cr4   O30   S    
C46   C51   A    
C58   H26   S    
C56   C60   A    
C57   H25   S    
C67   F4    S    
C67   C69   A    
C54   C89   A    
Cr9   O49   S    
C38   I11   S    
C55   C85   A    
C7    C11   A    
C9    C14   A    
C55   H22   S    
C6    C10   A    
C65   F2    S    
C9    H15   S    
C23   C113  S    
C26   O45   A    
C11   C16   A    
C21   O40   A    
C28   O50   A    
C99   C100  A    
C63   C70   A    
C22   C114  S    
C8    C12   A    
C5    H10   S    
C23   O47   A    
C35   C50   A    
C76   F6    S    
C36   C43   S    
C34   C44   S    
C132  O23   A    
C128  F15   S    
C47   C84   S    
C41   C119  S    
C32   O38   A    
C135  H6    S    
C35   C130  A    
C107  H40   S    
C114  C118  A    
C23   O42   A    
C113  C135  A    
C18   C122  A    
C128  C137  A    
C113  C117  A    
C20   C33   S    
C17   C121  A    
C63   F16   S    
C138  H44   S    
Cr6   O16   S    
C137  H8    S    
C140  H3    S    
C74   C79   A    
C103  C110  A    
C6    C140  A    
Cr5   O37   S    
C27   O49   A    
C43   C81   S    
Cr1   O40   S    
C40   C86   S    
C76   C80   A    
Cr8   O22   S    
C88   C132  S    
C61   H29   S    
C52   C79   A    
C50   C77   A    
C112  C116  A    
C36   C40   S    
C95   C104  A    
C60   H28   S    
Cr10  O25   S    
Cr12  O5    S    
C133  O35   A    
C8    H14   S    
C24   C49   A    
Cr7   O39   S    
Cr6   O11   S    
C133  O34   A    
C24   C62   A    
C49   C67   A    
C74   F5    S    
C94   C103  A    
C11   H17   S    
C43   C86   S    
Cr8   O45   S    
Cr4   O8    S    
C38   C42   S    
C136  H7    S    
C104  H12   S    
C53   O19   A    
Cr3   O3    S    
Cr9   O19   S    
C118  C140  A    
C75   O21   A    
Cr10  O47   S    
C37   I10   S    
C13   C48   A    
C70   C72   A    
C75   C130  S    
C27   O2    A    
C57   C61   A    
C132  O33   A    
C64   O20   A    
C131  O12   A    
Cr9   O24   S    
C79   H38   S    
C15   H20   S    
C33   O39   A    
C51   C87   A    
C44   C82   S    
C21   C115  S    
C98   C106  A    
C57   C88   A    
C82   O24   A    
C97   I2    S    
C91   C99   A    
Cr8   O44   S    
Cr7   O34   S    
C16   C124  A    
C78   H37   S    
C1    O14   A    
C1    C24   S    
C18   C126  A    
C84   O30   A    
Cr6   O23   S    
C22   O41   A    
C17   C125  A    
C107  C109  A    
Cr4   O4    S    
C42   C108  S    
C127  F14   S    
C99   F1    S    
Cr10  O20   S    
C26   O52   A    
Cr1   O36   S    
Cr10  O50   S    
Cr4   O13   S    
Cr6   O38   S    
C2    C60   A    
C118  C123  A    
Cr12  O27   S    
C37   C41   S    
C94   C95   A    
C3    H4    S    
C58   C89   A    
C111  H43   S    
C27   C90   S    
C20   C124  A    
C25   O48   A    
C39   C97   S    
C16   H21   S    
C116  C138  A    
C4    C138  A    
C104  C111  A    
C125  F12   S    
Cr11  O21   S    
C48   C52   A    
C80   H39   S    
C13   C61   A    
C69   C76   A    
C34   C36   S    
C91   C95   A    
Cr1   O9    S    
C115  C120  A    
Cr3   O29   S    
Cr5   O12   S    
C129  O1    A    
Cr2   O10   S    
C103  H1    S    
C41   C45   S    
C28   C93   S    
C117  C139  A    
C35   C63   A    
C18   C31   S    
C19   C127  A    
C29   O4    A    
Cr3   O7    S    
C112  C134  A    
Cr11  O51   S    
C93   C98   A    
C29   C92   S    
C120  C124  A    
C36   I9    S    
C106  C109  A    
