data_mof_unit_18831.cif
_audit_creation_date              2012-12-10T17:36:19-0500
_audit_creation_method            fapswitch 2.2
_symmetry_space_group_name_H-M    P1
_symmetry_Int_Tables_number       1
_space_group_crystal_system       triclinic
_cell_length_a                    12.389934
_cell_length_b                    13.112049
_cell_length_c                    15.844784
_cell_angle_alpha                 76.451569
_cell_angle_beta                  100.754686
_cell_angle_gamma                 116.855947
_cell_volume                      2222.864461

loop_
_atom_site_label
_atom_site_type_symbol
_atom_type_description
_atom_site_fract_x
_atom_site_fract_y
_atom_site_fract_z
_atom_type_partial_charge
C1    C     C_R   0.854851 0.286220 0.502930 0.831811
C2    C     C_3   0.029889 0.398947 0.072031 -0.164554
C3    C     C_3   0.000521 0.499413 0.083099 0.158078
C4    C     C_3   0.098513 0.617703 0.039863 -0.172458
C5    C     C_3   0.098110 0.616230 0.941943 -0.420343
C6    C     C_1   0.000762 0.499469 0.175783 -0.103341
C7    C     C_1   0.999668 0.499936 0.824538 -0.071642
C8    C     C_1   0.999681 0.500268 0.748919 -0.148216
C9    C     C_R   0.269687 0.047479 0.427336 -0.038161
C10   C     C_R   0.226757 0.840608 0.461520 -0.139799
C11   C     C_R   0.807975 0.071399 0.527964 -0.105139
C12   C     C_R   0.000109 0.500398 0.659361 0.856700
C13   C     C_R   0.720920 0.954907 0.544032 0.012241
C14   C     C_R   0.597925 0.928884 0.522053 -0.205324
C15   C     C_R   0.559396 0.014273 0.476963 0.040679
C16   C     C_R   0.645843 0.131364 0.461806 0.107453
C17   C     C_R   0.434139 0.986167 0.452320 0.003592
C18   C     C_R   0.394593 0.075340 0.428330 0.058641
C19   C     C_R   0.481042 0.188091 0.400848 -0.211646
C20   C     C_R   0.603983 0.213311 0.411934 -0.149633
C21   C     C_R   0.347163 0.872672 0.446067 -0.065728
C22   C     C_R   0.187893 0.929778 0.452524 -0.088200
C23   C     C_R   0.145007 0.714865 0.483802 0.837529
C24   C     C_R   0.770152 0.162122 0.495475 -0.141949
C25   C     C_R   0.318830 0.294898 0.610409 -0.292601
C26   C     C_R   0.768878 0.657455 0.390301 0.082329
C27   C     C_R   0.675621 0.693116 0.364776 -0.066748
C28   C     C_R   0.564830 0.628688 0.400954 -0.184119
C29   C     C_R   0.545955 0.528130 0.463837 0.006966
C30   C     C_R   0.644260 0.494354 0.489261 0.181303
C31   C     C_R   0.434934 0.462423 0.505580 -0.018161
C32   C     C_R   0.416460 0.354564 0.558979 0.072838
C33   C     C_R   0.502173 0.311962 0.568650 -0.295576
C34   C     C_R   0.000466 0.500316 0.340608 0.841196
C35   C     C_R   0.620462 0.388530 0.550836 0.015689
C36   C     C_R   0.341753 0.499087 0.498998 0.039362
C37   C     C_R   0.237906 0.341721 0.608189 0.184899
C38   C     C_3   0.028319 0.399393 0.973368 -0.342220
C39   C     C_3   0.874109 0.482772 0.935405 -0.388755
C40   C     C_3   0.873136 0.482169 0.033535 -0.155684
C41   C     C_1   0.000790 0.499808 0.251243 -0.114755
C42   C     C_3   0.000011 0.499575 0.916800 0.232922
Cu1   Cu    Cu3+1 0.098280 0.475420 0.519630 0.997028
Cu2   Cu    Cu3+1 0.901720 0.524580 0.480370 0.961504
H1    H     H_    0.118647 0.410513 0.960419 0.156155
H2    H     H_    0.123618 0.415787 0.102438 0.122990
H3    H     H_    0.075938 0.689266 0.044135 0.156823
H4    H     H_    0.455085 0.257171 0.368708 0.136861
H5    H     H_    0.531603 0.840576 0.540469 0.171569
H6    H     H_    0.960685 0.315576 0.953682 0.216304
H7    H     H_    0.664459 0.298032 0.381127 0.168520
H8    H     H_    0.485220 0.228766 0.610823 0.189099
H9    H     H_    0.308916 0.215132 0.655020 0.145773
H10   H     H_    0.343475 0.575335 0.454764 0.158219
H11   H     H_    0.854262 0.706895 0.361387 0.141500
H12   H     H_    0.493820 0.657214 0.377714 0.145518
H13   H     H_    0.851443 0.552496 0.892774 0.172905
H14   H     H_    0.802891 0.398968 0.917770 0.187853
H15   H     H_    0.802922 0.397151 0.061690 0.182431
H16   H     H_    0.188510 0.630044 0.926714 0.180072
H17   H     H_    0.079228 0.689124 0.901337 0.172250
N1    N     N_R   0.246300 0.438200 0.549400 -0.212524
N2    N     N_R   0.754300 0.561180 0.451130 -0.219680
O1    O     O_R   0.972520 0.318130 0.524690 -0.573135
O2    O     O_R   0.806530 0.359650 0.491530 -0.576584
O3    O     O_R   0.083030 0.479240 0.637150 -0.572344
O4    O     O_R   0.917040 0.520750 0.603990 -0.595408
O5    O     O_R   0.193470 0.640350 0.508470 -0.561204
O6    O     O_R   0.027480 0.681870 0.475310 -0.594950
O7    O     O_R   0.082960 0.479250 0.396010 -0.554162
O8    O     O_R   0.916970 0.520760 0.362850 -0.600034
C43   C     C_2   0.948556 0.281212 0.119637 0.363135
H18   H     H_    0.977654 0.251237 0.185831 0.111291
O9    O     O_2   0.849262 0.220807 0.086369 -0.526113
C44   C     C_1   0.065315 0.901860 0.468055 0.364594
N3    N     N_1   0.967253 0.879482 0.480203 -0.285787
C45   C     C_2   0.226835 0.141019 0.405320 0.371046
H19   H     H_    0.285588 0.226697 0.420579 0.078864
O10   O     O_2   0.126031 0.123950 0.368200 -0.528169
C46   C     C_2   0.375044 0.804752 0.396766 0.353592
H20   H     H_    0.468119 0.822599 0.391741 0.076182
O11   O     O_2   0.294707 0.735455 0.354140 -0.549813
C47   C     C_1   0.935059 0.094767 0.539309 0.294795
N4    N     N_1   0.036088 0.111392 0.547450 -0.280096
C48   C     C_2   0.756697 0.859166 0.586362 0.390803
H21   H     H_    0.848993 0.877997 0.614719 0.088524
O12   O     O_2   0.683214 0.757626 0.590318 -0.558948
C49   C     C_1   0.145156 0.286342 0.667861 0.313484
N5    N     N_1   0.070954 0.241457 0.716168 -0.280260
C50   C     C_1   0.693874 0.796663 0.301282 0.259121
N6    N     N_1   0.708551 0.879960 0.250370 -0.215440
C51   C     C_2   0.701360 0.376366 0.628638 0.471929
H22   H     H_    0.737253 0.441816 0.670203 0.065882
O13   O     O_2   0.717527 0.288262 0.652640 -0.560119
C52   C     C_1   0.835274 0.570375 0.043596 0.228050
N7    N     N_1   0.805669 0.639370 0.051545 -0.252716
C53   C     C_1   0.221607 0.645557 0.085314 0.265857
N8    N     N_1   0.317847 0.667314 0.120993 -0.242511

loop_
_geom_bond_atom_site_label_1
_geom_bond_atom_site_label_2
_ccdc_geom_bond_type
C5    C42   S    
C23   O6    A    
C37   C49   S    
C52   N7    T    
C44   N3    T    
C3    C6    S    
C26   H11   S    
C37   N1    A    
C28   H12   S    
C7    C8    T    
C45   H19   S    
C10   C22   A    
C33   H8    S    
C26   C27   A    
C30   C35   A    
Cu2   O8    S    
C28   C29   A    
C25   H9    S    
C38   C42   S    
C20   H7    S    
C2    C43   S    
C9    C22   A    
C14   H5    S    
C15   C16   A    
C39   H13   S    
C11   C24   A    
C27   C50   S    
C18   C19   A    
C7    C42   S    
C38   H1    S    
C25   C37   A    
C31   C32   A    
Cu1   O5    S    
C6    C41   T    
C1    O2    A    
C34   O7    A    
C16   C20   A    
C43   H18   S    
C35   C51   S    
C25   C32   A    
C45   O10   D    
Cu2   N2    S    
C40   H15   S    
C4    C53   S    
Cu2   O2    S    
C34   C41   S    
C22   C44   S    
C36   N1    A    
Cu1   O1    S    
C53   N8    T    
C39   C42   S    
C48   O12   D    
C10   C21   A    
C12   O4    A    
C43   O9    D    
C39   C40   S    
C19   H4    S    
C46   H20   S    
C11   C47   S    
C48   H21   S    
C39   H14   S    
C12   O3    A    
C2    H2    S    
C23   O5    A    
C26   N2    A    
C29   C30   A    
C2    C38   S    
C47   N4    T    
C8    C12   S    
C51   O13   D    
C17   C18   A    
C5    H17   S    
Cu2   O6    S    
C9    C45   S    
C46   O11   D    
C3    C40   S    
Cu1   O7    S    
Cu1   Cu2   S    
C40   C52   S    
C3    C4    S    
C1    O1    A    
C15   C17   A    
C5    H16   S    
C31   C36   A    
C4    C5    S    
C38   H6    S    
C10   C23   S    
C32   C33   A    
C19   C20   A    
C2    C3    S    
C29   C31   A    
C11   C13   A    
C50   N6    T    
Cu1   O3    S    
C21   C46   S    
C30   N2    A    
C51   H22   S    
C33   C35   A    
C17   C21   A    
C36   H10   S    
C9    C18   A    
C49   N5    T    
C1    C24   S    
C16   C24   A    
C13   C48   S    
C27   C28   A    
C14   C15   A    
Cu2   O4    S    
C13   C14   A    
C34   O8    A    
Cu1   N1    S    
C4    H3    S    
