data_mof_unit_48055.cif
_audit_creation_date              2012-10-26T18:33:39-0400
_audit_creation_method            fapswitch 2.2
_symmetry_space_group_name_H-M    P1
_symmetry_Int_Tables_number       1
_space_group_crystal_system       triclinic
_cell_length_a                    15.068014
_cell_length_b                    13.700063
_cell_length_c                    10.780012
_cell_angle_alpha                 90.35552
_cell_angle_beta                  89.953219
_cell_angle_gamma                 90.091531
_cell_volume                      2225.30102268

loop_
_atom_site_label
_atom_site_type_symbol
_atom_type_description
_atom_site_fract_x
_atom_site_fract_y
_atom_site_fract_z
_atom_type_partial_charge
C1    C     C_R   0.328716 0.499665 0.494979 0.581767
C2    C     C_R   0.048629 0.640839 0.627089 -0.073648
C3    C     C_R   0.093696 0.570412 0.557088 -0.015560
C4    C     C_R   0.500667 0.499881 0.259776 0.583829
C5    C     C_R   0.046290 0.499547 0.488780 0.024410
C6    C     C_R   0.092239 0.428341 0.417918 0.012492
C7    C     C_R   0.043324 0.359354 0.349396 -0.096461
C8    C     C_R   0.950771 0.359925 0.349489 0.122391
C9    C     C_R   0.185917 0.569480 0.556133 -0.130067
C10   C     C_R   0.232055 0.498693 0.488316 0.020075
C11   C     C_R   0.185875 0.428344 0.416572 0.064690
C12   C     C_3   0.590277 0.466500 0.924959 -0.215611
C13   C     C_R   0.430152 0.794091 0.549513 0.074075
C14   C     C_R   0.429484 0.206112 0.547610 0.084938
C15   C     C_R   0.570311 0.792340 0.449626 0.042277
C16   C     C_R   0.571474 0.207221 0.452865 0.058823
C17   C     C_R   0.574370 0.895697 0.450350 -0.036709
C18   C     C_R   0.574706 0.103799 0.451127 -0.030878
C19   C     C_R   0.671239 0.500054 0.499329 0.565070
C20   C     C_R   0.501887 0.948132 0.499667 0.024890
C21   C     C_R   0.501726 0.051722 0.499121 0.022900
C22   C     C_R   0.429075 0.896841 0.549697 0.006719
C23   C     C_R   0.812365 0.428595 0.428668 -0.105193
C24   C     C_R   0.428646 0.103326 0.548376 0.008865
C25   C     C_R   0.648338 0.947849 0.403372 0.154927
C26   C     C_R   0.649186 0.051110 0.405810 0.163351
C27   C     C_R   0.356664 0.051364 0.598101 -0.108384
C28   C     C_R   0.356935 0.949058 0.598933 -0.115362
C29   C     C_R   0.498166 0.500397 0.740332 0.588732
C30   C     C_3   0.481535 0.604920 0.074502 -0.209123
C31   C     C_3   0.424360 0.434491 0.073786 -0.206902
C32   C     C_3   0.483740 0.609047 0.931969 0.161311
C33   C     C_3   0.426207 0.426416 0.930811 0.151683
C34   C     C_R   0.767611 0.500149 0.496688 -0.011049
C35   C     C_3   0.593005 0.464455 0.069082 0.155327
C36   C     C_3   0.501139 0.500073 0.121973 -0.019230
C37   C     C_3   0.497683 0.501297 0.878199 0.020580
C38   C     C_3   0.883944 0.326189 0.151495 -0.275780
C39   C     C_3   0.721121 0.878735 0.223903 -0.255570
C40   C     C_3   0.789119 0.119418 0.469438 -0.280990
C41   C     C_3   0.898314 0.805775 0.649089 -0.293946
C42   C     C_R   0.814390 0.572287 0.561171 -0.135799
C43   C     C_R   0.907320 0.572020 0.562342 0.021458
C44   C     C_R   0.952861 0.500205 0.491243 0.010605
C45   C     C_R   0.904983 0.429167 0.422402 0.046957
C46   C     C_R   0.956116 0.642210 0.631238 0.144155
Cu1   Cu    Cu3+1 0.499990 0.597420 0.500010 0.993762
Cu2   Cu    Cu3+1 0.499990 0.402580 0.500010 1.017377
H1    H     H_    0.529326 0.658191 0.114501 0.186057
H2    H     H_    0.300164 0.089899 0.636609 0.131807
H3    H     H_    0.300602 0.910723 0.637960 0.123410
H4    H     H_    0.415451 0.628350 0.109728 0.154073
H5    H     H_    0.360015 0.465884 0.104901 0.157007
H6    H     H_    0.643835 0.513718 0.888187 0.158381
H7    H     H_    0.606507 0.393681 0.885804 0.174245
H8    H     H_    0.774338 0.373803 0.378778 0.173523
H9    H     H_    0.777208 0.627399 0.611168 0.137673
H10   H     H_    0.934850 0.223558 0.270368 0.253908
H11   H     H_    0.946062 0.339816 0.098604 0.159133
H12   H     H_    0.427958 0.361095 0.116477 0.210150
H13   H     H_    0.845011 0.394670 0.157340 0.209848
H14   H     H_    0.843961 0.270643 0.100994 0.177692
H15   H     H_    0.744973 0.839369 0.407189 0.233172
H16   H     H_    0.665921 0.827628 0.201717 0.160683
H17   H     H_    0.784596 0.845055 0.193696 0.166498
H18   H     H_    0.711874 0.947767 0.171925 0.188971
H19   H     H_    0.719421 0.158123 0.310060 0.267591
H20   H     H_    0.852745 0.147158 0.432150 0.161920
H21   H     H_    0.803225 0.051421 0.521551 0.167599
H22   H     H_    0.760823 0.175091 0.533529 0.136553
H23   H     H_    0.085478 0.694634 0.680475 0.141413
H24   H     H_    0.861306 0.688159 0.759807 0.268956
H25   H     H_    0.870071 0.858066 0.717544 0.159277
H26   H     H_    0.850508 0.796448 0.571574 0.139781
H27   H     H_    0.961441 0.836627 0.613005 0.159223
H28   H     H_    0.222271 0.623137 0.610536 0.144071
H29   H     H_    0.075573 0.304351 0.293378 0.157921
H30   H     H_    0.374890 0.754237 0.588457 0.145834
H31   H     H_    0.373998 0.246155 0.586113 0.162255
H32   H     H_    0.622826 0.749673 0.408399 0.144855
H33   H     H_    0.625938 0.249459 0.416830 0.149187
I1    I     I_    0.257095 0.327440 0.299100 -0.380660
I2    I     I_    0.366726 0.686757 0.869779 -0.343661
I3    I     I_    0.293433 0.440937 0.857271 -0.305380
I4    I     I_    0.588420 0.711727 0.879138 -0.355080
I5    I     I_    0.450981 0.273336 0.884628 -0.298966
I6    I     I_    0.701313 0.554622 0.136457 -0.426561
I7    I     I_    0.629730 0.319146 0.128422 -0.403860
N1    N     N_R   0.499930 0.743810 0.499950 -0.237534
N2    N     N_R   0.499930 0.256190 0.499950 -0.235502
N3    N     N_2   0.904460 0.290941 0.274260 -0.545077
N4    N     N_2   0.724233 0.898217 0.355812 -0.507382
N5    N     N_2   0.728296 0.099787 0.368520 -0.492103
N6    N     N_2   0.914317 0.713168 0.708498 -0.514819
O1    O     O_R   0.370250 0.582280 0.500040 -0.519099
O2    O     O_R   0.370250 0.417720 0.500040 -0.478065
O3    O     O_R   0.499970 0.582270 0.317700 -0.508961
O4    O     O_R   0.499970 0.417730 0.317700 -0.463691
O5    O     O_R   0.629730 0.582260 0.499980 -0.504499
O6    O     O_R   0.629730 0.417740 0.499980 -0.518465
O7    O     O_R   0.500000 0.582270 0.682320 -0.454897
O8    O     O_R   0.500000 0.417730 0.682320 -0.480579

loop_
_geom_bond_atom_site_label_1
_geom_bond_atom_site_label_2
_ccdc_geom_bond_type
C4    C36   S    
C16   N2    A    
C23   C45   A    
C4    O4    A    
C18   C21   A    
Cu1   N1    S    
C35   C36   S    
C18   C26   A    
C24   C27   A    
C40   N5    S    
C33   I5    S    
C7    C8    A    
C41   N6    S    
C2    C46   A    
C39   H16   S    
C40   H22   S    
Cu1   O7    S    
C5    C6    A    
C28   H3    S    
C15   N1    A    
C17   C20   A    
Cu1   O5    S    
C14   C24   A    
C12   C37   S    
C8    C45   A    
C14   N2    A    
C41   H26   S    
C35   I6    S    
Cu1   Cu2   S    
C34   C42   A    
H15   N4    S    
C29   O8    A    
C31   C33   S    
C9    H28   S    
H10   N3    S    
C27   H2    S    
C7    H29   S    
C38   H13   S    
H24   N6    S    
C26   N5    S    
C22   C28   A    
C4    O3    A    
C39   H17   S    
C42   H9    S    
C43   C46   A    
C11   I1    S    
Cu2   O6    S    
C40   H21   S    
C23   H8    S    
C6    C11   A    
C19   O5    A    
C25   C26   A    
C14   H31   S    
C38   N3    S    
C33   C37   S    
C31   H12   S    
C43   C44   A    
C3    C9    A    
C41   H27   S    
C35   I7    S    
C15   H32   S    
C46   N6    S    
C1    O1    A    
C23   C34   A    
Cu2   O8    S    
C29   O7    A    
C8    N3    S    
C32   C37   S    
C31   H5    S    
C12   C35   S    
C5    C44   A    
C20   C22   A    
C39   H18   S    
C42   C43   A    
C2    H23   S    
C39   N4    S    
C44   C45   A    
C9    C10   A    
C15   C17   A    
C32   I2    S    
C30   H4    S    
C13   H30   S    
C25   N4    S    
Cu2   O2    S    
C13   N1    A    
C30   H1    S    
C1    C10   S    
C3    C5    A    
C19   C34   S    
C19   O6    A    
C6    C7    A    
Cu2   O4    S    
Cu1   O3    S    
C30   C36   S    
C17   C25   A    
C2    C3    A    
C30   C32   S    
C1    O2    A    
C32   I4    S    
C16   H33   S    
C13   C22   A    
C33   I3    S    
C12   H7    S    
C10   C11   A    
C41   H25   S    
C38   H11   S    
C20   C21   A    
C16   C18   A    
C40   H20   S    
C21   C24   A    
C29   C37   S    
C27   C28   A    
H19   N5    S    
Cu1   O1    S    
C31   C36   S    
Cu2   N2    S    
C12   H6    S    
C38   H14   S    
