data_mof_unit_51465.cif
_audit_creation_date              2012-12-10T20:27:11-0500
_audit_creation_method            fapswitch 2.2
_symmetry_space_group_name_H-M    P1
_symmetry_Int_Tables_number       1
_space_group_crystal_system       triclinic
_cell_length_a                    10.761334
_cell_length_b                    10.677673
_cell_length_c                    9.860131
_cell_angle_alpha                 89.726223
_cell_angle_beta                  103.830034
_cell_angle_gamma                 90.220234
_cell_volume                      1100.12511024

loop_
_atom_site_label
_atom_site_type_symbol
_atom_type_description
_atom_site_fract_x
_atom_site_fract_y
_atom_site_fract_z
_atom_type_partial_charge
C1    C     C_R   0.506025 0.259916 0.501738 0.883837
C2    C     C_R   0.530660 0.128874 0.506714 -0.144703
C3    C     C_R   0.534278 0.065487 0.383190 -0.216192
C4    C     C_R   0.532355 0.936142 0.382227 -0.228582
C5    C     C_R   0.525852 0.871458 0.504462 -0.105373
C6    C     C_R   0.548383 0.935128 0.630784 0.098000
C7    C     C_3   0.483407 0.927513 0.748745 -0.482529
C8    C     C_3   0.493691 0.069934 0.754888 -0.053017
C9    C     C_R   0.435158 0.409527 0.054958 0.216748
C10   C     C_R   0.573784 0.581934 0.090826 -0.136534
C11   C     C_R   0.573981 0.581769 0.946821 -0.134306
C12   C     C_R   0.258867 0.504299 0.441823 0.947825
C13   C     C_R   0.434339 0.410239 0.912395 0.183393
C14   C     C_3   0.294150 0.384746 0.870923 -0.501526
C15   C     C_3   0.295166 0.383341 0.025219 -0.512341
C16   C     C_R   0.503743 0.740179 0.500523 0.880240
C17   C     C_R   0.741236 0.504528 0.558007 0.941507
C18   C     C_2   0.122181 0.520691 0.408437 -0.379149
C19   C     C_2   0.067925 0.555850 0.510000 -0.157416
C20   C     C_2   0.877936 0.522824 0.590207 -0.376698
C21   C     C_2   0.931583 0.553259 0.485993 -0.150167
C22   C     C_R   0.554009 0.063067 0.632781 0.135758
H1    H     H_    0.875609 0.564860 0.379099 0.184136
H2    H     H_    0.631263 0.649760 0.159852 0.139518
H3    H     H_    0.631782 0.649293 0.907143 0.140924
H4    H     H_    0.238953 0.464229 0.813605 0.212982
H5    H     H_    0.272213 0.291842 0.820373 0.193278
H6    H     H_    0.240114 0.461636 0.056250 0.218145
H7    H     H_    0.274576 0.289409 0.063906 0.196563
H8    H     H_    0.123724 0.575419 0.615071 0.176876
H9    H     H_    0.934481 0.510355 0.696622 0.150297
H10   H     H_    0.065960 0.501773 0.303281 0.148228
H11   H     H_    0.527759 0.114504 0.285266 0.169997
H12   H     H_    0.525502 0.888315 0.284030 0.169876
H13   H     H_    0.382922 0.893810 0.714022 0.179633
H14   H     H_    0.540864 0.876701 0.840795 0.205058
H15   H     H_    0.398477 0.116307 0.727963 0.133272
N1    N     N_R   0.499160 0.499140 0.142600 -0.102842
N2    N     N_R   0.499160 0.499180 0.856960 -0.104393
O1    O     O_R   0.500020 0.316790 0.614700 -0.625537
O2    O     O_R   0.500000 0.316760 0.385350 -0.618354
O3    O     O_R   0.317820 0.500020 0.571850 -0.613431
O4    O     O_R   0.317800 0.499980 0.342510 -0.615323
O5    O     O_R   0.500000 0.683240 0.614650 -0.619769
O6    O     O_R   0.499980 0.683210 0.385300 -0.627390
O7    O     O_R   0.682200 0.500020 0.657490 -0.617236
O8    O     O_R   0.682180 0.499980 0.428150 -0.617091
Zn1   Zn    Zn3+2 0.500010 0.500020 0.653140 0.932032
Zn2   Zn    Zn3+2 0.499990 0.499980 0.346860 0.936312
C23   C     C_3   0.583004 0.123364 0.889126 -0.342085
C24   C     C_3   0.720877 0.074278 0.924571 -0.848175
H16   H     H_    0.724324 0.972334 0.946745 0.246806
H17   H     H_    0.768042 0.094267 0.838205 0.258888
H18   H     H_    0.776272 0.122511 0.019557 0.239542
H19   H     H_    0.588225 0.226243 0.876824 0.218770
H20   H     H_    0.539570 0.104592 0.978763 0.191717

loop_
_geom_bond_atom_site_label_1
_geom_bond_atom_site_label_2
_ccdc_geom_bond_type
C16   O6    A    
C2    C22   A    
C1    O2    A    
C8    C22   S    
C17   O7    A    
C6    C7    S    
C14   H5    S    
C23   H20   S    
C7    H14   S    
C16   O5    A    
C23   H19   S    
O6    Zn2   S    
C10   N1    A    
C24   H18   S    
C23   C24   S    
C9    C15   S    
C7    C8    S    
O8    Zn2   S    
N1    Zn2   S    
O3    Zn1   S    
C13   C14   S    
C14   H4    S    
C11   N2    A    
C15   H6    S    
O2    Zn2   S    
C9    N1    A    
C19   C21   S    
C15   H7    S    
C12   O4    A    
C2    C3    A    
C21   H1    S    
C5    C6    A    
C4    H12   S    
C13   N2    A    
C18   H10   S    
C10   C11   A    
C3    H11   S    
C24   H17   S    
C12   O3    A    
C24   H16   S    
C6    C22   A    
O7    Zn1   S    
C8    C23   S    
C17   C20   S    
O5    Zn1   S    
C20   C21   D    
C1    C2    S    
C8    H15   S    
C12   C18   S    
O1    Zn1   S    
C11   H3    S    
C14   C15   S    
C18   C19   D    
C5    C16   S    
C9    C13   A    
C1    O1    A    
C10   H2    S    
C19   H8    S    
C7    H13   S    
O4    Zn2   S    
C3    C4    A    
C17   O8    A    
C4    C5    A    
N2    Zn1   S    
C20   H9    S    
