data_mof_unit_14631.cif
_audit_creation_date              2012-12-10T17:57:53-0500
_audit_creation_method            fapswitch 2.2
_symmetry_space_group_name_H-M    P1
_symmetry_Int_Tables_number       1
_space_group_crystal_system       triclinic
_cell_length_a                    10.81841
_cell_length_b                    9.516873
_cell_length_c                    15.016847
_cell_angle_alpha                 90.171343
_cell_angle_beta                  90.03129
_cell_angle_gamma                 90.114667
_cell_volume                      1546.08578905

loop_
_atom_site_label
_atom_site_type_symbol
_atom_type_description
_atom_site_fract_x
_atom_site_fract_y
_atom_site_fract_z
_atom_type_partial_charge
C1    C     C_R   0.262071 0.499918 0.499876 0.785680
C2    C     C_R   0.737929 0.500077 0.499978 0.784674
C3    C     C_R   0.344709 0.684162 0.047653 -0.292175
C4    C     C_R   0.664421 0.325204 0.952415 -0.309375
C5    C     C_R   0.063648 0.372219 0.498815 -0.188880
C6    C     C_R   0.936354 0.627763 0.500622 -0.184492
C7    C     C_R   0.935861 0.372311 0.498890 -0.193028
C8    C     C_R   0.064140 0.627672 0.500543 -0.187527
C9    C     C_R   0.871762 0.500088 0.499837 -0.018131
C10   C     C_R   0.128239 0.499897 0.499722 -0.016223
C11   C     C_R   0.422709 0.073992 0.445049 -0.020900
C12   C     C_R   0.577242 0.926008 0.554987 -0.027998
C13   C     C_R   0.577243 0.074856 0.554990 -0.025227
C14   C     C_R   0.422711 0.925144 0.445045 -0.020185
C15   C     C_R   0.500127 0.499837 0.328773 0.803483
C16   C     C_R   0.499930 0.500239 0.671237 0.807232
C17   C     C_R   0.579121 0.410036 0.813563 -0.215899
C18   C     C_R   0.423949 0.592531 0.186470 -0.208010
C19   C     C_R   0.500788 0.501226 0.767766 -0.069088
C20   C     C_R   0.501004 0.499961 0.232263 -0.070778
C21   C     C_R   0.424740 0.595140 0.813854 -0.229955
C22   C     C_R   0.580494 0.409782 0.186190 -0.232626
C23   C     C_R   0.424878 0.597644 0.906950 0.013832
C24   C     C_R   0.585501 0.413186 0.093135 0.012755
C25   C     C_R   0.504806 0.505685 0.953331 0.001321
C26   C     C_R   0.505125 0.504623 0.046725 -0.007906
C27   C     C_R   0.583254 0.413247 0.906273 0.064703
C28   C     C_R   0.424195 0.594228 0.093759 0.068500
C29   C     C_R   0.346530 0.689320 0.954716 0.446519
C30   C     C_R   0.669102 0.327654 0.045374 0.456200
Cu1   Cu    Cu3+1 0.500000 0.640660 0.500000 0.940761
Cu2   Cu    Cu3+1 0.500000 0.359340 0.500000 0.940608
H1    H     H_    0.638478 0.338767 0.776787 0.133115
H2    H     H_    0.362612 0.661625 0.223237 0.131733
H3    H     H_    0.364223 0.664121 0.776667 0.171512
H4    H     H_    0.639874 0.339496 0.223350 0.172634
H5    H     H_    0.281131 0.751208 0.083796 0.153492
H6    H     H_    0.725146 0.254758 0.916307 0.157225
H7    H     H_    0.111550 0.272371 0.498069 0.148084
H8    H     H_    0.888455 0.727612 0.501367 0.149097
H9    H     H_    0.887574 0.272483 0.498220 0.149256
H10   H     H_    0.112425 0.727501 0.501206 0.148003
H11   H     H_    0.360794 0.129764 0.401039 0.118363
H12   H     H_    0.639121 0.870238 0.599022 0.119829
H13   H     H_    0.639114 0.131316 0.599042 0.115200
H14   H     H_    0.360808 0.868685 0.401016 0.114155
N1    N     N_R   0.500000 0.852070 0.500000 -0.157155
N2    N     N_R   0.500000 0.147930 0.500000 -0.157173
O1    O     O_R   0.319640 0.618740 0.499990 -0.592331
O2    O     O_R   0.680360 0.381260 0.500010 -0.591744
O3    O     O_R   0.680360 0.618740 0.500010 -0.586998
O4    O     O_R   0.319640 0.381260 0.499990 -0.588821
O5    O     O_R   0.499970 0.618800 0.370260 -0.579062
O6    O     O_R   0.500030 0.381200 0.629740 -0.581099
O7    O     O_R   0.500030 0.618800 0.629740 -0.585007
O8    O     O_R   0.499970 0.381200 0.370260 -0.581310
O9    O     O_3   0.264320 0.776899 0.911303 -0.614301
C31   C     C_3   0.323535 0.905237 0.889756 0.044320
H15   H     H_    0.280877 0.944717 0.827356 0.170323
H16   H     H_    0.424387 0.893533 0.875587 0.127836
C32   C     C_3   0.303130 0.014613 0.963452 -0.360741
H17   H     H_    0.202685 0.024257 0.977737 0.230144
H18   H     H_    0.350924 0.980726 0.025192 0.215139
C33   C     C_3   0.353846 0.157901 0.936459 -0.880263
H19   H     H_    0.453248 0.148916 0.919255 0.265024
H20   H     H_    0.344053 0.233007 0.992724 0.258897
H21   H     H_    0.302437 0.199334 0.878154 0.256379
O10   O     O_3   0.751382 0.239891 0.088621 -0.613287
C34   C     C_3   0.858835 0.316502 0.112929 0.040910
H22   H     H_    0.897485 0.266729 0.173678 0.168598
H23   H     H_    0.839555 0.428238 0.131054 0.128910
C35   C     C_3   0.956458 0.309511 0.038969 -0.354011
H24   H     H_    0.974479 0.197910 0.021295 0.227874
H25   H     H_    0.921827 0.364375 0.978781 0.215766
C36   C     C_3   0.077505 0.378736 0.067978 -0.891041
H26   H     H_    0.061730 0.490499 0.086179 0.260216
H27   H     H_    0.144937 0.374913 0.012311 0.263440
H28   H     H_    0.117400 0.322527 0.125963 0.251010

loop_
_geom_bond_atom_site_label_1
_geom_bond_atom_site_label_2
_ccdc_geom_bond_type
C32   C33   S    
C6    C9    A    
C14   H14   S    
C15   O5    A    
C3    C28   A    
C19   C21   A    
C8    H10   S    
C35   C36   S    
C11   C14   A    
C31   H16   S    
C34   H23   S    
C3    C29   A    
Cu2   O4    S    
C2    O2    A    
O10   C34   S    
C11   H11   S    
C18   C20   A    
C31   C32   S    
C7    H9    S    
Cu1   N1    S    
Cu2   N2    S    
C11   N2    A    
C34   H22   S    
C17   H1    S    
Cu1   O1    S    
C12   N1    A    
Cu2   O6    S    
C36   H28   S    
C16   O6    A    
C15   C20   S    
C17   C27   A    
C33   H21   S    
C18   C28   A    
C35   H25   S    
Cu1   O3    S    
C5    C7    A    
C6    C8    A    
C25   C26   A    
C4    C30   A    
C33   H20   S    
C34   C35   S    
C36   H26   S    
C36   H27   S    
Cu1   Cu2   S    
C32   H18   S    
Cu1   O5    S    
C18   H2    S    
Cu2   O2    S    
C20   C22   A    
C21   C23   A    
C6    H8    S    
C23   C29   A    
C4    C27   A    
C7    C9    A    
C1    C10   S    
C24   C26   A    
C29   O9    S    
C35   H24   S    
C13   N2    A    
C14   N1    A    
C21   H3    S    
C25   C27   A    
C22   H4    S    
C26   C28   A    
C15   O8    A    
C5    H7    S    
C31   H15   S    
C16   O7    A    
C5    C10   A    
C12   H12   S    
C33   H19   S    
C13   H13   S    
O9    C31   S    
C16   C19   S    
C17   C19   A    
C22   C24   A    
C23   C25   A    
C32   H17   S    
C1    O4    A    
C24   C30   A    
C2    O3    A    
C12   C13   A    
C3    H5    S    
C8    C10   A    
Cu1   O7    S    
C4    H6    S    
C2    C9    S    
C1    O1    A    
Cu2   O8    S    
C30   O10   S    
