data_mof_unit_46573.cif
_audit_creation_date              2012-12-10T20:21:41-0500
_audit_creation_method            fapswitch 2.2
_symmetry_space_group_name_H-M    P1
_symmetry_Int_Tables_number       1
_space_group_crystal_system       triclinic
_cell_length_a                    19.08547
_cell_length_b                    18.589339
_cell_length_c                    8.889918
_cell_angle_alpha                 90.171748
_cell_angle_beta                  92.431548
_cell_angle_gamma                 91.331155
_cell_volume                      3150.3055763

loop_
_atom_site_label
_atom_site_type_symbol
_atom_type_description
_atom_site_fract_x
_atom_site_fract_y
_atom_site_fract_z
_atom_type_partial_charge
C1    C     C_R   0.365615 0.499299 0.510597 0.879163
C2    C     C_R   0.635293 0.501062 0.494085 0.909358
C3    C     C_R   0.531357 0.728270 0.618495 0.077660
C4    C     C_R   0.471444 0.270928 0.379401 0.054016
C5    C     C_R   0.468701 0.726812 0.382010 0.090640
C6    C     C_R   0.529547 0.273587 0.620834 0.067147
C7    C     C_R   0.529931 0.804003 0.621622 -0.235546
C8    C     C_R   0.472522 0.195159 0.378881 -0.237401
C9    C     C_R   0.470091 0.802637 0.380055 -0.226390
C10   C     C_R   0.528125 0.197755 0.624471 -0.226879
C11   C     C_R   0.500005 0.842286 0.501178 0.298791
C12   C     C_R   0.500051 0.157550 0.502532 0.298481
C13   C     C_R   0.438231 0.960676 0.465338 0.522849
C14   C     C_R   0.561691 0.039306 0.540443 0.517603
C15   C     C_R   0.561738 0.963639 0.539564 0.505566
C16   C     C_R   0.438261 0.036332 0.465792 0.510839
C17   C     C_R   0.499980 0.076761 0.503343 -0.375319
C18   C     C_R   0.499998 0.923149 0.501986 -0.371727
C19   C     C_R   0.499760 0.499933 0.218651 0.973107
C20   C     C_R   0.500308 0.500076 0.781351 0.937408
C21   C     C_1   0.499904 0.499915 0.065404 -0.160931
C22   C     C_1   0.500110 0.500108 0.934580 -0.176063
C23   C     C_R   0.753011 0.441362 0.508776 -0.121599
C24   C     C_R   0.271868 0.551374 0.663112 -0.053520
C25   C     C_R   0.243971 0.444229 0.507547 -0.108125
C26   C     C_R   0.748464 0.573426 0.508905 -0.089777
C27   C     C_R   0.825070 0.446531 0.550722 -0.020495
C28   C     C_R   0.200939 0.555583 0.699972 -0.006273
C29   C     C_R   0.174019 0.445697 0.551259 -0.015069
C30   C     C_R   0.817819 0.578192 0.567756 -0.056638
C31   C     C_R   0.856280 0.514690 0.585374 0.231990
C32   C     C_R   0.152489 0.504119 0.638527 0.142705
C33   C     C_R   0.713384 0.504982 0.497585 -0.139548
C34   C     C_R   0.292464 0.498443 0.558970 -0.202964
C35   C     C_R   0.973200 0.551183 0.501319 0.564511
C36   C     C_R   0.037346 0.489242 0.757615 0.512634
C37   C     C_R   0.045561 0.550529 0.517094 0.562308
C38   C     C_R   0.964468 0.491591 0.743782 0.581359
C39   C     C_R   0.077551 0.517505 0.642519 -0.515939
C40   C     C_R   0.932441 0.520669 0.613304 -0.330735
H1    H     H_    0.553240 0.833148 0.717769 0.179154
H2    H     H_    0.451101 0.165377 0.281720 0.178187
H3    H     H_    0.446792 0.830713 0.284324 0.180876
H4    H     H_    0.550150 0.170065 0.722057 0.176796
N1    N     N_R   0.500000 0.689440 0.500000 -0.104210
N2    N     N_R   0.500000 0.310560 0.500000 -0.118783
O1    O     O_R   0.398180 0.560840 0.499960 -0.542168
O2    O     O_R   0.601820 0.439160 0.500040 -0.599694
O3    O     O_R   0.601820 0.560840 0.500040 -0.550973
O4    O     O_R   0.398180 0.439160 0.499960 -0.617270
O5    O     O_R   0.500000 0.560800 0.285330 -0.610413
O6    O     O_R   0.500000 0.439200 0.714670 -0.615809
O7    O     O_R   0.500000 0.560800 0.714670 -0.617240
O8    O     O_R   0.500000 0.439200 0.285330 -0.608354
Zn1   Zn    Zn3+2 0.500000 0.581210 0.500000 1.066891
Zn2   Zn    Zn3+2 0.500000 0.418790 0.500000 1.016401
C41   C     C_2   0.721031 0.371057 0.458152 0.522039
H5    H     H_    0.687342 0.368592 0.356683 0.074001
O9    O     O_2   0.729955 0.316171 0.530755 -0.519736
C42   C     C_2   0.325599 0.598288 0.742077 0.561193
H6    H     H_    0.358144 0.576622 0.833289 0.005689
O10   O     O_2   0.335160 0.660367 0.701870 -0.462483
C43   C     C_2   0.264966 0.388366 0.401092 0.623002
H7    H     H_    0.300233 0.346757 0.439601 0.108697
O11   O     O_2   0.241478 0.387809 0.271187 -0.465422
C44   C     C_2   0.714691 0.640296 0.453552 0.517927
H8    H     H_    0.717666 0.689074 0.521032 0.074084
O12   O     O_2   0.684776 0.641616 0.329410 -0.533361
C45   C     C_2   0.868653 0.381110 0.550476 0.514422
H9    H     H_    0.852928 0.333444 0.611479 0.158527
O13   O     O_2   0.922159 0.379814 0.480085 -0.552257
C46   C     C_2   0.175639 0.612248 0.803304 0.528376
H10   H     H_    0.127097 0.603677 0.860508 0.118380
O14   O     O_2   0.207101 0.669567 0.823515 -0.463292
C47   C     C_2   0.122075 0.387252 0.504986 0.571183
H11   H     H_    0.066512 0.397879 0.494766 0.106071
O15   O     O_2   0.140343 0.325699 0.483361 -0.496764
C48   C     C_2   0.850964 0.650025 0.605486 0.501440
H12   H     H_    0.837706 0.697207 0.539824 0.081882
O16   O     O_2   0.892691 0.657392 0.712716 -0.503396
F1    F     F_    0.942688 0.578023 0.373206 -0.565716
F2    F     F_    0.068622 0.456642 0.878396 -0.556248
F3    F     F_    0.084666 0.577287 0.405018 -0.545414
F4    F     F_    0.925085 0.462533 0.852857 -0.563744
C49   C     C_2   0.567931 0.694033 0.747583 0.481348
H13   H     H_    0.558584 0.712308 0.860924 0.043904
O17   O     O_2   0.612684 0.649550 0.729473 -0.550344
C50   C     C_2   0.439195 0.303966 0.243968 0.488988
H14   H     H_    0.450617 0.283208 0.133605 0.027441
O18   O     O_2   0.395712 0.350418 0.253100 -0.537169
C51   C     C_2   0.432329 0.690788 0.252319 0.529428
H15   H     H_    0.443628 0.707873 0.139050 0.018312
O19   O     O_2   0.385651 0.646157 0.269666 -0.493866
C52   C     C_2   0.564882 0.309870 0.751422 0.538101
H16   H     H_    0.552702 0.292977 0.864332 0.001871
O20   O     O_2   0.611667 0.354533 0.735431 -0.502531
F5    F     F_    0.377030 0.924077 0.433042 -0.555345
F6    F     F_    0.622785 0.076025 0.573170 -0.564871
F7    F     F_    0.622960 0.929970 0.571168 -0.578790
F8    F     F_    0.377187 0.070123 0.433300 -0.566141

loop_
_geom_bond_atom_site_label_1
_geom_bond_atom_site_label_2
_ccdc_geom_bond_type
C15   C18   A    
C44   O12   D    
C43   O11   D    
C11   C18   S    
C3    C49   S    
O2    Zn2   S    
C4    C8    A    
C35   F1    S    
C4    N2    A    
C49   H13   S    
C7    C11   A    
C13   C18   A    
C35   C37   A    
C8    H2    S    
C29   C32   A    
C3    C7    A    
C45   H9    S    
C30   C31   A    
C48   O16   D    
C41   O9    D    
C31   C40   S    
C42   O10   D    
C25   C43   S    
C32   C39   S    
C45   O13   D    
C36   F2    S    
C16   C17   A    
C23   C33   A    
C12   C17   S    
C23   C27   A    
C1    O4    A    
C27   C45   S    
C24   C42   S    
C25   C34   A    
O7    Zn1   S    
C44   H8    S    
C21   C22   T    
C14   C17   A    
C28   C46   S    
C1    O1    A    
C1    C34   S    
C14   F6    S    
C49   O17   D    
C25   C29   A    
O8    Zn2   S    
C9    H3    S    
C10   H4    S    
C26   C44   S    
C28   C32   A    
C46   O14   D    
C15   F7    S    
C51   H15   S    
C48   H12   S    
C46   H10   S    
C2    O2    A    
O3    Zn1   S    
C5    N1    A    
C3    N1    A    
O4    Zn2   S    
C42   H6    S    
C47   H11   S    
C5    C9    A    
C2    O3    A    
C51   O19   D    
C9    C11   A    
C26   C33   A    
C8    C12   A    
C52   O20   D    
C47   O15   D    
C5    C51   S    
C10   C12   A    
C29   C47   S    
C2    C33   S    
C50   O18   D    
C26   C30   A    
C27   C31   A    
C19   O8    A    
O1    Zn1   S    
C23   C41   S    
C6    N2    A    
C38   F4    S    
C36   C39   A    
C16   F8    S    
C24   C28   A    
C20   C22   S    
C20   O7    A    
C6    C10   A    
C4    C50   S    
C36   C38   A    
C35   C40   A    
C37   C39   A    
C38   C40   A    
C6    C52   S    
C41   H5    S    
O5    Zn1   S    
C7    H1    S    
C13   F5    S    
C52   H16   S    
C24   C34   A    
C43   H7    S    
C30   C48   S    
C19   O5    A    
C50   H14   S    
N1    Zn1   S    
C20   O6    A    
C13   C16   A    
N2    Zn2   S    
C14   C15   A    
C37   F3    S    
O6    Zn2   S    
C19   C21   S    
