data_mof_unit_46815.cif
_audit_creation_date              2012-12-11T16:20:00-0500
_audit_creation_method            fapswitch 2.2
_symmetry_space_group_name_H-M    P1
_symmetry_Int_Tables_number       1
_space_group_crystal_system       triclinic
_cell_length_a                    13.488774
_cell_length_b                    14.040781
_cell_length_c                    30.090468
_cell_angle_alpha                 97.873991
_cell_angle_beta                  90.039848
_cell_angle_gamma                 118.719666
_cell_volume                      4936.18906771

loop_
_atom_site_label
_atom_site_type_symbol
_atom_type_description
_atom_site_fract_x
_atom_site_fract_y
_atom_site_fract_z
_atom_type_partial_charge
C1    C     C_R   0.721007 0.098981 0.568848 0.543703
C2    C     C_R   0.345463 0.676092 0.677180 0.029552
C3    C     C_R   0.253419 0.674597 0.655183 -0.110510
C4    C     C_R   0.262312 0.702561 0.612157 -0.106367
C5    C     C_R   0.255555 0.661938 0.833588 -0.150216
C6    C     C_R   0.238270 0.637763 0.877198 -0.124438
C7    C     C_R   0.388145 0.588827 0.873580 -0.131244
C8    C     C_R   0.405440 0.612129 0.829667 0.254628
C9    C     C_R   0.336006 0.645780 0.809312 0.032150
C10   C     C_1   0.340251 0.656587 0.762714 0.052615
C11   C     C_1   0.342521 0.664252 0.723533 0.013343
C12   C     C_R   0.383623 0.788727 0.551291 0.551543
C13   C     C_R   0.301723 0.597348 0.896975 -0.022153
C14   C     C_3   0.289163 0.039127 0.716836 0.183076
C15   C     C_3   0.255633 0.205849 0.715049 -0.220860
C16   C     C_3   0.242016 0.210275 0.766337 -0.218450
C17   C     C_1   0.296752 0.198383 0.877113 -0.009273
C18   C     C_3   0.332067 0.153967 0.700920 0.056640
C19   C     C_3   0.271682 0.046775 0.768121 -0.189996
C20   C     C_3   0.314619 0.168519 0.788744 0.026002
C21   C     C_3   0.439934 0.238420 0.778198 -0.225914
C22   C     C_3   0.449955 0.232351 0.726617 -0.257874
C23   C     C_R   0.397369 0.118786 0.569266 0.558094
C24   C     C_1   0.305414 0.180237 0.837521 -0.063383
C25   C     C_1   0.345480 0.145842 0.652368 -0.037845
C26   C     C_1   0.364661 0.136200 0.613476 0.001492
C27   C     C_3   0.713733 0.154157 0.725748 -0.225441
C28   C     C_3   0.922124 0.278777 0.720689 -0.186048
C29   C     C_3   0.945304 0.287091 0.772186 0.183465
C30   C     C_1   0.897750 0.204496 0.878729 -0.006333
C31   C     C_3   0.820418 0.164516 0.702449 0.034287
C32   C     C_3   0.729611 0.159783 0.777209 -0.227541
C33   C     C_3   0.851414 0.183242 0.790616 0.062470
C34   C     C_R   0.719740 0.094948 0.442619 0.537045
C35   C     C_3   0.860862 0.082806 0.766567 -0.260563
C36   C     C_3   0.845204 0.073612 0.714709 -0.237732
C37   C     C_1   0.871222 0.193575 0.839448 -0.041385
C38   C     C_1   0.798835 0.150650 0.653553 -0.069563
C39   C     C_1   0.770337 0.131846 0.614065 -0.015645
C40   C     C_3   0.322675 0.771918 0.270294 -0.216920
C41   C     C_3   0.255248 0.571014 0.270914 -0.211478
C42   C     C_3   0.247005 0.551370 0.218766 -0.211858
C43   C     C_1   0.308321 0.606676 0.111132 -0.021699
C44   C     C_3   0.350069 0.688900 0.289147 0.064902
C45   C     C_R   0.382338 0.784505 0.424821 0.558434
C46   C     C_3   0.314660 0.752340 0.218163 -0.213715
C47   C     C_3   0.336232 0.655541 0.200583 0.066825
C48   C     C_3   0.455672 0.683487 0.219419 -0.215447
C49   C     C_3   0.463865 0.703235 0.271664 -0.213679
C50   C     C_1   0.325782 0.634239 0.151225 -0.075746
C51   C     C_1   0.357996 0.710042 0.338479 -0.067715
C52   C     C_1   0.366847 0.737134 0.378563 -0.002865
C53   C     C_R   0.357774 0.129061 0.399877 0.013031
C54   C     C_R   0.392808 0.233777 0.387351 0.237803
C55   C     C_R   0.380209 0.241008 0.341915 -0.093974
C56   C     C_R   0.395677 0.114636 0.443120 0.578142
C57   C     C_R   0.331522 0.146029 0.309697 -0.002754
C58   C     C_R   0.287882 0.042713 0.322541 -0.137829
C59   C     C_R   0.300370 0.034133 0.367320 -0.176088
C60   C     C_R   0.240949 0.093331 0.147996 -0.115627
C61   C     C_R   0.231703 0.112402 0.104386 -0.127198
C62   C     C_R   0.414667 0.278292 0.118234 -0.128165
C63   C     C_R   0.423594 0.259008 0.161857 -0.118066
C64   C     C_R   0.334833 0.168835 0.177111 0.036618
C65   C     C_1   0.334428 0.160095 0.223710 -0.031367
C66   C     C_1   0.332599 0.154147 0.263019 -0.027802
C67   C     C_R   0.363933 0.733085 0.590993 0.024544
C68   C     C_R   0.316164 0.207794 0.089840 0.020286
C69   C     C_R   0.779123 0.132074 0.402244 0.019814
C70   C     C_R   0.800856 0.060198 0.371784 -0.123523
C71   C     C_R   0.829631 0.083388 0.328586 -0.114439
C72   C     C_R   0.837797 0.178745 0.315762 0.037325
C73   C     C_R   0.825500 0.254996 0.346907 -0.108112
C74   C     C_R   0.796724 0.232071 0.390107 -0.116166
C75   C     C_R   0.893335 0.304830 0.168085 -0.121418
C76   C     C_R   0.915594 0.312455 0.123109 -0.132522
C77   C     C_R   0.854052 0.116970 0.108240 -0.125991
C78   C     C_R   0.453058 0.726674 0.612204 -0.125427
C79   C     C_R   0.831322 0.109513 0.153135 -0.114368
C80   C     C_R   0.854974 0.204126 0.183284 0.039733
C81   C     C_1   0.849680 0.199042 0.230284 -0.033443
C82   C     C_1   0.846148 0.191933 0.269528 -0.033052
C83   C     C_R   0.900917 0.219419 0.093294 0.021565
C84   C     C_R   0.283800 0.232564 0.922592 0.546272
C85   C     C_R   0.266280 0.546863 0.937956 0.548592
C86   C     C_R   0.945591 0.222149 0.923412 0.546233
C87   C     C_R   0.292683 0.243119 0.049192 0.540903
C88   C     C_R   0.275041 0.558415 0.064999 0.544858
C89   C     C_R   0.443871 0.698644 0.655268 -0.103985
C90   C     C_R   0.954166 0.233236 0.050353 0.540230
Cr1   Cr    Cr6+3 0.583400 0.162540 0.509180 1.081161
Cr2   Cr    Cr6+3 0.584070 0.916690 0.495550 1.043930
Cr3   Cr    Cr6+3 0.332550 0.920810 0.495240 1.034947
Cr4   Cr    Cr6+3 0.086700 0.177000 0.983690 1.018571
Cr5   Cr    Cr6+3 0.336880 0.419130 0.994740 1.022354
Cr6   Cr    Cr6+3 0.084850 0.422220 0.995960 1.022099
H1    H     H_    0.171466 0.645349 0.894519 0.134951
H2    H     H_    0.295556 0.291056 0.707044 0.162114
H3    H     H_    0.171756 0.162599 0.695890 0.087984
H4    H     H_    0.151196 0.159471 0.772226 0.092865
H5    H     H_    0.268089 0.296350 0.781903 0.168638
H6    H     H_    0.511341 0.203038 0.716866 0.092595
H7    H     H_    0.485096 0.316275 0.717527 0.173740
H8    H     H_    0.493368 0.208150 0.792828 0.104835
H9    H     H_    0.361697 0.022138 0.713483 0.136010
H10   H     H_    0.320239 0.014297 0.784868 0.090088
H11   H     H_    0.202702 0.688755 0.818049 0.109754
H12   H     H_    0.473146 0.325666 0.793901 0.208921
H13   H     H_    0.707981 0.220244 0.795683 0.092575
H14   H     H_    0.697249 0.221349 0.718943 0.106083
H15   H     H_    0.998763 0.289483 0.703225 0.095672
H16   H     H_    0.905478 0.345067 0.712870 0.127019
H17   H     H_    0.024444 0.281206 0.775371 0.135792
H18   H     H_    0.774033 0.990949 0.700808 0.135911
H19   H     H_    0.923219 0.081150 0.699340 0.107438
H20   H     H_    0.795521 0.005595 0.777489 0.148754
H21   H     H_    0.176918 0.657007 0.672091 0.114538
H22   H     H_    0.637830 0.074992 0.711656 0.123850
H23   H     H_    0.666941 0.079454 0.786673 0.123961
H24   H     H_    0.944659 0.090727 0.775831 0.097335
H25   H     H_    0.229174 0.734199 0.205081 0.114167
H26   H     H_    0.241032 0.763286 0.282174 0.110411
H27   H     H_    0.273240 0.509765 0.283745 0.129027
H28   H     H_    0.172481 0.558683 0.282929 0.119734
H29   H     H_    0.160085 0.529320 0.205810 0.115282
H30   H     H_    0.260580 0.480278 0.206590 0.124831
H31   H     H_    0.533589 0.787624 0.284399 0.117625
H32   H     H_    0.192210 0.706657 0.596692 0.141166
H33   H     H_    0.485458 0.644271 0.284505 0.117612
H34   H     H_    0.521415 0.758309 0.207119 0.113934
H35   H     H_    0.389663 0.857649 0.283013 0.120295
H36   H     H_    0.378020 0.828404 0.205882 0.120147
H37   H     H_    0.473124 0.614890 0.207218 0.115489
H38   H     H_    0.155133 0.056367 0.083195 0.127037
H39   H     H_    0.172175 0.023092 0.159733 0.107650
H40   H     H_    0.249263 0.968894 0.297628 0.113930
H41   H     H_    0.272332 0.952858 0.375738 0.144628
H42   H     H_    0.532369 0.749838 0.596793 0.139322
H43   H     H_    0.496695 0.317509 0.184382 0.108148
H44   H     H_    0.481225 0.352211 0.107914 0.130324
H45   H     H_    0.411428 0.320639 0.331346 0.124756
H46   H     H_    0.952163 0.392584 0.112613 0.130443
H47   H     H_    0.911619 0.378331 0.191390 0.102508
H48   H     H_    0.832027 0.329127 0.337097 0.117186
H49   H     H_    0.781098 0.289288 0.412928 0.150798
H50   H     H_    0.788030 0.982670 0.380168 0.134743
H51   H     H_    0.801044 0.031163 0.164808 0.104676
H52   H     H_    0.841637 0.044019 0.085970 0.125935
H53   H     H_    0.839278 0.024120 0.304475 0.107720
H54   H     H_    0.437507 0.557532 0.888448 0.164881
H55   H     H_    0.515359 0.699720 0.672264 0.149342
H56   H     H_    0.181769 0.995433 0.774879 0.125054
O1    O     O_R   0.494060 0.188820 0.559230 -0.491603
O2    O     O_R   0.480140 0.824500 0.445020 -0.485445
O3    O     O_R   0.308480 0.808690 0.440220 -0.514934
O4    O     O_R   0.340970 0.020670 0.455610 -0.518054
O5    O     O_3   0.500010 0.000010 0.499990 -0.263627
O6    O     O_R   0.969690 0.151000 0.934080 -0.508705
O7    O     O_R   0.187530 0.180840 0.938210 -0.496670
O8    O     O_R   0.358160 0.327300 0.941250 -0.504513
O9    O     O_R   0.323950 0.507710 0.953980 -0.504974
O10   O     O_R   0.170530 0.527770 0.952070 -0.509152
O11   O     O_R   0.987720 0.318450 0.945940 -0.489953
O12   O     O_R   0.678470 0.153390 0.554100 -0.496201
O13   O     O_R   0.976400 0.159230 0.032040 -0.518520
O14   O     O_R   0.193740 0.188470 0.029020 -0.503268
O15   O     O_R   0.364860 0.335530 0.039220 -0.518202
O16   O     O_R   0.330170 0.515340 0.044800 -0.494718
O17   O     O_R   0.177230 0.536000 0.050040 -0.514467
O18   O     O_R   0.993930 0.326080 0.036750 -0.504185
O19   O     O_3   0.169480 0.339450 0.991460 -0.242733
O20   O     O_R   0.697870 0.003940 0.549410 -0.509815
O21   O     O_R   0.480980 0.827230 0.535590 -0.496439
O22   O     O_R   0.309390 0.811640 0.537920 -0.512131
O23   O     O_R   0.341810 0.023400 0.546180 -0.492381
O24   O     O_R   0.493150 0.185870 0.461540 -0.436702
O25   O     O_R   0.677630 0.150660 0.463530 -0.502558
O26   O     O_R   0.696960 0.000990 0.451710 -0.514747
O27   O     O_3   0.199409 0.946004 0.689587 -0.576374
C91   C     C_3   0.096574 0.949132 0.686175 0.018792
H57   H     H_    0.096522 0.989779 0.656990 0.147580
H58   H     H_    0.081462 0.992066 0.716983 0.120061
C92   C     C_3   0.998515 0.831241 0.677481 -0.258526
H59   H     H_    0.007825 0.787929 0.645288 0.175512
H60   H     H_    0.001037 0.787096 0.705083 0.169110
C93   C     C_3   0.884133 0.828559 0.674989 -0.480187
H61   H     H_    0.870980 0.866728 0.707686 0.153921
H62   H     H_    0.815063 0.741983 0.667464 0.168931
H63   H     H_    0.879882 0.873381 0.647987 0.147526
O28   O     O_3   0.976020 0.392270 0.797404 -0.568847
C94   C     C_3   0.886259 0.416964 0.801835 0.024469
H64   H     H_    0.841095 0.385103 0.831814 0.147419
H65   H     H_    0.825623 0.383122 0.771593 0.122686
C95   C     C_3   0.935544 0.541706 0.809528 -0.277316
H66   H     H_    0.993465 0.577840 0.840680 0.169717
H67   H     H_    0.985035 0.576030 0.780706 0.164286
C96   C     C_3   0.842245 0.573665 0.814214 -0.458046
H68   H     H_    0.784214 0.540142 0.783108 0.185854
H69   H     H_    0.880785 0.664636 0.819843 0.155192
H70   H     H_    0.792813 0.541592 0.843307 0.170265
S1    S     S_3+6 0.452692 0.356607 0.426780 0.024315
O29   O     O_2   0.399187 0.335104 0.470692 -0.234420
O30   O     O_2   0.577959 0.398790 0.434612 -0.290846
O31   O     O_3   0.431260 0.452613 0.407321 -0.516898
H71   H     H_    0.496768 0.491651 0.389586 0.336700
S2    S     S_3+6 0.508876 0.591991 0.799979 -0.036023
O32   O     O_2   0.450949 0.501604 0.760628 -0.301235
O33   O     O_2   0.588962 0.695794 0.782618 -0.308517
O34   O     O_3   0.582504 0.556983 0.833198 -0.557518
H72   H     H_    0.634328 0.625980 0.853306 0.338830

loop_
_geom_bond_atom_site_label_1
_geom_bond_atom_site_label_2
_ccdc_geom_bond_type
C44   C49   S    
C15   C18   S    
C95   H67   S    
O28   C94   S    
C55   H45   S    
C96   H70   S    
C85   O9    A    
C41   C42   S    
C14   C18   S    
C74   H49   S    
C35   C36   S    
C61   C68   A    
C57   C66   S    
C56   O4    A    
C36   H18   S    
Cr5   O16   S    
Cr4   O14   S    
C81   C82   T    
C53   C59   A    
C60   H39   S    
C7    C8    A    
C71   H53   S    
C53   C54   A    
C28   H16   S    
C40   C46   S    
C18   C25   S    
Cr4   O7    S    
C56   O24   A    
C43   C88   S    
C41   H28   S    
C28   C29   S    
C78   C89   A    
Cr1   O1    S    
C92   H60   S    
C46   H36   S    
C5    C6    A    
S2    O33   D    
C27   H22   S    
C95   C96   S    
C23   O23   A    
C59   H41   S    
C15   C16   S    
C29   C33   S    
Cr3   O22   S    
Cr4   O13   S    
C73   C74   A    
C23   C26   S    
C96   H69   S    
C3    H21   S    
C42   H29   S    
C33   C35   S    
C46   C47   S    
C21   H8    S    
C14   H9    S    
C87   O15   A    
C19   C20   S    
C27   H14   S    
C8    C9    A    
C88   O16   A    
Cr6   O19   S    
C46   H25   S    
C70   C71   A    
C70   H50   S    
C30   C86   S    
C75   C80   A    
C31   C36   S    
C14   O27   S    
C91   C92   S    
C72   C73   A    
C95   H66   S    
Cr4   O6    S    
Cr6   O18   S    
C21   C22   S    
C85   O10   A    
S1    O30   D    
Cr5   O9    S    
C48   H34   S    
C35   H24   S    
C69   C70   A    
C67   C78   A    
C2    C11   S    
C78   H42   S    
C76   C83   A    
C84   O7    A    
C91   H58   S    
C61   H38   S    
O34   H72   S    
C47   C50   S    
C77   C79   A    
C28   H15   S    
C84   O8    A    
C49   H31   S    
C12   C67   S    
C17   C24   T    
C28   C31   S    
C32   H13   S    
C4    H32   S    
C27   C31   S    
C51   C52   T    
C6    H1    S    
C20   C24   S    
C48   H37   S    
Cr3   O3    S    
C1    O12   A    
C92   C93   S    
C1    C39   S    
S2    O32   D    
C16   H4    S    
C79   H51   S    
C45   C52   S    
C58   H40   S    
C58   C59   A    
C63   C64   A    
C49   H33   S    
Cr3   O23   S    
C33   C37   S    
C22   H7    S    
Cr5   O8    S    
C30   C37   T    
Cr2   O5    S    
C2    C89   A    
C8    S2    S    
C75   C76   A    
C94   H65   S    
C92   H59   S    
C5    C9    A    
C62   C63   A    
Cr4   O19   S    
C7    H54   S    
C47   C48   S    
C34   C69   S    
C7    C13   A    
C16   C20   S    
C90   O18   A    
C19   H56   S    
C35   H20   S    
C20   C21   S    
Cr3   O5    S    
C86   O6    A    
C77   H52   S    
O27   C91   S    
C75   H47   S    
C45   O3    A    
Cr2   O26   S    
C44   C51   S    
C48   C49   S    
C40   H35   S    
Cr6   O17   S    
C55   C57   A    
C90   O13   A    
C41   C44   S    
Cr1   O12   S    
C34   O26   A    
C15   H2    S    
C93   H62   S    
C3    C4    A    
C69   C74   A    
C91   H57   S    
C12   O22   A    
C5    H11   S    
C53   C56   S    
C94   H64   S    
C83   C90   S    
C29   H17   S    
C54   C55   A    
C88   O17   A    
C27   C32   S    
C18   C22   S    
C63   H43   S    
C14   C19   S    
Cr3   O4    S    
C15   H3    S    
C80   C81   S    
Cr5   O15   S    
C4    C67   A    
C31   C38   S    
C43   C50   T    
C86   O11   A    
Cr2   O21   S    
C54   S1    S    
C40   H26   S    
C1    O20   A    
C22   H6    S    
S1    O29   D    
C62   C68   A    
C60   C64   A    
C17   C84   S    
C64   C65   S    
C41   H27   S    
C93   H63   S    
C23   O1    A    
C2    C3    A    
C25   C26   T    
C94   C95   S    
C71   C72   A    
C32   C33   S    
C6    C13   A    
S2    O34   S    
C57   C58   A    
C38   C39   T    
Cr2   O20   S    
Cr1   O25   S    
S1    O31   S    
Cr6   O10   S    
Cr1   O24   S    
C9    C10   S    
C42   C47   S    
C96   H68   S    
Cr1   O5    S    
C21   H12   S    
C10   C11   T    
C42   H30   S    
C79   C80   A    
C87   O14   A    
C19   H10   S    
C16   H5    S    
C40   C44   S    
O31   H71   S    
C65   C66   T    
C89   H55   S    
C13   C85   S    
C68   C87   S    
C77   C83   A    
C29   O28   S    
C60   C61   A    
C34   O25   A    
Cr2   O2    S    
C45   O2    A    
C32   H23   S    
C62   H44   S    
C93   H61   S    
C36   H19   S    
Cr5   O19   S    
C72   C82   S    
C76   H46   S    
C12   O21   A    
C73   H48   S    
Cr6   O11   S    
