data_mof_unit_10821.cif
_audit_creation_date              2012-12-10T17:32:21-0500
_audit_creation_method            fapswitch 2.2
_symmetry_space_group_name_H-M    P1
_symmetry_Int_Tables_number       1
_space_group_crystal_system       triclinic
_cell_length_a                    12.323769
_cell_length_b                    13.185183
_cell_length_c                    15.006367
_cell_angle_alpha                 77.983216
_cell_angle_beta                  101.097764
_cell_angle_gamma                 116.564312
_cell_volume                      2119.38627208

loop_
_atom_site_label
_atom_site_type_symbol
_atom_type_description
_atom_site_fract_x
_atom_site_fract_y
_atom_site_fract_z
_atom_type_partial_charge
C1    C     C_R   0.854754 0.286584 0.508916 0.748689
C2    C     C_R   0.065815 0.590387 0.086889 0.118827
C3    C     C_R   0.847415 0.288585 0.060485 -0.218802
C4    C     C_R   0.845762 0.289111 0.967584 -0.218173
C5    C     C_R   0.917527 0.388598 0.912547 0.108032
C6    C     C_R   0.991253 0.489348 0.953319 0.026086
C7    C     C_R   0.064561 0.590813 0.900157 0.114922
C8    C     C_R   0.136967 0.690506 0.940279 -0.199975
C9    C     C_R   0.137397 0.690357 0.033033 -0.200956
C10   C     C_R   0.917941 0.389995 0.818059 0.118746
C11   C     C_R   0.993030 0.492688 0.767004 -0.046697
C12   C     C_R   0.998990 0.499397 0.670589 0.817877
C13   C     C_R   0.064934 0.591377 0.807579 -0.298213
C14   C     C_R   0.275405 0.020311 0.378141 -0.193285
C15   C     C_R   0.227807 0.834171 0.468016 -0.047073
C16   C     C_R   0.814673 0.086135 0.570500 -0.185897
C17   C     C_R   0.735781 0.971581 0.589109 -0.145483
C18   C     C_R   0.612609 0.933559 0.556494 -0.183525
C19   C     C_R   0.566008 0.009642 0.501127 0.078358
C20   C     C_R   0.649524 0.123738 0.473710 0.087900
C21   C     C_R   0.439471 0.975951 0.471230 0.072730
C22   C     C_R   0.399918 0.052563 0.408235 0.166931
C23   C     C_R   0.145034 0.713270 0.486636 0.788688
C24   C     C_R   0.485131 0.159423 0.374162 -0.242368
C25   C     C_R   0.608029 0.193899 0.405222 -0.206005
C26   C     C_R   0.350582 0.868448 0.502506 -0.256210
C27   C     C_R   0.189646 0.911146 0.407416 -0.199414
C28   C     C_R   0.772552 0.163776 0.514881 -0.097430
C29   C     C_R   0.346540 0.328609 0.645531 -0.297868
C30   C     C_R   0.759543 0.645274 0.376199 0.081461
C31   C     C_R   0.663090 0.676939 0.349708 -0.253583
C32   C     C_R   0.559662 0.622200 0.396252 -0.188326
C33   C     C_R   0.551457 0.534588 0.470484 -0.006302
C34   C     C_R   0.999936 0.498965 0.329419 0.812305
C35   C     C_R   0.653025 0.505377 0.495372 0.284083
C36   C     C_R   0.447044 0.475224 0.521055 -0.038157
C37   C     C_R   0.446707 0.388305 0.594880 0.173617
C38   C     C_R   0.546440 0.361530 0.618139 -0.273420
C39   C     C_R   0.647231 0.418989 0.569859 -0.170424
C40   C     C_R   0.342114 0.497836 0.502077 0.025104
C41   C     C_R   0.246626 0.355054 0.623394 0.077037
C42   C     C_R   0.066656 0.590771 0.179539 -0.312050
C43   C     C_R   0.996472 0.491502 0.233870 -0.045192
C44   C     C_R   0.923717 0.388156 0.196803 0.122018
C45   C     C_R   0.920477 0.387687 0.102133 0.105156
C46   C     C_R   0.992293 0.489021 0.047517 0.027384
Cu1   Cu    Cu3+1 0.098270 0.475420 0.521130 0.936919
Cu2   Cu    Cu3+1 0.901730 0.524580 0.478870 0.923856
H1    H     H_    0.122089 0.668759 0.209914 0.134896
H2    H     H_    0.456717 0.216838 0.323079 0.148461
H3    H     H_    0.244841 0.078415 0.329917 0.135866
H4    H     H_    0.374180 0.808437 0.553161 0.148165
H5    H     H_    0.908501 0.114465 0.601670 0.152321
H6    H     H_    0.557163 0.843556 0.574320 0.130760
H7    H     H_    0.769618 0.912267 0.631493 0.143955
H8    H     H_    0.669604 0.275288 0.372555 0.183882
H9    H     H_    0.168921 0.309246 0.662131 0.124600
H10   H     H_    0.546963 0.295432 0.674779 0.150962
H11   H     H_    0.345636 0.261959 0.701979 0.135847
H12   H     H_    0.334346 0.562242 0.447210 0.124897
H13   H     H_    0.839485 0.688360 0.339756 0.124608
H14   H     H_    0.487850 0.650222 0.372806 0.136400
H15   H     H_    0.668528 0.744205 0.292894 0.143504
H16   H     H_    0.718862 0.392655 0.593961 0.211724
H17   H     H_    0.790170 0.209241 0.098847 0.158330
H18   H     H_    0.787545 0.210133 0.939887 0.158464
H19   H     H_    0.121532 0.669000 0.766471 0.136641
H20   H     H_    0.193325 0.768690 0.899839 0.140575
H21   H     H_    0.193987 0.768452 0.062755 0.140820
H22   H     H_    0.094665 0.885489 0.379856 0.147956
N1    N     N_R   0.246280 0.438190 0.553160 -0.181448
N2    N     N_R   0.754320 0.561190 0.447410 -0.207716
O1    O     O_R   0.972510 0.318130 0.526570 -0.578598
O2    O     O_R   0.806530 0.359650 0.490890 -0.605723
O3    O     O_R   0.082980 0.479210 0.647590 -0.576850
O4    O     O_R   0.917000 0.520730 0.611900 -0.594221
O5    O     O_R   0.193470 0.640350 0.509110 -0.589281
O6    O     O_R   0.027490 0.681870 0.473430 -0.588296
O7    O     O_R   0.083000 0.479270 0.388100 -0.577412
O8    O     O_R   0.917020 0.520790 0.352410 -0.587409
C47   C     C_3   0.851329 0.279181 0.257018 -0.882901
H23   H     H_    0.879289 0.211183 0.253031 0.232833
H24   H     H_    0.865818 0.289182 0.330120 0.222489
H25   H     H_    0.752240 0.250460 0.233971 0.227817
C48   C     C_3   0.839921 0.282888 0.773033 -0.901675
H26   H     H_    0.848982 0.294220 0.699279 0.222736
H27   H     H_    0.866626 0.212867 0.807117 0.232917
H28   H     H_    0.742102 0.256149 0.778858 0.227208

loop_
_geom_bond_atom_site_label_1
_geom_bond_atom_site_label_2
_ccdc_geom_bond_type
C16   C28   A    
C21   C26   A    
C10   C48   S    
C40   H12   S    
C40   N1    A    
Cu2   O4    S    
C19   C20   A    
C25   H8    S    
Cu1   O7    S    
C47   H23   S    
C7    C8    A    
C48   H26   S    
C2    C46   A    
C39   H16   S    
C1    O2    A    
C36   C37   A    
C19   C21   A    
C9    H21   S    
C14   H3    S    
C5    C6    A    
C20   C25   A    
C33   C36   A    
C18   C19   A    
Cu2   O6    S    
C16   H5    S    
C34   O8    A    
C38   H10   S    
C31   C32   A    
C8    C9    A    
C1    C28   S    
C14   C27   A    
C17   H7    S    
C41   N1    A    
C15   C23   S    
C21   C22   A    
C3    H17   S    
Cu2   N2    S    
C47   H24   S    
Cu2   O2    S    
C48   H27   S    
C24   H2    S    
C38   C39   A    
C31   H15   S    
C36   C40   A    
C24   C25   A    
Cu1   O1    S    
C44   C47   S    
C16   C17   A    
C15   C26   A    
C20   C28   A    
C45   C46   A    
C3    C45   A    
C35   C39   A    
C43   C44   A    
C37   C38   A    
C26   H4    S    
C34   O7    A    
C15   C27   A    
Cu1   Cu2   S    
C17   C18   A    
C23   O5    A    
Cu1   N1    S    
C27   H22   S    
C35   N2    A    
C8    H20   S    
C12   O4    A    
C22   C24   A    
C12   O3    A    
C42   C43   A    
Cu1   O5    S    
C3    C4    A    
C47   H25   S    
C44   C45   A    
C13   H19   S    
C48   H28   S    
C6    C46   A    
C29   C41   A    
C34   C43   S    
C4    C5    A    
C30   N2    A    
C11   C12   S    
C6    C7    A    
C1    O1    A    
C32   C33   A    
Cu2   O8    S    
C41   H9    S    
C5    C10   A    
C4    H18   S    
C11   C13   A    
C14   C22   A    
C30   C31   A    
C2    C42   A    
C33   C35   A    
C23   O6    A    
C10   C11   A    
C18   H6    S    
C42   H1    S    
Cu1   O3    S    
C7    C13   A    
C30   H13   S    
C29   C37   A    
C29   H11   S    
C32   H14   S    
C2    C9    A    
