data_mof_unit_37727.cif
_audit_creation_date              2012-12-10T20:34:49-0500
_audit_creation_method            fapswitch 2.2
_symmetry_space_group_name_H-M    P1
_symmetry_Int_Tables_number       1
_space_group_crystal_system       triclinic
_cell_length_a                    10.665763
_cell_length_b                    10.676758
_cell_length_c                    9.905014
_cell_angle_alpha                 89.736147
_cell_angle_beta                  89.623922
_cell_angle_gamma                 91.270021
_cell_volume                      1127.6269912

loop_
_atom_site_label
_atom_site_type_symbol
_atom_type_description
_atom_site_fract_x
_atom_site_fract_y
_atom_site_fract_z
_atom_type_partial_charge
C1    C     C_R   0.495811 0.260160 0.500629 0.909858
C2    C     C_3   0.878949 0.499381 0.498475 -0.115029
C3    C     C_3   0.931741 0.615523 0.577381 0.258072
C4    C     C_3   0.930755 0.501314 0.349666 0.269236
C5    C     C_R   0.510016 0.063730 0.621480 0.096876
C6    C     C_R   0.479038 0.128190 0.504522 -0.105169
C7    C     C_R   0.426548 0.063552 0.395036 -0.140893
C8    C     C_R   0.429681 0.933854 0.393462 -0.213948
C9    C     C_R   0.482665 0.871254 0.503045 -0.090355
C10   C     C_R   0.511328 0.936128 0.620944 0.136042
C11   C     C_3   0.625922 0.932518 0.706939 -0.482784
C12   C     C_R   0.257986 0.498705 0.499999 0.956303
C13   C     C_3   0.624920 0.074314 0.706699 -0.420385
C14   C     C_R   0.409482 0.435000 0.071851 0.039766
C15   C     C_R   0.582312 0.574400 0.068444 0.448446
C16   C     C_R   0.582537 0.572341 0.925592 -0.105522
C17   C     C_R   0.407440 0.437601 0.929526 0.110557
C18   C     C_3   0.375132 0.301717 0.919481 -0.521862
C19   C     C_3   0.384933 0.296156 0.072570 0.247350
C20   C     C_R   0.497940 0.739843 0.500076 0.860602
C21   C     C_R   0.742186 0.498801 0.499426 0.914882
C22   C     C_3   0.070175 0.379152 0.575975 0.188479
C23   C     C_3   0.925115 0.375353 0.566061 0.067056
C24   C     C_3   0.075731 0.616917 0.569568 -0.499843
C25   C     C_3   0.073666 0.494568 0.350972 -0.468982
C26   C     C_3   0.121786 0.496783 0.499099 -0.028847
H1    H     H_    0.099559 0.386455 0.683717 0.123876
H2    H     H_    0.111163 0.701015 0.512900 0.222566
H3    H     H_    0.388783 0.112533 0.309385 0.215619
H4    H     H_    0.396149 0.883670 0.305505 0.176744
H5    H     H_    0.606088 0.890417 0.807926 0.220417
H6    H     H_    0.708584 0.895297 0.653555 0.210998
H7    H     H_    0.606034 0.113606 0.808162 0.213313
H8    H     H_    0.706074 0.118306 0.651908 0.232232
H9    H     H_    0.650477 0.629058 0.869559 0.162896
H10   H     H_    0.277926 0.285697 0.882554 0.172742
H11   H     H_    0.447338 0.248198 0.865060 0.226794
H12   H     H_    0.296020 0.268115 0.124686 0.131962
H13   H     H_    0.896446 0.296047 0.499509 0.173602
H14   H     H_    0.114007 0.623822 0.673673 0.161129
H15   H     H_    0.903617 0.608976 0.685736 0.114678
H16   H     H_    0.116538 0.573570 0.291658 0.194313
H17   H     H_    0.102731 0.406875 0.300125 0.201732
H18   H     H_    0.894449 0.416097 0.296956 0.140330
N1    N     N_R   0.499150 0.499140 0.142800 -0.164274
N2    N     N_R   0.499150 0.499180 0.857150 -0.130845
O1    O     O_R   0.500020 0.316790 0.614690 -0.613688
O2    O     O_R   0.500000 0.316760 0.385350 -0.578086
O3    O     O_R   0.314800 0.500000 0.614670 -0.631054
O4    O     O_R   0.314790 0.499960 0.385330 -0.632543
O5    O     O_R   0.500000 0.683240 0.614650 -0.627234
O6    O     O_R   0.499980 0.683210 0.385310 -0.649039
O7    O     O_R   0.685210 0.500040 0.614670 -0.604213
O8    O     O_R   0.685200 0.500000 0.385330 -0.604765
Zn1   Zn    Zn3+2 0.500010 0.500020 0.653130 0.957217
Zn2   Zn    Zn3+2 0.499990 0.499980 0.346870 0.978538
O9    O     O_3   0.890273 0.605196 0.274324 -0.686570
H19   H     H_    0.942291 0.680054 0.297261 0.387985
O10   O     O_3   0.887294 0.728939 0.525663 -0.752650
H20   H     H_    0.797426 0.732872 0.550668 0.321902
O11   O     O_3   0.668984 0.653267 0.127548 -0.725801
H21   H     H_    0.651898 0.655401 0.224606 0.408549
O12   O     O_3   0.120062 0.269672 0.520572 -0.790749
H22   H     H_    0.102787 0.201278 0.586818 0.351458
O13   O     O_3   0.488375 0.227138 0.116189 -0.739599
H23   H     H_    0.565268 0.259470 0.069375 0.348011
O14   O     O_3   0.869101 0.350159 0.692951 -0.761871
H24   H     H_    0.901068 0.412736 0.758548 0.333470

loop_
_geom_bond_atom_site_label_1
_geom_bond_atom_site_label_2
_ccdc_geom_bond_type
N2    Zn1   S    
C25   H16   S    
C12   O4    A    
O14   H24   S    
C1    O2    A    
C13   H7    S    
C6    C7    A    
C7    H3    S    
C19   H12   S    
C8    C9    A    
C14   N1    A    
O4    Zn2   S    
C9    C10   A    
C9    C20   S    
C5    C13   S    
C21   O8    A    
C8    H4    S    
C25   H17   S    
C2    C21   S    
C12   O3    A    
C15   O11   S    
C11   H5    S    
C13   H8    S    
C20   O6    A    
C22   O12   S    
C21   O7    A    
C11   C13   S    
C14   C17   A    
O9    H19   S    
C5    C6    A    
O6    Zn2   S    
C23   H13   S    
C2    C4    S    
C5    C10   A    
C24   H14   S    
C18   H11   S    
C24   C26   S    
C11   H6    S    
C17   C18   S    
C20   O5    A    
C2    C3    S    
C22   H1    S    
O7    Zn1   S    
C16   H9    S    
C12   C26   S    
O11   H21   S    
O8    Zn2   S    
C7    C8    A    
C10   C11   S    
C15   N1    A    
C19   O13   S    
C23   O14   S    
C1    C6    S    
C4    C25   S    
O10   H20   S    
C18   C19   S    
C17   N2    A    
N1    Zn2   S    
C24   H2    S    
O1    Zn1   S    
O13   H23   S    
C22   C26   S    
C16   N2    A    
C2    C23   S    
O2    Zn2   S    
C22   C23   S    
C3    H15   S    
C4    H18   S    
O5    Zn1   S    
C25   C26   S    
O3    Zn1   S    
C18   H10   S    
C14   C19   S    
C1    O1    A    
C15   C16   A    
C4    O9    S    
C3    C24   S    
O12   H22   S    
C3    O10   S    
