data_mof_unit_13391.cif
_audit_creation_date              2013-03-05T15:52:32-0500
_audit_creation_method            fapswitch 2.2
_symmetry_space_group_name_H-M    P1
_symmetry_Int_Tables_number       1
_space_group_crystal_system       triclinic
_cell_length_a                    7.003816
_cell_length_b                    20.482378
_cell_length_c                    24.334852
_cell_angle_alpha                 89.97046
_cell_angle_beta                  90.457916
_cell_angle_gamma                 88.984502
_cell_volume                      3490.29096768

loop_
_atom_site_label
_atom_site_type_symbol
_atom_site_description
_atom_site_fract_x
_atom_site_fract_y
_atom_site_fract_z
_atom_type_partial_charge
O1    O     O_R   0.507310 0.423620 0.460450 -0.587101
O2    O     O_R   0.170760 0.556060 0.437190 -0.574116
O3    O     O_R   0.004040 0.576380 0.539550 -0.590764
C1    C     C_R   0.337975 0.576021 0.421334 0.954747
O4    O     O_R   0.177350 0.422870 0.454070 -0.571562
O5    O     O_R   0.010680 0.442240 0.556560 -0.568907
C2    C     C_R   0.347061 0.398997 0.443376 1.061251
O6    O     O_R   0.500670 0.557760 0.443440 -0.591696
O7    O     O_3   0.340380 0.506510 0.533610 -0.268827
V1    V     V_3+5 0.064130 0.498790 0.493770 1.268708
O8    O     O_R   0.681170 0.443940 0.562810 -0.572613
C3    C     C_R   0.851158 0.423982 0.578445 0.975118
O9    O     O_R   0.674570 0.577130 0.545930 -0.591684
C4    C     C_R   0.842154 0.601084 0.556331 0.968965
V2    V     V_3+5 0.564560 0.501210 0.506230 1.256596
O10   O     O_3   0.838170 0.493490 0.466390 -0.270807
C5    C     C_R   0.981422 0.838187 0.910763 -0.271208
C6    C     C_R   0.848455 0.661971 0.588299 -0.191269
C7    C     C_R   0.067306 0.723199 0.906208 0.385684
C8    C     C_R   0.058398 0.782035 0.934915 -0.267484
C9    C     C_R   0.913900 0.836168 0.856139 0.392037
C10   C     C_R   0.956990 0.780455 0.822322 -0.035701
C11   C     C_R   0.029993 0.722480 0.848557 -0.194048
C12   C     C_R   0.931404 0.780172 0.763629 0.092775
C13   C     C_R   0.939084 0.720216 0.733828 0.042936
C14   C     C_R   0.007183 0.664145 0.761443 -0.250740
C15   C     C_R   0.065520 0.665869 0.816337 0.363775
C16   C     C_R   0.918730 0.838425 0.732985 -0.086793
C17   C     C_R   0.883838 0.838240 0.676750 -0.086821
C18   C     C_R   0.866875 0.779607 0.647771 -0.053515
C19   C     C_R   0.896549 0.719378 0.675988 0.104170
C20   C     C_R   0.827564 0.780064 0.590624 0.504602
C21   C     C_R   0.819222 0.721517 0.561568 -0.214689
C22   C     C_R   0.883986 0.660675 0.645068 -0.204779
H1    H     H_    0.896872 0.613153 0.663987 0.133780
H2    H     H_    0.790542 0.722441 0.517727 0.189443
H3    H     H_    0.873672 0.884966 0.656082 0.222388
H4    H     H_    0.099131 0.783021 0.977996 0.198212
H5    H     H_    0.037717 0.619511 0.739539 0.174466
H6    H     H_    0.948368 0.885149 0.751173 0.205047
C23   C     C_3   0.817465 0.271787 0.811253 0.664100
C24   C     C_3   0.126449 0.227644 0.771602 -0.468446
C25   C     C_3   0.110815 0.280423 0.725111 0.178224
H7    H     H_    0.207105 0.184636 0.755884 0.244869
H8    H     H_    0.213656 0.243667 0.806992 0.283921
H9    H     H_    0.187274 0.259633 0.689267 0.200736
C26   C     C_1   0.864323 0.378529 0.623921 -0.140100
C27   C     C_3   0.925594 0.207596 0.791950 -0.242909
C28   C     C_3   0.774914 0.316156 0.759325 -0.007162
C29   C     C_3   0.895276 0.292517 0.708133 -0.363505
C30   C     C_3   0.814608 0.223796 0.690220 0.623162
C31   C     C_3   0.810616 0.177563 0.742310 0.000531
C32   C     C_1   0.877630 0.340064 0.661757 0.326193
C33   C     C_1   0.945764 0.159775 0.838073 0.288425
C34   C     C_1   0.959773 0.121267 0.875876 -0.156325
H10   H     H_    0.659501 0.175844 0.755873 0.149048
H11   H     H_    0.623790 0.307354 0.747966 0.168161
C35   C     C_3   0.542899 0.687670 0.254603 -0.384459
C36   C     C_3   0.183674 0.709082 0.250585 0.260493
C37   C     C_3   0.231712 0.750976 0.195200 0.371644
H12   H     H_    0.617684 0.718560 0.171341 0.286502
H13   H     H_    0.520207 0.640430 0.233731 0.277458
C38   C     C_1   0.477293 0.878372 0.124409 -0.156145
C39   C     C_3   0.368196 0.707306 0.290372 -0.260748
C40   C     C_3   0.585411 0.741454 0.211615 -0.393514
C41   C     C_3   0.418448 0.792419 0.207479 -0.256984
C42   C     C_3   0.420937 0.828146 0.265008 0.209886
C43   C     C_3   0.406892 0.778231 0.314201 0.667430
C44   C     C_1   0.457699 0.839854 0.162030 0.305372
C45   C     C_1   0.352962 0.659662 0.337145 0.326524
C46   C     C_1   0.344334 0.621374 0.375349 -0.171015
H14   H     H_    0.563058 0.851417 0.268072 0.174617
H15   H     H_    0.670012 0.678322 0.280583 0.270014
H16   H     H_    0.715526 0.766673 0.224056 0.265323
C47   C     C_R   0.463394 0.163175 0.087613 -0.280488
C48   C     C_R   0.357119 0.336773 0.412604 -0.332590
C49   C     C_R   0.395525 0.279404 0.090150 -0.079197
C50   C     C_R   0.436959 0.222944 0.059765 0.286984
C51   C     C_R   0.456254 0.161785 0.145376 -0.193301
C52   C     C_R   0.418834 0.219282 0.176920 0.117196
C53   C     C_R   0.380611 0.278263 0.147945 -0.146777
C54   C     C_R   0.413415 0.219711 0.235985 -0.010734
C55   C     C_R   0.362956 0.278226 0.264989 -0.110402
C56   C     C_R   0.295164 0.332794 0.233844 0.339291
C57   C     C_R   0.317679 0.334379 0.176590 0.407292
C58   C     C_R   0.458799 0.163366 0.267009 -0.217029
C59   C     C_R   0.443396 0.161706 0.324160 0.363895
C60   C     C_R   0.387822 0.218669 0.353297 -0.218543
C61   C     C_R   0.371903 0.278674 0.324130 0.157472
C62   C     C_R   0.352906 0.217955 0.410975 0.257386
C63   C     C_R   0.336377 0.277227 0.440100 0.365229
C64   C     C_R   0.377019 0.337126 0.355324 -0.165479
H17   H     H_    0.402232 0.383501 0.335791 0.184215
H18   H     H_    0.373052 0.324405 0.067636 0.227678
H19   H     H_    0.472552 0.114343 0.164117 0.123749
H20   H     H_    0.512258 0.119343 0.248026 0.165464
O11   O     O_R   0.323590 0.942280 0.056590 -0.580126
O12   O     O_R   0.647030 0.077140 0.045940 -0.578045
O13   O     O_R   0.813570 0.057750 0.943430 -0.554286
C65   C     C_R   0.477121 0.101075 0.056627 1.016109
O14   O     O_R   0.653510 0.943950 0.062820 -0.584370
O15   O     O_R   0.820100 0.923600 0.960440 -0.562247
C66   C     C_R   0.486141 0.923969 0.078653 0.945407
O16   O     O_R   0.317060 0.076430 0.039590 -0.595302
O17   O     O_3   0.483830 0.993520 0.966410 -0.246308
V3    V     V_3+5 0.760140 0.001200 0.006230 1.285172
O18   O     O_R   0.149560 0.922820 0.954030 -0.594664
C67   C     C_R   0.982179 0.899035 0.943320 1.041208
O19   O     O_R   0.143080 0.056020 0.937150 -0.583139
C68   C     C_R   0.973069 0.075898 0.921445 0.999219
V4    V     V_3+5 0.259690 0.998730 0.993720 1.274537
O20   O     O_3   0.986120 0.006480 0.033580 -0.282993
N1    N     N_R   0.178357 0.611620 0.836559 0.263532
O21   O     O_R   0.127393 0.552159 0.825764 -0.222700
O22   O     O_R   0.349484 0.621504 0.855688 -0.300611
Cl1   Cl    Cl    0.788462 0.852898 0.553137 -0.423890
N2    N     N_R   0.782262 0.386962 0.770101 0.294976
O23   O     O_R   0.627310 0.422496 0.765003 -0.243200
O24   O     O_R   0.940286 0.415988 0.782396 -0.213406
Cl2   Cl    Cl    0.950456 0.312652 0.864325 -0.329474
N3    N     N_R   0.211792 0.340967 0.738204 0.284187
O25   O     O_R   0.282773 0.351815 0.786870 -0.214320
O26   O     O_R   0.252872 0.381047 0.698683 -0.338573
N4    N     N_R   0.867007 0.109484 0.730138 0.295225
O27   O     O_R   0.739260 0.064167 0.731695 -0.278478
O28   O     O_R   0.043500 0.092741 0.720315 -0.294690
Cl3   Cl    Cl    0.576533 0.231568 0.662199 -0.520073
Cl4   Cl    Cl    0.595859 0.252527 0.843824 -0.512015
Cl5   Cl    Cl    0.949304 0.189271 0.634005 -0.355508
N5    N     N_R   0.025889 0.737486 0.282850 0.229277
O29   O     O_R   0.964077 0.703936 0.324335 -0.341108
O30   O     O_R   0.974066 0.798614 0.279020 -0.289522
N6    N     N_R   0.119662 0.643048 0.234840 0.275298
O31   O     O_R   0.208679 0.589910 0.250761 -0.309806
O32   O     O_R   0.963243 0.637362 0.206116 -0.287193
N7    N     N_R   0.276521 0.708728 0.146569 0.262787
O33   O     O_R   0.328372 0.647556 0.150473 -0.266166
O34   O     O_R   0.283715 0.735492 0.098055 -0.316233
N8    N     N_R   0.065145 0.791672 0.177408 0.249294
O35   O     O_R   0.066956 0.855099 0.178295 -0.328631
O36   O     O_R   0.933758 0.764587 0.147500 -0.364338
Cl6   Cl    Cl    0.625708 0.779096 0.352990 -0.433991
Cl7   Cl    Cl    0.242612 0.803633 0.367158 -0.314011
Cl8   Cl    Cl    0.268592 0.899325 0.270310 -0.359789
Cl9   Cl    Cl    0.252462 0.407049 0.140766 -0.376442
Cl10  Cl    Cl    0.285845 0.277172 0.511282 -0.463093
N9    N     N_R   0.509529 0.103655 0.352019 0.264027
O37   O     O_R   0.647503 0.107253 0.387967 -0.262343
O38   O     O_R   0.460081 0.046558 0.333937 -0.248075
N10   N     N_R   0.445801 0.227029 0.000669 0.244439
O39   O     O_R   0.561923 0.189370 0.973115 -0.353046
O40   O     O_R   0.349915 0.272440 0.974427 -0.255511
Cl11  Cl    Cl    0.142053 0.393600 0.262600 -0.514363
N11   N     N_R   0.315101 0.157901 0.439070 0.284270
O41   O     O_R   0.407715 0.142326 0.483899 -0.171296
O42   O     O_R   0.181331 0.119941 0.421089 -0.248602
N12   N     N_R   0.100403 0.664489 0.937393 0.270766
O43   O     O_R   0.228598 0.663150 0.976411 -0.239150
O44   O     O_R   0.977784 0.617585 0.934511 -0.242411
Cl12  Cl    Cl    0.748955 0.898635 0.836101 -0.618397

loop_
_geom_bond_atom_site_label_1
_geom_bond_atom_site_label_2
_geom_bond_distance
_ccdc_geom_bond_type
C35   H13   1.106413 S    
C59   C60   1.415872 A    
C36   N5    1.472321 S    
C13   C19   1.436558 A    
N12   O43   1.301503 A    
C31   N4    1.473400 S    
C4    C6    1.471312 S    
O2    C1    1.308297 A    
C7    C8    1.393930 A    
C1    O6    1.304834 A    
C21   H2    1.084117 S    
C30   Cl5   1.805376 S    
V3    O20   1.717259 S    
C49   C50   1.400261 A    
C27   C33   1.493498 S    
C14   C15   1.394456 A    
C59   N9    1.436174 S    
C39   C43   1.591353 S    
C16   C17   1.388215 A    
N9    O38   1.301416 A    
C57   Cl9   1.775483 S    
C22   H1    1.078565 S    
O19   V4    1.971156 S    
O5    C3    1.302261 A    
C18   C19   1.422788 A    
O11   V4    1.961314 S    
C14   H5    1.077508 S    
C41   C44   1.502008 S    
C16   H6    1.077431 S    
V2    O10   2.157847 S    
C49   H18   1.080526 S    
C65   O16   1.302413 A    
C5    C8    1.389651 A    
C28   H11   1.109663 S    
C43   Cl7   1.805126 S    
C42   H14   1.113204 S    
C28   C29   1.581102 S    
C64   H17   1.079905 S    
N9    O37   1.301382 A    
O8    V2    1.971084 S    
C56   C57   1.403840 A    
C23   C27   1.579195 S    
C28   N2    1.475643 S    
C38   C44   1.218390 T    
O18   C67   1.301947 A    
O15   C67   1.304940 A    
C45   C46   1.218528 T    
O1    V2    1.986150 S    
C39   C45   1.504560 S    
C62   N11   1.436700 S    
O7    V1    2.165506 S    
C25   N3    1.472210 S    
N11   O42   1.301312 A    
C26   C32   1.213433 T    
C41   C42   1.580139 S    
O17   V4    1.711214 S    
C37   C41   1.598031 S    
C36   C37   1.637777 S    
O14   C66   1.309240 A    
O9    C4    1.303159 A    
C23   Cl4   1.798296 S    
C24   H7    1.107950 S    
C3    C26   1.447134 S    
C42   Cl8   1.796624 S    
C47   C50   1.407588 A    
C23   C28   1.579481 S    
C6    C21   1.393128 A    
C35   C39   1.554509 S    
C55   C61   1.440092 A    
C29   C32   1.493217 S    
N3    O25   1.301448 A    
C42   C43   1.578671 S    
C7    N12   1.435992 S    
C12   C13   1.426915 A    
C38   C66   1.455326 S    
O19   C68   1.305766 A    
C5    C67   1.477222 S    
O4    C2    1.305424 A    
C58   C59   1.396237 A    
C52   C53   1.418773 A    
C48   C63   1.401190 A    
C13   C14   1.404534 A    
C54   C58   1.408951 A    
O13   C68   1.302448 A    
C36   N6    1.482034 S    
C5    C9    1.408209 A    
C40   H16   1.096080 S    
C30   C31   1.582603 S    
C24   H8    1.105182 S    
N5    O30   1.300503 A    
C51   H19   1.077072 S    
C17   C18   1.399382 A    
C8    H4    1.084588 S    
C56   Cl11  1.776607 S    
C35   C40   1.553056 S    
C55   C56   1.422542 A    
C49   C53   1.411348 A    
N8    O35   1.299611 A    
C29   C30   1.585992 S    
C36   C39   1.608487 S    
C19   C22   1.422400 A    
C24   C27   1.556968 S    
C20   Cl1   1.764313 S    
C61   C64   1.418789 A    
C43   Cl6   1.793842 S    
C6    C22   1.401881 A    
N11   O41   1.301380 A    
O11   C66   1.303815 A    
O3    C4    1.302170 A    
C58   H20   1.076053 S    
C48   C64   1.401997 A    
C15   N1    1.436474 S    
N7    O34   1.303094 A    
C60   C62   1.426785 A    
C40   C41   1.556280 S    
O6    V2    1.960983 S    
C11   C15   1.419501 A    
O9    V2    1.994293 S    
C34   C68   1.447815 S    
N6    O31   1.301954 A    
C9    Cl12  1.774080 S    
N10   O40   1.301655 A    
C24   C25   1.566245 S    
O2    V1    1.968580 S    
C50   N10   1.442374 S    
N4    O28   1.300974 A    
N1    O21   1.301513 A    
O14   V3    1.968505 S    
O13   V3    1.959545 S    
C37   N7    1.498395 S    
C33   C34   1.213696 T    
V4    O20   2.157857 S    
O1    C2    1.303644 A    
O18   V4    1.994345 S    
C12   C16   1.407807 A    
N7    O33   1.301549 A    
O5    V1    1.959381 S    
O16   V4    1.989369 S    
O8    C3    1.305625 A    
C25   C29   1.577218 S    
C2    C48   1.479421 S    
O17   V3    2.165596 S    
O12   C65   1.307098 A    
O12   V3    1.987677 S    
C30   Cl3   1.800818 S    
C20   C21   1.394302 A    
N2    O24   1.298516 A    
N5    O29   1.302141 A    
O7    V2    1.712235 S    
O4    V1    1.987543 S    
O3    V1    1.982290 S    
V1    O10   1.717442 S    
N2    O23   1.301019 A    
C18   C20   1.415500 A    
N8    O36   1.300788 A    
C62   C63   1.409539 A    
C47   C65   1.481042 S    
C52   C54   1.438150 A    
O15   V3    1.982410 S    
C10   C12   1.438079 A    
C63   Cl10  1.770747 S    
C23   Cl2   1.801555 S    
C25   H9    1.108467 S    
N3    O26   1.301387 A    
C37   N8    1.483356 S    
C51   C52   1.427600 A    
H12   C40   1.109861 S    
C7    C11   1.425155 A    
C27   C31   1.577618 S    
C60   C61   1.421165 A    
N12   O44   1.301437 A    
C54   C55   1.431569 A    
C17   H3    1.081910 S    
N6    O32   1.301805 A    
C10   C11   1.432332 A    
N4    O27   1.301340 A    
C9    C10   1.436380 A    
C47   C51   1.407229 A    
C1    C46   1.455456 S    
C53   C57   1.410330 A    
C31   H10   1.112309 S    
C35   H15   1.101716 S    
N10   O39   1.301159 A    
N1    O22   1.301525 A    
