data_mof_unit_63583.cif
_audit_creation_date              2012-12-10T19:02:40-0500
_audit_creation_method            fapswitch 2.2
_symmetry_space_group_name_H-M    P1
_symmetry_Int_Tables_number       1
_space_group_crystal_system       triclinic
_cell_length_a                    19.328634
_cell_length_b                    14.259136
_cell_length_c                    13.366972
_cell_angle_alpha                 89.999942
_cell_angle_beta                  89.999985
_cell_angle_gamma                 90.0
_cell_volume                      3684.0660855

loop_
_atom_site_label
_atom_site_type_symbol
_atom_type_description
_atom_site_fract_x
_atom_site_fract_y
_atom_site_fract_z
_atom_type_partial_charge
C1    C     C_1   0.500000 0.500000 0.049525 -0.039874
C2    C     C_R   0.500000 0.673459 0.500000 0.932533
C3    C     C_R   0.363653 0.500000 0.500000 0.912718
C4    C     C_R   0.636347 0.500000 0.500000 0.912719
C5    C     C_1   0.500000 0.225896 0.500000 -0.219345
C6    C     C_1   0.500000 0.774104 0.500000 -0.219344
C7    C     C_1   0.500000 0.141333 0.500000 0.002253
C8    C     C_1   0.500000 0.858667 0.500000 0.002253
C9    C     C_1   0.500000 0.042279 0.500000 0.018001
C10   C     C_1   0.500000 0.957721 0.500000 0.018001
C11   C     C_R   0.252784 0.500122 0.590829 -0.227674
C12   C     C_1   0.500000 0.500000 0.950475 -0.039874
C13   C     C_R   0.747216 0.499919 0.409172 -0.227677
C14   C     C_R   0.747216 0.500094 0.590829 -0.227674
C15   C     C_R   0.252784 0.499893 0.409172 -0.227676
C16   C     C_R   0.180950 0.500145 0.591542 0.009164
C17   C     C_R   0.819051 0.499907 0.408461 0.009167
C18   C     C_R   0.819051 0.500116 0.591542 0.009163
C19   C     C_R   0.180949 0.499881 0.408461 0.009166
C20   C     C_R   0.144625 0.500016 0.500002 -0.006323
C21   C     C_R   0.855376 0.500014 0.500001 -0.006327
C22   C     C_1   0.145846 0.503255 0.687008 0.186691
C23   C     C_R   0.288647 0.500005 0.500000 -0.084864
C24   C     C_1   0.854153 0.496830 0.312993 0.186698
C25   C     C_1   0.854153 0.503194 0.687010 0.186697
C26   C     C_1   0.145846 0.496776 0.312996 0.186693
C27   C     C_R   0.711353 0.500004 0.500000 -0.084864
C28   C     C_R   0.930530 0.500015 0.500001 0.283074
C29   C     C_R   0.069472 0.500017 0.500003 0.283075
C30   C     C_1   0.500000 0.500000 0.169417 0.074645
C31   C     C_1   0.500000 0.500000 0.830583 0.074645
C32   C     C_R   0.500000 0.326541 0.500000 0.932532
H1    H     H_    0.280756 0.500654 0.661186 0.162707
H2    H     H_    0.719243 0.499404 0.338815 0.162707
H3    H     H_    0.719244 0.500605 0.661186 0.162707
H4    H     H_    0.280756 0.499356 0.338815 0.162707
N1    N     N_1   0.500000 0.500000 0.261870 -0.065569
N2    N     N_1   0.117759 0.494262 0.236579 -0.163809
N3    N     N_1   0.500000 0.500000 0.738130 -0.065569
N4    N     N_R   0.034306 0.565482 0.447111 -0.150302
N5    N     N_R   0.965696 0.434549 0.552892 -0.150303
N6    N     N_R   0.965695 0.565482 0.447111 -0.150303
N7    N     N_R   0.034307 0.434550 0.552893 -0.150302
N8    N     N_1   0.117760 0.505773 0.763427 -0.163809
N9    N     N_1   0.882238 0.494339 0.236574 -0.163807
N10   N     N_1   0.882239 0.505685 0.763430 -0.163806
O1    O     O_R   0.500000 0.373710 0.576470 -0.594477
O2    O     O_R   0.500000 0.626290 0.423530 -0.594477
O3    O     O_R   0.500000 0.626290 0.576470 -0.594662
O4    O     O_R   0.500000 0.373710 0.423530 -0.594662
O5    O     O_R   0.398140 0.500000 0.576480 -0.613896
O6    O     O_R   0.601860 0.500000 0.423520 -0.613897
O7    O     O_R   0.601860 0.500000 0.576480 -0.613896
O8    O     O_R   0.398140 0.500000 0.423520 -0.613896
Zn1   Zn    Zn3+2 0.500000 0.500000 0.602090 0.976121
Zn2   Zn    Zn3+2 0.500000 0.500000 0.397910 0.976121

loop_
_geom_bond_atom_site_label_1
_geom_bond_atom_site_label_2
_ccdc_geom_bond_type
C6    C8    T    
C5    C7    T    
O8    Zn2   S    
C2    O3    A    
C14   C27   A    
C18   C21   A    
N5    N7    A    
C9    C10   T    
C14   C18   A    
C3    C23   S    
C19   C20   A    
C13   C17   A    
C16   C20   A    
C5    C32   S    
C26   N2    T    
N4    N6    A    
O1    Zn1   S    
C13   H2    S    
C29   N7    A    
C15   C19   A    
C18   C25   S    
C32   O4    A    
C2    C6    S    
C1    C12   T    
C4    O6    A    
C24   N9    T    
C29   N4    A    
C15   C23   A    
C1    C30   S    
C3    O8    A    
C21   C28   S    
C31   N3    T    
O5    Zn1   S    
C20   C29   S    
O7    Zn1   S    
C12   C31   S    
C4    O7    A    
C32   O1    A    
C22   N8    T    
C17   C24   S    
C7    C9    S    
C15   H4    S    
C11   H1    S    
C4    C27   S    
C8    C10   S    
C11   C16   A    
C11   C23   A    
C14   H3    S    
O2    Zn2   S    
C19   C26   S    
C3    O5    A    
C13   C27   A    
C16   C22   S    
C28   N6    A    
C2    O2    A    
O3    Zn1   S    
N1    Zn2   S    
C25   N10   T    
O4    Zn2   S    
C28   N5    A    
O6    Zn2   S    
C30   N1    T    
N3    Zn1   S    
C17   C21   A    
