data_mof_unit_6770.cif
_audit_creation_date              2013-03-05T16:09:49-0500
_audit_creation_method            fapswitch 2.2
_symmetry_space_group_name_H-M    P1
_symmetry_Int_Tables_number       1
_space_group_crystal_system       triclinic
_cell_length_a                    8.182784
_cell_length_b                    15.132359
_cell_length_c                    26.877613
_cell_angle_alpha                 98.600976
_cell_angle_beta                  92.936258
_cell_angle_gamma                 80.882902
_cell_volume                      3247.82258132

loop_
_atom_site_label
_atom_site_type_symbol
_atom_site_description
_atom_site_fract_x
_atom_site_fract_y
_atom_site_fract_z
_atom_type_partial_charge
P1    P     P_3+3 0.071950 0.575820 0.612140 0.480637
O1    O     O_2   0.906480 0.548660 0.619050 -0.367985
O2    O     O_3   0.138490 0.548590 0.558870 -0.407549
O3    O     O_3   0.686300 0.382310 0.585700 -0.348489
O4    O     O_2   0.851260 0.420519 0.672771 -0.444964
O5    O     O_3   0.035822 0.693754 0.627545 -0.551976
O6    O     O_3   0.640924 0.301973 0.670028 -0.609017
H1    H     H_    0.890638 0.257451 0.653238 0.113111
C1    C     C_3   0.841232 0.241358 0.728908 -0.966652
H2    H     H_    0.870540 0.309129 0.745133 0.242383
H3    H     H_    0.740033 0.225825 0.750639 0.282154
P2    P     P_3+3 0.664370 0.290050 0.457240 0.526333
P3    P     P_3+3 0.144394 0.219156 0.558429 0.493512
O7    O     O_2   0.844040 0.276390 0.471470 -0.363956
O8    O     O_3   0.101510 0.335500 0.560330 -0.361812
O9    O     O_2   0.992230 0.178188 0.534432 -0.343360
O10   O     O_3   0.659789 0.263832 0.391592 -0.531695
O11   O     O_3   0.154025 0.198149 0.620752 -0.548617
C2    C     C_3   0.295240 0.229426 0.644466 0.337690
H4    H     H_    0.295478 0.301795 0.641028 0.107585
H5    H     H_    0.408975 0.187655 0.627996 0.131553
C3    C     C_3   0.296906 0.220809 0.700106 -0.817937
H6    H     H_    0.415746 0.236665 0.718179 0.277891
H7    H     H_    0.193777 0.268894 0.718781 0.242791
C4    C     C_3   0.240534 0.266179 0.336907 0.840279
C5    C     C_3   0.114339 0.235311 0.297035 -1.018451
H8    H     H_    0.031044 0.294511 0.286206 0.244893
H9    H     H_    0.177835 0.198961 0.262643 0.274451
H10   H     H_    0.041229 0.189427 0.311691 0.260936
Ba1   Ba    Ba6+2 0.860050 0.456430 0.522530 1.610354
C6    C     C_3   0.977987 0.733583 0.585083 0.375859
H11   H     H_    0.859049 0.711911 0.572040 0.097926
H12   H     H_    0.067153 0.714661 0.554272 0.138649
C7    C     C_3   0.953779 0.835901 0.599529 -0.867486
H13   H     H_    0.857647 0.857182 0.628434 0.285551
H14   H     H_    0.914297 0.869885 0.566217 0.220268
H15   H     H_    0.072040 0.857635 0.614880 0.250889
C8    C     C_3   0.706087 0.333055 0.369270 0.408179
H16   H     H_    0.622938 0.397762 0.380352 0.103799
C9    C     C_3   0.693364 0.306848 0.312292 -0.960770
H17   H     H_    0.746953 0.234853 0.301356 0.298408
H18   H     H_    0.760308 0.348746 0.292749 0.209829
H19   H     H_    0.562700 0.316904 0.298929 0.251764
P4    P     P_3+3 0.117760 0.424110 0.387850 0.486339
O12   O     O_2   0.283210 0.451310 0.380920 -0.385948
O13   O     O_3   0.051220 0.451340 0.441120 -0.346176
O14   O     O_3   0.503410 0.617620 0.414290 -0.385470
O15   O     O_3   0.160250 0.305267 0.382126 -0.568716
P5    P     P_3+3 0.050700 0.780901 0.437619 0.444629
O16   O     O_3   0.617150 0.609960 0.527100 -0.385268
O17   O     O_3   0.088210 0.664420 0.439670 -0.359712
O18   O     O_2   0.188032 0.822379 0.470201 -0.396223
O19   O     O_3   0.089988 0.796721 0.376528 -0.504614
Ba2   Ba    Ba6+2 0.329780 0.543490 0.477460 1.583455
P6    P     P_3+3 0.677496 0.403446 0.651339 0.459404
C10   C     C_3   0.788083 0.240473 0.673355 0.861197
H20   H     H_    0.953293 0.190540 0.732705 0.241615
O20   O     O_3   0.572560 0.389960 0.472890 -0.389905
C11   C     C_3   0.485315 0.689814 0.632214 0.412468
H21   H     H_    0.366509 0.671430 0.615300 0.105588
H22   H     H_    0.581904 0.629018 0.629246 0.095309
C12   C     C_3   0.457853 0.726819 0.687469 -0.935383
H23   H     H_    0.368762 0.790802 0.690817 0.277045
H24   H     H_    0.406063 0.677713 0.706479 0.221493
H25   H     H_    0.577007 0.740107 0.706522 0.265601
P7    P     P_3+3 0.533000 0.723931 0.543550 0.426146
O21   O     O_2   0.345660 0.723580 0.528500 -0.384074
O22   O     O_3   0.538393 0.756422 0.608774 -0.567539
H26   H     H_    0.283772 0.150688 0.705006 0.253478
C13   C     C_3   0.949722 0.782782 0.345986 0.360193
H27   H     H_    0.844814 0.836731 0.357763 0.054229
C14   C     C_3   0.986975 0.788504 0.291876 -0.817348
H28   H     H_    0.083264 0.731306 0.277494 0.271520
H29   H     H_    0.872522 0.785582 0.268126 0.251837
H30   H     H_    0.031659 0.853350 0.289628 0.245255
P8    P     P_3+3 0.504039 0.603722 0.348467 0.485374
C15   C     C_3   0.507238 0.775531 0.369456 0.464459
H31   H     H_    0.634755 0.761956 0.385358 -0.011165
O23   O     O_2   0.338999 0.570974 0.329697 -0.368338
O24   O     O_3   0.484954 0.709739 0.328039 -0.503671
H32   H     H_    0.416516 0.776813 0.398981 0.169676
H33   H     H_    0.503540 0.920531 0.384521 0.227491
C16   C     C_3   0.480128 0.868323 0.352413 -0.889292
H34   H     H_    0.350434 0.884532 0.338338 0.282204
H35   H     H_    0.565394 0.869542 0.321778 0.255519
C17   C     C_R   0.026951 0.430725 0.176724 0.522778
O25   O     O_2   0.067830 0.362934 0.196779 -0.609983
N1    N     N_R   0.935432 0.506748 0.203104 -0.163346
C18   C     C_R   0.885739 0.582612 0.179580 0.524037
C19   C     C_2   0.730859 0.530567 0.269722 -0.173443
C20   C     C_3   0.685847 0.522106 0.322734 0.135777
C21   C     C_1   0.979253 0.480136 0.341784 0.222955
C22   C     C_2   0.019991 0.478197 0.294197 -0.231289
C23   C     C_2   0.890628 0.506483 0.255190 0.146042
C24   C     C_R   0.020230 0.506499 0.102074 -0.067416
C25   C     C_R   0.071438 0.430009 0.126335 -0.052524
C26   C     C_R   0.164916 0.353797 0.099584 -0.084699
C27   C     C_R   0.926445 0.583171 0.129027 -0.054785
C28   C     C_2   0.835089 0.523424 0.358181 -0.425776
H36   H     H_    0.205638 0.293635 0.116999 0.169253
C29   C     C_2   0.358204 0.485656 0.640574 -0.446214
C30   C     C_R   0.204086 0.429216 0.973573 0.041348
C31   C     C_R   0.045088 0.582348 0.975095 0.041918
C32   C     C_R   0.145079 0.505609 0.948984 0.084596
C33   C     C_R   0.306643 0.355682 0.946155 -0.200349
C34   C     C_R   0.346995 0.356426 0.896483 -0.084506
C35   C     C_R   0.287617 0.430456 0.871514 -0.057164
C36   C     C_R   0.186528 0.505269 0.897678 -0.065199
C37   C     C_R   0.127037 0.579790 0.872532 -0.058781
C38   C     C_R   0.169159 0.578677 0.821915 0.519775
N2    N     N_R   0.268047 0.504583 0.796419 -0.164819
C39   C     C_R   0.327448 0.430971 0.820858 0.523278
C40   C     C_2   0.467729 0.490904 0.729257 -0.162622
C41   C     C_3   0.508242 0.494535 0.674846 0.160493
C42   C     C_1   0.211169 0.521124 0.657546 0.291240
C43   C     C_2   0.172849 0.520259 0.704838 -0.195360
C44   C     C_2   0.307957 0.504117 0.743933 0.124928
O26   O     O_2   0.413942 0.365371 0.798400 -0.602948
C45   C     C_R   0.159527 0.428778 0.024407 0.041708
C46   C     C_R   0.062372 0.506252 0.050837 0.084703
C47   C     C_R   0.006655 0.583458 0.026614 0.041571
C48   C     C_R   0.208057 0.353048 0.050005 -0.203154
H37   H     H_    0.568479 0.482353 0.756857 0.150964
H38   H     H_    0.425868 0.298029 0.877570 0.167697
H39   H     H_    0.278505 0.290929 0.032701 0.128174
O27   O     O_2   0.806672 0.650155 0.202729 -0.602928
C49   C     C_R   0.875520 0.659303 0.105010 -0.081383
H40   H     H_    0.632769 0.547718 0.242481 0.164345
H41   H     H_    0.804387 0.719699 0.124783 0.168620
C50   C     C_R   0.986216 0.655498 0.948350 -0.202565
C51   C     C_R   0.026457 0.654131 0.898467 -0.084951
O28   O     O_2   0.119248 0.644346 0.800764 -0.586673
C52   C     C_R   0.914367 0.659615 0.055183 -0.201024
H42   H     H_    0.906585 0.715248 0.964597 0.127963
H43   H     H_    0.977579 0.712258 0.880139 0.169666
H44   H     H_    0.044427 0.532594 0.715615 0.178476
H45   H     H_    0.870872 0.721710 0.040454 0.127824
H46   H     H_    0.826999 0.564867 0.394892 0.160927
H47   H     H_    0.371536 0.451240 0.602172 0.170780
C53   C     C_R   0.844544 0.830995 0.463025 0.141316
C54   C     C_R   0.777849 0.924026 0.466992 -0.019204
C55   C     C_R   0.641508 0.111036 0.477268 0.017149
C56   C     C_R   0.787679 0.077036 0.450645 -0.045007
C57   C     C_R   0.855614 0.985652 0.446219 -0.193029
C58   C     C_R   0.574741 0.204605 0.484738 0.299339
H48   H     H_    0.852400 0.120081 0.432830 0.168289
H49   H     H_    0.969136 0.963854 0.425961 0.173167
C59   C     C_R   0.424056 0.233188 0.508282 -0.372725
C60   C     C_R   0.614498 0.803555 0.509471 0.233152
C61   C     C_R   0.546998 0.895811 0.514467 -0.019920
C62   C     C_R   0.627267 0.956158 0.492445 0.022400
C63   C     C_R   0.401744 0.929467 0.541143 -0.057069
C64   C     C_R   0.330982 0.019220 0.543745 -0.171573
C65   C     C_R   0.407194 0.080295 0.522103 0.003494
C66   C     C_R   0.558701 0.049215 0.497199 0.084804
C67   C     C_R   0.338082 0.172160 0.525808 0.146067
C68   C     C_R   0.757943 0.772021 0.482510 -0.528000
H50   H     H_    0.216657 0.039751 0.563612 0.185783
H51   H     H_    0.338055 0.887096 0.559808 0.169057
H52   H     H_    0.371625 0.304089 0.512345 0.167198
H53   H     H_    0.808355 0.700941 0.479493 0.173145
H54   H     H_    0.835654 0.340031 0.380275 0.105937
N3    N     N_R   0.758070 0.150498 0.649859 0.218225
O29   O     O_R   0.758333 0.084844 0.676156 -0.402243
O30   O     O_R   0.730047 0.135722 0.601501 -0.426013
H55   H     H_    0.915451 0.714891 0.347538 0.091336
H56   H     H_    0.147896 0.457810 0.283430 0.172578
H57   H     H_    0.360003 0.296079 0.962024 0.127588
H58   H     H_    0.307786 0.313614 0.321539 -0.017930
N4    N     N_R   0.359896 0.187278 0.346412 0.244157
O31   O     O_R   0.355009 0.151927 0.387471 -0.409655
O32   O     O_R   0.462760 0.146989 0.311810 -0.409384

loop_
_geom_bond_atom_site_label_1
_geom_bond_atom_site_label_2
_geom_bond_distance
_ccdc_geom_bond_type
C4    N4    1.463174 S    
C56   H48   1.078254 S    
P7    O22   1.748728 S    
C52   H45   1.075708 S    
C22   C23   1.509909 S    
C7    H15   1.110951 S    
C35   C39   1.417567 A    
N2    C39   1.386750 Am   
P8    O23   1.546420 D    
O6    P6    1.758256 S    
H1    C10   1.104059 S    
C29   H47   1.086833 S    
C24   C27   1.408281 A    
C15   H31   1.107393 S    
P4    O12   1.504112 D    
Ba1   Ba2   4.531683 S    
C10   N3    1.464852 S    
C5    H8    1.102704 S    
O16   Ba2   2.889301 S    
P3    O11   1.746715 S    
N3    O30   1.300275 A    
O14   P8    1.750295 S    
C7    H13   1.110656 S    
C51   H43   1.083637 S    
C57   H49   1.081281 S    
C8    H16   1.110326 S    
C53   C68   1.396806 A    
O2    Ba2   2.739705 S    
C17   N1    1.387220 Am   
C15   O24   1.403159 S    
C34   C35   1.400140 A    
C15   C16   1.521176 S    
C56   C57   1.396221 A    
C36   C37   1.409162 A    
C30   C33   1.416928 A    
P1    O1    1.503890 D    
C59   H52   1.082128 S    
C64   H50   1.079943 S    
C38   N2    1.385997 Am   
C21   C22   1.333126 D    
C12   H24   1.108321 S    
C31   C32   1.422828 A    
C9    H19   1.104897 S    
N3    O29   1.302228 A    
P5    O17   1.749279 S    
P2    O10   1.749473 S    
C37   C51   1.399870 A    
C35   C36   1.408936 A    
C6    H12   1.106770 S    
C28   H46   1.086135 S    
C38   O28   1.222314 D    
C13   H27   1.109970 S    
C62   C66   1.420281 A    
C55   C66   1.417471 A    
C1    H2    1.110357 S    
C3    H26   1.110955 S    
C65   C67   1.406223 A    
P4    C21   1.844462 S    
P2    O20   1.584077 S    
C9    H18   1.103229 S    
P7    O21   1.565901 D    
Ba1   O16   2.799910 S    
C63   H51   1.078548 S    
C11   H21   1.109850 S    
C8    C9    1.525923 S    
C29   C41   1.507733 S    
C55   C58   1.422907 A    
C50   H42   1.075707 S    
O6    C10   1.408133 S    
O7    Ba1   2.880874 S    
C14   H30   1.110823 S    
O19   C13   1.401468 S    
P4    O13   1.532491 S    
C19   C23   1.361359 D    
C18   O27   1.221411 D    
N1    C23   1.465960 S    
C11   H22   1.109726 S    
P1    O5    1.751583 S    
P8    O24   1.753534 S    
C2    C3    1.519643 S    
C53   C54   1.417256 A    
P7    C60   1.839250 S    
C14   H29   1.109034 S    
C54   C57   1.402316 A    
C17   O25   1.221876 D    
O11   C2    1.404675 S    
Ba2   O21   2.881181 S    
C4    C5    1.524059 S    
P1    O2    1.532489 S    
P2    C58   1.843330 S    
O2    Ba1   2.908888 S    
C49   H41   1.083674 S    
P3    C67   1.839867 S    
C26   C48   1.393878 A    
C61   C63   1.404438 A    
C11   O22   1.399360 S    
C1    H3    1.111051 S    
C16   H34   1.110709 S    
C40   H37   1.085793 S    
C15   H32   1.110136 S    
P5    O18   1.543366 D    
C25   C26   1.400297 A    
O13   Ba2   2.909630 S    
C12   H23   1.110840 S    
C6    C7    1.522541 S    
C1    C10   1.532345 S    
N1    C18   1.387751 Am   
C30   C32   1.423101 A    
O16   P7    1.752368 S    
C4    O15   1.414995 S    
C65   C66   1.418550 A    
C17   C25   1.418355 A    
O14   Ba2   2.735247 S    
C40   C44   1.360592 D    
C9    H17   1.109786 S    
C16   H35   1.110233 S    
P2    O7    1.490044 D    
O12   Ba2   2.794342 S    
P3    O8    1.733338 S    
O3    P6    1.748395 S    
C29   C42   1.312284 D    
C3    H7    1.110440 S    
P5    C53   1.855962 S    
O1    Ba1   2.793981 S    
C31   C47   1.432692 A    
C68   H53   1.081859 S    
C32   C36   1.435914 A    
C58   C59   1.391736 A    
C46   C47   1.423010 A    
C54   C62   1.421169 A    
O8    Ba1   2.736677 S    
C42   C43   1.327152 D    
C40   C41   1.526814 S    
Ba2   O20   2.799341 S    
C45   C48   1.417005 A    
C4    H58   1.107189 S    
C27   C49   1.400114 A    
C11   C12   1.521587 S    
C26   H36   1.083645 S    
C12   H25   1.110628 S    
P2    Ba1   3.413274 S    
C55   C56   1.410636 A    
O4    P6    1.551864 D    
C6    H11   1.099756 S    
C49   C52   1.393036 A    
C14   H28   1.111038 S    
C45   C46   1.422840 A    
C43   H44   1.084374 S    
P6    C41   1.855111 S    
C24   C46   1.436002 A    
C59   C67   1.392693 A    
C33   C34   1.393696 A    
C5    H9    1.110639 S    
C61   C62   1.416771 A    
C33   H57   1.075744 S    
Ba1   O13   2.739134 S    
C18   C27   1.417004 A    
N2    C44   1.462957 S    
O17   Ba2   2.737098 S    
C47   C52   1.416672 A    
C2    H4    1.113007 S    
C13   H55   1.114075 S    
C50   C51   1.393254 A    
C37   C38   1.417496 A    
C39   O26   1.221710 D    
C19   C20   1.518400 S    
N4    O32   1.301185 A    
C48   H39   1.075741 S    
P5    O19   1.747249 S    
Ba1   O20   2.890130 S    
P1    Ba1   3.366720 S    
C7    H14   1.107214 S    
C43   C44   1.502748 S    
O5    C6    1.396335 S    
C1    H20   1.110410 S    
O10   C8    1.392037 S    
C31   C50   1.416906 A    
P8    C20   1.866698 S    
P4    Ba2   3.367196 S    
C8    H54   1.103040 S    
C63   C64   1.382513 A    
C22   H56   1.084599 S    
C5    H10   1.110303 S    
H33   C16   1.110258 S    
N4    O31   1.301349 A    
P3    O9    1.547060 D    
C34   H38   1.083675 S    
C24   C25   1.408765 A    
C19   H40   1.085492 S    
C3    H6    1.108989 S    
C13   C14   1.518900 S    
P1    C42   1.825676 S    
C20   C28   1.510720 S    
C64   C65   1.400716 A    
C60   C61   1.406852 A    
C60   C68   1.391691 A    
O3    Ba1   2.735760 S    
C30   C45   1.433277 A    
P4    O15   1.761614 S    
C21   C28   1.317942 D    
C2    H5    1.110725 S    
