data_mof_unit_63700.cif
_audit_creation_date              2012-10-26T17:27:55-0400
_audit_creation_method            fapswitch 2.2
_symmetry_space_group_name_H-M    P1
_symmetry_Int_Tables_number       1
_space_group_crystal_system       triclinic
_cell_length_a                    18.687035
_cell_length_b                    18.772019
_cell_length_c                    18.91539
_cell_angle_alpha                 109.528269
_cell_angle_beta                  109.946487
_cell_angle_gamma                 109.073532
_cell_volume                      5099.20207838

loop_
_atom_site_label
_atom_site_type_symbol
_atom_type_description
_atom_site_fract_x
_atom_site_fract_y
_atom_site_fract_z
_atom_type_partial_charge
C1    C     C_R   0.619204 0.619017 0.500558 0.550645
C2    C     C_R   0.737965 0.747517 0.422837 0.024483
C3    C     C_3   0.730946 0.683535 0.344502 -0.273583
C4    C     C_R   0.380742 0.500279 0.380518 0.552645
C5    C     C_3   0.662452 0.612470 0.344741 -0.267110
C6    C     C_R   0.736942 0.465031 0.672716 0.018075
C7    C     C_R   0.685010 0.499414 0.687964 -0.017364
C8    C     C_R   0.699652 0.535881 0.773622 -0.118644
C9    C     C_R   0.765198 0.537118 0.840697 -0.019260
C10   C     C_R   0.816907 0.501696 0.820782 -0.008711
C11   C     C_R   0.800290 0.467093 0.736181 0.007077
C12   C     C_3   0.205199 0.421959 0.179827 -0.117018
C13   C     C_3   0.828329 0.424217 0.677901 -0.279805
C14   C     C_3   0.756271 0.422337 0.605282 -0.256608
C15   C     C_R   0.243566 0.243258 0.425722 0.016330
C16   C     C_R   0.381551 0.381336 0.500107 0.551635
C17   C     C_R   0.316858 0.315261 0.501808 0.019274
C18   C     C_R   0.325232 0.322163 0.581192 -0.150883
C19   C     C_R   0.260863 0.256784 0.581264 -0.152172
C20   C     C_R   0.186234 0.185691 0.502008 0.018384
C21   C     C_R   0.180387 0.182469 0.425851 0.017911
C22   C     C_3   0.125190 0.130895 0.329301 -0.269800
C23   C     C_3   0.214252 0.439927 0.269328 -0.113703
C24   C     C_3   0.196985 0.200906 0.329207 -0.271484
C25   C     C_R   0.003041 0.618790 0.121527 0.538028
C26   C     C_R   0.123695 0.500279 0.123354 0.552381
C27   C     C_R   0.004071 0.381345 0.885465 0.551326
C28   C     C_R   0.619289 0.499688 0.619792 0.550701
C29   C     C_R   0.884277 0.499870 0.884640 0.529396
C30   C     C_R   0.998852 0.118562 0.617738 0.550125
C31   C     C_R   0.880888 0.881221 0.499660 0.547870
C32   C     C_R   0.001093 0.881578 0.382331 0.549311
C33   C     C_R   0.118944 0.118701 0.500372 0.550021
C34   C     C_3   0.313116 0.500699 0.312514 0.045559
C35   C     C_R   0.001432 0.681384 0.257749 0.021541
C36   C     C_R   0.001956 0.685630 0.186175 0.018355
C37   C     C_R   0.002396 0.758415 0.179440 -0.146013
C38   C     C_R   0.001122 0.822911 0.243467 -0.143352
C39   C     C_R   0.002382 0.816502 0.316119 0.019773
C40   C     C_3   0.300176 0.579618 0.324055 -0.121612
C41   C     C_R   0.003519 0.744671 0.320607 0.016584
C42   C     C_3   0.003421 0.700597 0.373021 -0.270700
C43   C     C_3   0.002024 0.628745 0.301657 -0.270290
C44   C     C_R   0.004031 0.243752 0.820240 0.017459
C45   C     C_R   0.675499 0.682867 0.422853 0.012687
C46   C     C_R   0.001145 0.315198 0.816388 0.020883
C47   C     C_R   0.995321 0.320902 0.742255 -0.156272
C48   C     C_R   0.992509 0.255244 0.675351 -0.154937
C49   C     C_R   0.998376 0.185006 0.683540 0.018708
C50   C     C_R   0.004517 0.182667 0.757794 0.020022
C51   C     C_3   0.012725 0.132725 0.804017 -0.268808
C52   C     C_3   0.200236 0.518841 0.279811 -0.116002
C53   C     C_3   0.012956 0.203024 0.875748 -0.273707
C54   C     C_3   0.192282 0.500857 0.191403 0.045901
C55   C     C_3   0.291240 0.561645 0.234633 -0.123869
C56   C     C_R   0.684668 0.687134 0.500752 0.015406
C57   C     C_3   0.305173 0.482746 0.224083 -0.121934
C58   C     C_2   0.780013 0.576886 0.930342 0.228380
C59   C     C_R   0.753810 0.762681 0.579626 -0.152731
C60   C     C_R   0.818633 0.826844 0.579692 -0.155019
C61   C     C_R   0.812878 0.817116 0.500700 0.018594
Cu1   Cu    Cu3+1 0.500490 0.438210 0.438660 0.915367
Cu2   Cu    Cu3+1 0.499510 0.561790 0.561340 0.937496
Cu3   Cu    Cu3+1 0.942090 0.438240 0.003860 0.928185
Cu4   Cu    Cu3+1 0.065700 0.561800 0.003830 0.927815
Cu5   Cu    Cu3+1 0.937720 0.000020 0.437750 0.936513
Cu6   Cu    Cu3+1 0.062280 0.000080 0.562350 0.924759
H1    H     H_    0.155981 0.533691 0.301367 0.106897
H2    H     H_    0.061748 0.130464 0.305542 0.146249
H3    H     H_    0.233272 0.176302 0.301404 0.147122
H4    H     H_    0.175109 0.241247 0.305973 0.128378
H5    H     H_    0.002367 0.764679 0.124544 0.128720
H6    H     H_    0.000438 0.877881 0.236906 0.124843
H7    H     H_    0.065440 0.738294 0.436645 0.147316
H8    H     H_    0.942072 0.678662 0.375890 0.129298
H9    H     H_    0.063501 0.625397 0.323930 0.128603
H10   H     H_    0.992085 0.375117 0.735740 0.120328
H11   H     H_    0.987773 0.260362 0.618746 0.128601
H12   H     H_    0.792273 0.680208 0.358723 0.128077
H13   H     H_    0.953372 0.067448 0.768465 0.131190
H14   H     H_    0.076313 0.133364 0.824983 0.146364
H15   H     H_    0.953986 0.178304 0.882010 0.146680
H16   H     H_    0.076860 0.244499 0.937848 0.127649
H17   H     H_    0.349392 0.467998 0.202400 0.118620
H18   H     H_    0.165018 0.357386 0.119417 0.104292
H19   H     H_    0.184056 0.390059 0.284855 0.102550
H20   H     H_    0.759988 0.769966 0.641042 0.129543
H21   H     H_    0.703546 0.691724 0.287457 0.151124
H22   H     H_    0.595618 0.579642 0.287770 0.138294
H23   H     H_    0.660192 0.563173 0.788211 0.182837
H24   H     H_    0.684132 0.567971 0.359313 0.148830
H25   H     H_    0.831818 0.580917 0.982842 0.122798
H26   H     H_    0.701185 0.355534 0.553937 0.147089
H27   H     H_    0.340250 0.644310 0.384300 0.123829
H28   H     H_    0.321927 0.611629 0.219458 0.127495
H29   H     H_    0.940130 0.565208 0.263772 0.147095
H30   H     H_    0.873746 0.882869 0.641021 0.120371
H31   H     H_    0.896011 0.468276 0.695788 0.139110
H32   H     H_    0.814671 0.358575 0.668800 0.137759
H33   H     H_    0.782415 0.465561 0.581460 0.138548
H34   H     H_    0.381512 0.377019 0.642523 0.133175
H35   H     H_    0.268547 0.262564 0.642669 0.131843
H36   H     H_    0.120402 0.065978 0.302091 0.132319
O1    O     O_R   0.590590 0.537990 0.448210 -0.515481
O2    O     O_R   0.051820 0.090220 0.642110 -0.512460
O3    O     O_R   0.857230 0.909860 0.447430 -0.501906
O4    O     O_R   0.589760 0.642350 0.551800 -0.509620
O5    O     O_R   0.962420 0.909900 0.552660 -0.516570
O6    O     O_R   0.948170 0.909880 0.357990 -0.510769
O7    O     O_R   0.053360 0.909920 0.463210 -0.508417
O8    O     O_R   0.037580 0.090200 0.447440 -0.512781
O9    O     O_R   0.142770 0.090240 0.552670 -0.510489
O10   O     O_R   0.409550 0.447830 0.357350 -0.515942
O11   O     O_R   0.408710 0.552190 0.460940 -0.510733
O12   O     O_R   0.055390 0.642370 0.093330 -0.513396
O13   O     O_R   0.410240 0.357650 0.448200 -0.508660
O14   O     O_R   0.409410 0.462010 0.551790 -0.510976
O15   O     O_R   0.591290 0.447810 0.539060 -0.507197
O16   O     O_R   0.590450 0.552170 0.642650 -0.517552
O17   O     O_R   0.951010 0.538020 0.093350 -0.513457
O18   O     O_2   0.734526 0.606057 0.946873 -0.511912
O19   O     O_R   0.042570 0.447840 0.094710 -0.513968
O20   O     O_R   0.146960 0.552180 0.094690 -0.511354
O21   O     O_R   0.952400 0.357670 0.914360 -0.507593
O22   O     O_R   0.056780 0.462020 0.914330 -0.511066
O23   O     O_R   0.860840 0.447860 0.913000 -0.512520
O24   O     O_R   0.965220 0.552200 0.912980 -0.511175
O25   O     O_R   0.946640 0.090180 0.536890 -0.512057

loop_
_geom_bond_atom_site_label_1
_geom_bond_atom_site_label_2
_ccdc_geom_bond_type
C11   C13   S    
C41   C42   S    
C31   C61   S    
C35   C36   A    
C3    H12   S    
C24   H3    S    
C7    C8    A    
C39   C41   A    
C12   C23   S    
C42   H8    S    
C37   C38   A    
C32   O7    A    
C12   H18   S    
C34   C40   S    
Cu4   O24   S    
C4    O11   A    
C36   C37   A    
C1    C56   S    
C18   C19   A    
C25   O12   A    
C38   C39   A    
Cu2   O14   S    
C19   H35   S    
Cu6   O5    S    
C26   C54   S    
C9    C58   S    
C31   O5    A    
C32   C39   S    
C48   H11   S    
C13   H31   S    
C51   H13   S    
C21   C22   S    
C54   C55   S    
Cu2   O11   S    
C44   C53   S    
C30   O25   A    
C19   C20   A    
C45   C56   A    
C52   C54   S    
C16   C17   S    
C23   H19   S    
C34   C57   S    
C33   O8    A    
Cu5   O8    S    
C35   C43   S    
C9    C10   A    
C51   H14   S    
C22   H2    S    
C52   H1    S    
C2    C61   A    
C23   C34   S    
Cu5   Cu6   S    
C59   C60   A    
C12   C54   S    
C13   C14   S    
Cu4   O12   S    
Cu5   O3    S    
C16   O13   A    
C44   C46   A    
C50   C51   S    
Cu1   O1    S    
C2    C45   A    
C4    C34   S    
C42   H7    S    
C32   O6    A    
C4    O10   A    
Cu1   O10   S    
C55   H28   S    
C60   H30   S    
C6    C11   A    
C8    C9    A    
C40   C52   S    
C5    C45   S    
C7    C28   S    
C60   C61   A    
C51   C53   S    
C18   H34   S    
Cu4   O22   S    
C13   H32   S    
Cu1   O13   S    
Cu1   Cu2   S    
C6    C14   S    
Cu2   O16   S    
Cu6   O7    S    
C47   C48   A    
C40   C55   S    
C17   C18   A    
C57   H17   S    
C33   O9    A    
C1    O1    A    
C5    H24   S    
C1    O4    A    
C12   C57   S    
C27   C46   S    
C48   C49   A    
C30   C49   S    
Cu3   O23   S    
C55   C57   S    
C30   O2    A    
C31   O3    A    
C22   C24   S    
C8    H23   S    
C42   C43   S    
C20   C33   S    
Cu2   O4    S    
C25   O17   A    
C44   C50   A    
C43   H9    S    
C15   C17   A    
C46   C47   A    
C15   C24   S    
C58   O18   D    
C14   H26   S    
C3    H21   S    
Cu6   O2    S    
C40   H27   S    
C3    C5    S    
C28   O16   A    
C27   O21   A    
C14   H33   S    
C6    C7    A    
Cu3   O17   S    
C56   C59   A    
C53   H16   S    
Cu3   Cu4   S    
C29   O24   A    
C2    C3    S    
Cu3   O21   S    
C16   O14   A    
C27   O22   A    
C10   C29   S    
C23   C52   S    
Cu3   O19   S    
Cu5   O25   S    
Cu4   O20   S    
Cu5   O6    S    
C35   C41   A    
C59   H20   S    
Cu1   O15   S    
C10   C11   A    
C22   H36   S    
C25   C36   S    
Cu6   O9    S    
C15   C21   A    
C20   C21   A    
C49   C50   A    
C26   O20   A    
C37   H5    S    
C43   H29   S    
C47   H10   S    
C53   H15   S    
C28   O15   A    
C26   O19   A    
C29   O23   A    
C58   H25   S    
C5    H22   S    
C24   H4    S    
C38   H6    S    
