data_mof_unit_48941.cif
_audit_creation_date              2012-12-10T17:46:58-0500
_audit_creation_method            fapswitch 2.2
_symmetry_space_group_name_H-M    P1
_symmetry_Int_Tables_number       1
_space_group_crystal_system       triclinic
_cell_length_a                    9.981099
_cell_length_b                    10.76844
_cell_length_c                    13.612678
_cell_angle_alpha                 93.613244
_cell_angle_beta                  81.996251
_cell_angle_gamma                 90.499018
_cell_volume                      1445.97023161

loop_
_atom_site_label
_atom_site_type_symbol
_atom_type_description
_atom_site_fract_x
_atom_site_fract_y
_atom_site_fract_z
_atom_type_partial_charge
C1    C     C_R   0.502461 0.737925 0.488727 0.900607
C2    C     C_R   0.628573 0.933902 0.469145 0.301896
C3    C     C_R   0.625904 0.063129 0.474379 0.348583
C4    C     C_R   0.475100 0.496980 0.685343 0.885514
C5    C     C_R   0.500064 0.124911 0.501662 -0.222935
C6    C     C_R   0.835300 0.683224 0.611584 -0.129452
C7    C     C_R   0.889921 0.790726 0.649312 -0.318962
C8    C     C_R   0.028503 0.800114 0.647999 0.426121
C9    C     C_R   0.109887 0.694679 0.616450 0.207927
C10   C     C_R   0.060388 0.593166 0.556909 -0.012478
C11   C     C_R   0.916493 0.591301 0.555452 0.130436
C12   C     C_1   0.456082 0.488337 0.788852 -0.200896
C13   C     C_R   0.938113 0.413928 0.445331 -0.131886
C14   C     C_R   0.081353 0.414982 0.443451 0.262066
C15   C     C_R   0.499135 0.259697 0.502862 0.920516
C16   C     C_R   0.525263 0.499430 0.314355 0.879907
C17   C     C_1   0.545075 0.499417 0.210129 -0.174235
C18   C     C_2   0.552003 0.498391 0.018310 -0.243540
C19   C     C_2   0.435104 0.482183 0.981557 0.260663
C20   C     C_1   0.442801 0.483369 0.876625 -0.035927
C21   C     C_1   0.554401 0.499165 0.122115 0.010052
C22   C     C_3   0.186423 0.455010 0.998496 -0.771573
C23   C     C_R   0.272910 0.880420 0.429554 -0.335711
C24   C     C_3   0.176014 0.647138 0.771817 -0.738502
C25   C     C_3   0.172752 0.355768 0.274800 -0.753735
C26   C     C_R   0.147758 0.941520 0.445049 0.396026
C27   C     C_R   0.131548 0.049646 0.508292 0.437875
C28   C     C_R   0.245898 0.104590 0.544525 0.354518
C29   C     C_R   0.377129 0.056251 0.507457 -0.156207
C30   C     C_R   0.385215 0.933669 0.468254 -0.045646
C31   C     C_R   0.506506 0.868848 0.469682 -0.161820
H1    H     H_    0.728528 0.675746 0.627851 0.217092
H2    H     H_    0.013667 0.966091 0.714868 0.357446
H3    H     H_    0.282100 0.757540 0.669533 0.258122
H4    H     H_    0.262282 0.655308 0.814793 0.225527
H5    H     H_    0.137240 0.550105 0.771646 0.250164
H6    H     H_    0.096134 0.710689 0.811109 0.242229
H7    H     H_    0.132183 0.238057 0.387891 0.225368
H8    H     H_    0.075654 0.335013 0.245882 0.218515
H9    H     H_    0.253664 0.297463 0.230744 0.252208
H10   H     H_    0.198402 0.455216 0.265442 0.248166
H11   H     H_    0.810388 0.921068 0.499733 0.402468
H12   H     H_    0.823042 0.863689 0.685451 0.161673
H13   H     H_    0.065396 0.815888 0.363491 0.333651
H14   H     H_    0.006841 0.177450 0.574078 0.370879
H15   H     H_    0.306940 0.200728 0.655279 0.337939
H16   H     H_    0.808804 0.078851 0.404035 0.377998
H17   H     H_    0.646914 0.511154 0.970063 0.149195
H18   H     H_    0.283252 0.793577 0.384542 0.177500
H19   H     H_    0.892224 0.344206 0.399904 0.185705
H20   H     H_    0.297553 0.519129 0.110376 0.227448
H21   H     H_    0.100195 0.432452 0.055339 0.238827
H22   H     H_    0.196220 0.378912 0.938921 0.260869
H23   H     H_    0.164647 0.544406 0.967560 0.237898
N1    N     N_R   0.857120 0.501200 0.500900 -0.116345
N2    N     N_R   0.142720 0.501280 0.500940 -0.105604
N3    N     N_2   0.308924 0.465841 0.044176 -0.293831
N4    N     N_2   0.219056 0.680991 0.670511 -0.222589
N5    N     N_2   0.162046 0.328679 0.378306 -0.259017
O1    O     O_R   0.385310 0.683220 0.500000 -0.642097
O2    O     O_3   0.749536 0.870864 0.461437 -0.709543
O3    O     O_3   0.038258 0.893945 0.403652 -0.731030
O4    O     O_3   0.002740 0.097716 0.534228 -0.748894
O5    O     O_3   0.225271 0.195723 0.621223 -0.755185
O6    O     O_3   0.744803 0.129149 0.452704 -0.726992
O7    O     O_R   0.614640 0.683250 0.500010 -0.575669
O8    O     O_R   0.368830 0.499960 0.640340 -0.567291
O9    O     O_R   0.598160 0.499980 0.640350 -0.643280
O10   O     O_R   0.385360 0.316750 0.499990 -0.580099
O11   O     O_R   0.614690 0.316780 0.500000 -0.545948
O12   O     O_R   0.401840 0.500020 0.359650 -0.607652
O13   O     O_R   0.631170 0.500040 0.359660 -0.602669
O14   O     O_3   0.084463 0.901901 0.694433 -0.783840
Zn1   Zn    Zn3+2 0.346870 0.499980 0.499990 0.980772
Zn2   Zn    Zn3+2 0.653130 0.500020 0.500010 0.990714

loop_
_geom_bond_atom_site_label_1
_geom_bond_atom_site_label_2
_ccdc_geom_bond_type
C8    C9    A    
C4    O8    A    
C14   N2    A    
C6    C7    A    
H20   N3    S    
C7    H12   S    
O12   Zn1   S    
C18   C21   S    
C10   N2    A    
C9    C10   A    
H2    O14   S    
C6    H1    S    
C19   C20   S    
C16   O13   A    
C2    O2    S    
C1    C31   S    
C27   C28   A    
N1    Zn2   S    
C12   C20   T    
C22   N3    S    
C2    C3    A    
C26   O3    S    
C11   N1    A    
C7    C8    A    
C22   H23   S    
O8    Zn1   S    
C24   H5    S    
C13   C14   A    
C19   N3    S    
O9    Zn2   S    
C14   N5    S    
H11   O2    S    
C25   H8    S    
C26   C27   A    
C29   C30   A    
C16   O12   A    
C27   O4    S    
O13   Zn2   S    
C15   O10   A    
O7    Zn2   S    
C28   O5    S    
C2    C31   A    
C24   N4    S    
C8    O14   S    
C1    O1    A    
C9    N4    S    
C1    O7    A    
C22   H22   S    
C5    C29   A    
C6    C11   A    
C25   H9    S    
C30   C31   A    
C3    O6    S    
C5    C15   S    
C24   H4    S    
C23   H18   S    
C10   C11   A    
H15   O5    S    
C25   H10   S    
H7    N5    S    
C23   C30   A    
C3    C5    A    
O10   Zn1   S    
N2    Zn1   S    
O11   Zn2   S    
C22   H21   S    
C18   C19   D    
C23   C26   A    
O1    Zn1   S    
C24   H6    S    
H3    N4    S    
C15   O11   A    
C28   C29   A    
C25   N5    S    
H13   O3    S    
C4    C12   S    
C4    O9    A    
H14   O4    S    
C17   C21   T    
C13   H19   S    
H16   O6    S    
C16   C17   S    
C13   N1    A    
C18   H17   S    
