data_mof_unit_49867.cif
_audit_creation_date              2013-03-05T15:49:18-0500
_audit_creation_method            fapswitch 2.2
_symmetry_space_group_name_H-M    P1
_symmetry_Int_Tables_number       1
_space_group_crystal_system       triclinic
_cell_length_a                    20.544061
_cell_length_b                    22.799762
_cell_length_c                    6.948176
_cell_angle_alpha                 89.934751
_cell_angle_beta                  87.709566
_cell_angle_gamma                 89.988377
_cell_volume                      3251.92131504

loop_
_atom_site_label
_atom_site_type_symbol
_atom_site_description
_atom_site_fract_x
_atom_site_fract_y
_atom_site_fract_z
_atom_type_partial_charge
O1    O     O_R   0.387100 0.552640 0.378490 -0.583872
O2    O     O_R   0.612900 0.052640 0.621510 -0.584330
O3    O     O_R   0.249610 0.559600 0.072250 -0.601830
O4    O     O_R   0.750390 0.059600 0.927750 -0.600659
O5    O     O_R   0.249120 0.447360 0.902040 -0.609468
O6    O     O_R   0.750880 0.947360 0.097960 -0.609621
C1    C     C_R   0.227212 0.573586 0.243039 1.023685
C2    C     C_R   0.772705 0.073648 0.756838 1.021624
O7    O     O_R   0.386610 0.559560 0.048860 -0.591469
O8    O     O_R   0.613390 0.059560 0.951140 -0.591464
O9    O     O_R   0.387100 0.447320 0.878470 -0.580327
O10   O     O_R   0.612900 0.947320 0.121530 -0.579722
C3    C     C_R   0.407821 0.574761 0.215019 1.224924
C4    C     C_R   0.592174 0.074756 0.784713 1.225241
O11   O     O_R   0.249120 0.552680 0.402050 -0.601798
O12   O     O_R   0.750880 0.052680 0.597950 -0.602430
O13   O     O_3   0.318110 0.463180 0.223790 -0.286010
O14   O     O_3   0.681890 0.963180 0.776210 -0.285668
V1    V     V_3+5 0.318110 0.506830 0.948930 1.228998
V2    V     V_3+5 0.681890 0.006830 0.051070 1.229391
O15   O     O_R   0.386610 0.440400 0.548840 -0.588292
O16   O     O_R   0.613390 0.940400 0.451160 -0.588017
C5    C     C_R   0.408047 0.425410 0.715380 1.003077
C6    C     C_R   0.592005 0.925385 0.284875 1.001352
O17   O     O_R   0.249610 0.440440 0.572240 -0.612457
O18   O     O_R   0.750390 0.940440 0.427760 -0.612234
C7    C     C_R   0.227057 0.426592 0.743110 1.009148
C8    C     C_R   0.772892 0.926536 0.256996 1.008658
V3    V     V_3+5 0.318110 0.493170 0.448930 1.225608
V4    V     V_3+5 0.681890 0.993170 0.551070 1.225280
O19   O     O_3   0.318110 0.536820 0.723940 -0.273959
O20   O     O_3   0.681890 0.036820 0.276060 -0.274406
C9    C     C_R   0.174471 0.382490 0.753915 -0.250522
C10   C     C_R   0.825303 0.882270 0.246379 -0.251066
C11   C     C_R   0.133712 0.375526 0.598036 -0.287990
C12   C     C_R   0.865983 0.875046 0.402359 -0.287472
C13   C     C_R   0.086101 0.331401 0.597957 0.414518
C14   C     C_R   0.913444 0.830779 0.402450 0.415025
C15   C     C_R   0.078053 0.294304 0.761490 -0.149543
C16   C     C_R   0.921428 0.793823 0.238820 -0.150567
C17   C     C_R   0.120683 0.300149 0.913736 0.853225
C18   C     C_R   0.878810 0.799875 0.086608 0.853584
C19   C     C_R   0.167503 0.344528 0.911760 -0.298616
C20   C     C_R   0.832137 0.844386 0.088568 -0.300100
C21   C     C_R   0.911883 0.170677 0.896999 -0.154886
C22   C     C_R   0.088463 0.671110 0.101383 -0.155261
C23   C     C_R   0.865630 0.125891 0.899956 -0.094336
C24   C     C_R   0.134879 0.626442 0.098162 -0.096073
C25   C     C_R   0.829414 0.157528 0.588597 -0.088283
C26   C     C_R   0.169264 0.656377 0.413065 -0.082940
C27   C     C_R   0.874830 0.203214 0.587745 0.028185
C28   C     C_R   0.123728 0.701969 0.414200 0.029018
C29   C     C_R   0.916579 0.209814 0.741245 -0.042249
C30   C     C_R   0.082871 0.709380 0.258965 -0.048734
C31   C     C_2   0.027108 0.248295 0.777467 -0.246282
C32   C     C_2   0.972396 0.747846 0.222537 -0.246140
C33   C     C_2   0.964417 0.258083 0.737616 0.785569
C34   C     C_2   0.035039 0.757618 0.262690 0.786497
C35   C     C_R   0.824007 0.118853 0.745831 -0.127432
C36   C     C_R   0.175733 0.618656 0.253851 -0.137174
H1    H     H_    0.140121 0.403707 0.473049 0.185647
H2    H     H_    0.859639 0.903141 0.527372 0.185722
H3    H     H_    0.862279 0.096790 0.023327 0.124770
H4    H     H_    0.138955 0.598037 0.973366 0.125875
H5    H     H_    0.797363 0.153463 0.469266 0.155538
H6    H     H_    0.200595 0.651672 0.533882 0.160265
H7    H     H_    0.943045 0.175513 0.018121 0.147153
H8    H     H_    0.057892 0.676565 0.979142 0.147822
H9    H     H_    0.199615 0.348041 0.031152 0.183513
H10   H     H_    0.800047 0.848078 0.969151 0.183894
H11   H     H_    0.041648 0.205159 0.826789 0.154013
H12   H     H_    0.957968 0.704779 0.172636 0.154811
H13   H     H_    0.877812 0.233138 0.466470 0.172374
H14   H     H_    0.119971 0.731199 0.536983 0.174287
C37   C     C_R   0.578128 0.365256 0.734758 0.906935
C38   C     C_R   0.421770 0.864746 0.298774 0.900560
H15   H     H_    0.534832 0.450753 0.733073 0.184518
H16   H     H_    0.464776 0.950088 0.314797 0.180715
C39   C     C_R   0.462452 0.383026 0.720040 -0.265222
C40   C     C_R   0.537665 0.882961 0.281867 -0.264358
C41   C     C_R   0.475198 0.096100 0.812364 0.655693
C42   C     C_R   0.524496 0.596306 0.177855 0.655805
C43   C     C_R   0.422372 0.133814 0.828708 -0.315097
C44   C     C_R   0.576918 0.634178 0.153956 -0.314574
C45   C     C_R   0.430490 0.194255 0.812385 0.707568
C46   C     C_R   0.568766 0.694601 0.170237 0.707121
C47   C     C_R   0.492990 0.219145 0.769596 -0.132128
C48   C     C_R   0.506811 0.719350 0.221777 -0.131630
C49   C     C_R   0.547985 0.180118 0.762022 -0.250748
C50   C     C_R   0.452066 0.680106 0.237183 -0.252288
C51   C     C_R   0.503149 0.281275 0.743413 0.081807
C52   C     C_R   0.496852 0.781415 0.251410 0.085750
C53   C     C_R   0.568077 0.303687 0.733927 -0.354351
C54   C     C_R   0.431929 0.803529 0.275055 -0.356670
C55   C     C_R   0.621390 0.264379 0.725690 0.235928
C56   C     C_R   0.378752 0.764113 0.279917 0.237971
C57   C     C_R   0.611083 0.203903 0.736908 0.633828
C58   C     C_R   0.389107 0.703724 0.267732 0.635041
C59   C     C_R   0.451242 0.322253 0.723568 -0.108141
C60   C     C_R   0.549064 0.822462 0.263719 -0.111504
C61   C     C_R   0.525769 0.403933 0.730459 -0.247420
C62   C     C_R   0.474049 0.903527 0.298199 -0.242624
C63   C     C_R   0.538291 0.118125 0.782867 -0.385288
C64   C     C_R   0.461699 0.618143 0.215120 -0.384439
H17   H     H_    0.401784 0.308706 0.704800 0.193855
H18   H     H_    0.599161 0.809223 0.267656 0.194787
H19   H     H_    0.374258 0.115979 0.860197 0.220810
H20   H     H_    0.624639 0.616483 0.115972 0.220851
N1    N     N_R   0.687023 0.284839 0.694463 0.302167
O21   O     O_R   0.704211 0.309982 0.532065 -0.275890
O22   O     O_R   0.731789 0.269108 0.811381 -0.285731
N2    N     N_R   0.312783 0.784560 0.296118 0.306251
O23   O     O_R   0.286817 0.809153 0.148530 -0.255794
O24   O     O_R   0.275594 0.769166 0.443513 -0.306280
F1    F     F_    0.638361 0.389019 0.747370 -0.608399
F2    F     F_    0.361392 0.888089 0.326977 -0.609802
F3    F     F_    0.464919 0.037521 0.832970 -0.673142
F4    F     F_    0.534697 0.537777 0.155651 -0.674169
F5    F     F_    0.376904 0.226998 0.855637 -0.694960
F6    F     F_    0.621563 0.727358 0.118441 -0.695286
F7    F     F_    0.664287 0.168659 0.720876 -0.719288
F8    F     F_    0.335740 0.668589 0.278883 -0.718530
F9    F     F_    0.944393 0.312384 0.683757 -0.617370
F10   F     F_    0.055015 0.811841 0.317039 -0.617121
F11   F     F_    0.117458 0.262232 0.064293 -0.641258
F12   F     F_    0.881924 0.762060 0.936058 -0.641078
N3    N     N_R   0.049565 0.323093 0.427330 0.287528
O25   O     O_R   0.038737 0.367219 0.313965 -0.342172
O26   O     O_R   0.033342 0.270711 0.372618 -0.341250
N4    N     N_R   0.949911 0.822197 0.573136 0.287816
O27   O     O_R   0.960840 0.866175 0.686675 -0.341923
O28   O     O_R   0.966015 0.769717 0.627627 -0.341966

loop_
_geom_bond_atom_site_label_1
_geom_bond_atom_site_label_2
_geom_bond_distance
_ccdc_geom_bond_type
V4    O20   2.153447 S    
C47   C51   1.442132 A    
H16   C62   1.083955 S    
O13   V3    1.707935 S    
H15   C61   1.083924 S    
O4    C2    1.295625 A    
V1    O19   1.705553 S    
N2    O24   1.300951 A    
C15   C17   1.406481 A    
O18   C8    1.295732 A    
C7    C9    1.475682 S    
C56   N2    1.433345 S    
O9    V1    2.008665 S    
C25   H5    1.083260 S    
C14   N4    1.441005 S    
C39   C59   1.404674 A    
C11   C13   1.403307 A    
C44   C46   1.391920 A    
C43   H19   1.083014 S    
O3    C1    1.295672 A    
N1    O22   1.301262 A    
C2    C35   1.474038 S    
C23   H3    1.083418 S    
C9    C11   1.404401 A    
C46   C48   1.424920 A    
C24   H4    1.083397 S    
C51   C53   1.427550 A    
O12   V4    1.998644 S    
C38   F2    1.356769 S    
C41   F3    1.358728 S    
O7    V1    1.997132 S    
C45   F5    1.353987 S    
O7    C3    1.297715 A    
C57   F7    1.357562 S    
C38   C54   1.420021 A    
O5    C7    1.300135 A    
C6    C40   1.478054 S    
C15   C31   1.482904 S    
C48   C52   1.443564 A    
O8    V2    1.995837 S    
C25   C27   1.398405 A    
C56   C58   1.395292 A    
C21   H7    1.083308 S    
C26   C28   1.398137 A    
O3    V1    2.016785 S    
O14   V4    1.706507 S    
C10   C12   1.404307 A    
C24   C36   1.406495 A    
C21   C23   1.394553 A    
C8    C10   1.475408 S    
C2    O12   1.299698 A    
C49   C63   1.433802 A    
C38   C62   1.391174 A    
C17   C19   1.395894 A    
O10   V2    2.008299 S    
C18   C20   1.395724 A    
V2    O20   1.706980 S    
C12   H2    1.083499 S    
O1    V3    2.007653 S    
N2    O23   1.301090 A    
C41   C43   1.385664 A    
C28   C30   1.402981 A    
O11   V3    1.997751 S    
C45   C47   1.424254 A    
O17   V3    2.015390 S    
C59   H17   1.074995 S    
C22   C24   1.394602 A    
C23   C35   1.406197 A    
C9    C19   1.399217 A    
C17   F11   1.355895 S    
C10   C20   1.399245 A    
C34   F10   1.361261 S    
C55   N1    1.435081 S    
C29   C33   1.475133 S    
O13   V1    2.152523 S    
C1    O11   1.299575 A    
C16   C32   1.482709 S    
O15   V3    1.996334 S    
C40   C62   1.388822 A    
C27   C29   1.403329 A    
N4    O28   1.301273 A    
N3    O26   1.301255 A    
C22   H8    1.083364 S    
C33   F9    1.361287 S    
C22   C30   1.401941 A    
C52   C54   1.429201 A    
C11   H1    1.083505 S    
C3    C64   1.484585 S    
C54   C56   1.414080 A    
C26   H6    1.083264 S    
C50   C64   1.434048 A    
C43   C45   1.392087 A    
C48   C50   1.437865 A    
O18   V4    2.016213 S    
C42   C44   1.385200 A    
C31   C33   1.346656 D    
O8    C4    1.298649 A    
C30   C34   1.474286 S    
O16   C6    1.298706 A    
O1    C3    1.298389 A    
C42   F4    1.358783 S    
N3    O25   1.301604 A    
C1    C36   1.474261 S    
C20   H10   1.083381 S    
C52   C60   1.428849 A    
C41   C63   1.397517 A    
C58   F8    1.357633 S    
O16   V4    1.997630 S    
C32   H12   1.086913 S    
C60   H18   1.073891 S    
C27   H13   1.083442 S    
C16   C18   1.406330 A    
C55   C57   1.396664 A    
O5    V1    1.998038 S    
O17   C7    1.295805 A    
O6    V2    1.997144 S    
O10   C6    1.297057 A    
C28   H14   1.083470 S    
C25   C35   1.404110 A    
O2    V4    2.008019 S    
C26   C36   1.404081 A    
O15   C5    1.299817 A    
N4    O27   1.301600 A    
V3    O19   2.155457 S    
C51   C59   1.428329 A    
N1    O21   1.301262 A    
C12   C14   1.403206 A    
C14   C16   1.420099 A    
C4    C63   1.484585 S    
C53   C55   1.414482 A    
C37   C53   1.418954 A    
O9    C5    1.296552 A    
C44   H20   1.083034 S    
C32   C34   1.346344 D    
O14   V2    2.154533 S    
O2    C4    1.297703 A    
C31   H11   1.086846 S    
C18   F12   1.355845 S    
C21   C29   1.402209 A    
O4    V2    2.015962 S    
O6    C8    1.299851 A    
C37   F1    1.357013 S    
C13   C15   1.420080 A    
C49   C57   1.409565 A    
C37   C61   1.392002 A    
C47   C49   1.437347 A    
C42   C64   1.397357 A    
C39   C61   1.390105 A    
C46   F6    1.353638 S    
C5    C39   1.478695 S    
C19   H9    1.083373 S    
C50   C58   1.409264 A    
C40   C60   1.404027 A    
C13   N3    1.441008 S    
