data_mof_unit_49150.cif
_audit_creation_date              2012-12-11T14:44:17-0500
_audit_creation_method            fapswitch 2.2
_symmetry_space_group_name_H-M    P1
_symmetry_Int_Tables_number       1
_space_group_crystal_system       triclinic
_cell_length_a                    19.423824
_cell_length_b                    11.102283
_cell_length_c                    18.805166
_cell_angle_alpha                 89.985734
_cell_angle_beta                  89.223508
_cell_angle_gamma                 90.060328
_cell_volume                      4054.93651834

loop_
_atom_site_label
_atom_site_type_symbol
_atom_type_description
_atom_site_fract_x
_atom_site_fract_y
_atom_site_fract_z
_atom_type_partial_charge
C1    C     C_R   0.713266 0.330313 0.138801 0.580816
C2    C     C_R   0.987556 0.993255 0.035124 -0.043957
C3    C     C_R   0.995254 0.774996 0.037874 -0.041912
C4    C     C_R   0.492094 0.056709 0.036139 0.333044
C5    C     C_R   0.508153 0.056808 0.963710 0.333536
C6    C     C_R   0.992094 0.556709 0.036139 0.333044
C7    C     C_R   0.008153 0.556808 0.963710 0.333536
C8    C     C_3   0.414975 0.961959 0.111200 -0.101836
C9    C     C_3   0.585240 0.962531 0.888562 -0.102829
C10   C     C_3   0.914974 0.461959 0.111200 -0.101837
C11   C     C_3   0.085240 0.462531 0.888562 -0.102829
C12   C     C_1   0.871252 0.030730 0.434206 0.213170
C13   C     C_R   0.512555 0.493384 0.964871 -0.044389
C14   C     C_1   0.121174 0.919760 0.589672 0.208020
C15   C     C_1   0.371252 0.530730 0.434206 0.213170
C16   C     C_1   0.621174 0.419760 0.589672 0.208020
C17   C     C_3   0.591601 0.318185 0.831848 -0.108772
C18   C     C_3   0.408167 0.317296 0.167715 -0.116570
C19   C     C_3   0.091601 0.818185 0.831848 -0.108772
C20   C     C_3   0.908167 0.817296 0.167715 -0.116569
C21   C     C_3   0.596874 0.811728 0.100364 -0.020803
C22   C     C_3   0.403042 0.811834 0.899739 -0.021241
C23   C     C_3   0.096874 0.311728 0.100364 -0.020803
C24   C     C_R   0.487556 0.493255 0.035124 -0.043957
C25   C     C_3   0.903042 0.311834 0.899739 -0.021241
C26   C     C_3   0.869488 0.058916 0.932480 -0.104278
C27   C     C_3   0.130717 0.059006 0.067540 -0.104236
C28   C     C_3   0.369488 0.558916 0.932480 -0.104278
C29   C     C_3   0.630717 0.559006 0.067540 -0.104236
C30   C     C_R   0.694610 0.866079 0.038793 0.222442
C31   C     C_R   0.305277 0.866029 0.961169 0.222652
C32   C     C_R   0.194610 0.366079 0.038793 0.222442
C33   C     C_R   0.805277 0.366029 0.961169 0.222652
C34   C     C_R   0.708747 0.820616 0.970449 -0.181784
C35   C     C_R   0.291102 0.820475 0.029507 -0.181969
C36   C     C_R   0.208747 0.320616 0.970449 -0.181785
C37   C     C_R   0.286715 0.330270 0.861227 0.580861
C38   C     C_R   0.791103 0.320475 0.029507 -0.181969
C39   C     C_R   0.773200 0.843278 0.938194 -0.014912
C40   C     C_R   0.226723 0.843273 0.061816 -0.015258
C41   C     C_R   0.273200 0.343278 0.938194 -0.014912
C42   C     C_R   0.726723 0.343273 0.061816 -0.015258
C43   C     C_R   0.824825 0.892369 0.978988 0.231996
C44   C     C_R   0.175149 0.892438 0.021046 0.232120
C45   C     C_R   0.324825 0.392369 0.978988 0.231996
C46   C     C_R   0.675149 0.392438 0.021046 0.232120
C47   C     C_R   0.814261 0.920569 0.048941 -0.182923
C48   C     C_R   0.213266 0.830313 0.138801 0.580816
C49   C     C_R   0.185694 0.920552 0.951072 -0.182788
C50   C     C_R   0.314261 0.420569 0.048941 -0.182923
C51   C     C_R   0.685694 0.420552 0.951072 -0.182788
C52   C     C_R   0.749883 0.911627 0.079243 -0.026336
C53   C     C_R   0.250043 0.911593 0.920740 -0.026133
C54   C     C_R   0.249884 0.411627 0.079243 -0.026336
C55   C     C_R   0.750043 0.411593 0.920740 -0.026133
C56   C     C_R   0.539707 0.066142 0.473219 -0.124683
C57   C     C_R   0.529469 0.070684 0.545645 -0.143321
C58   C     C_R   0.039707 0.566142 0.473219 -0.124683
C59   C     C_R   0.786716 0.830270 0.861227 0.580861
C60   C     C_R   0.029469 0.570684 0.545645 -0.143321
C61   C     C_R   0.495422 0.169088 0.575550 0.041121
C62   C     C_R   0.517754 0.161356 0.429798 0.027026
C63   C     C_R   0.995422 0.669087 0.575550 0.041121
C64   C     C_R   0.017754 0.661356 0.429798 0.027026
C65   C     C_R   0.533304 0.155103 0.145633 0.558505
C66   C     C_R   0.466745 0.155149 0.854324 0.556743
C67   C     C_R   0.033304 0.655103 0.145633 0.558505
C68   C     C_R   0.966745 0.655149 0.854324 0.556743
C69   C     C_R   0.475731 0.266993 0.532742 -0.113025
C70   C     C_R   0.520625 0.386035 0.926755 0.361582
C71   C     C_R   0.487828 0.263681 0.459883 -0.157158
C72   C     C_R   0.975731 0.766993 0.532742 -0.113026
C73   C     C_R   0.987828 0.763682 0.459883 -0.157158
C74   C     C_R   0.809469 0.979254 0.466129 -0.018194
C75   C     C_R   0.183222 0.911656 0.546563 -0.024867
C76   C     C_R   0.309469 0.479254 0.466129 -0.018194
C77   C     C_R   0.683222 0.411656 0.546563 -0.024867
C78   C     C_R   0.807795 0.976711 0.538956 -0.140601
C79   C     C_R   0.177109 0.900208 0.473664 -0.127548
C80   C     C_R   0.307795 0.476712 0.538956 -0.140601
C81   C     C_R   0.479417 0.385774 0.073148 0.362955
C82   C     C_R   0.677109 0.400208 0.473664 -0.127548
C83   C     C_R   0.756077 0.914057 0.575536 0.012881
C84   C     C_R   0.236023 0.893024 0.429736 0.018477
C85   C     C_R   0.256077 0.414057 0.575536 0.012881
C86   C     C_R   0.736023 0.393024 0.429736 0.018477
C87   C     C_R   0.701446 0.862373 0.538237 -0.141604
C88   C     C_R   0.301355 0.888514 0.459433 -0.138000
C89   C     C_R   0.201446 0.362373 0.538237 -0.141604
C90   C     C_R   0.801355 0.388514 0.459432 -0.138000
C91   C     C_R   0.699165 0.873598 0.464639 -0.155512
C92   C     C_R   0.020625 0.886035 0.926755 0.361582
C93   C     C_R   0.308078 0.902104 0.532317 -0.142312
C94   C     C_R   0.199165 0.373598 0.464639 -0.155512
C95   C     C_R   0.808078 0.402104 0.532317 -0.142312
C96   C     C_R   0.752417 0.933406 0.427756 0.015856
C97   C     C_R   0.249364 0.919173 0.575950 0.012561
C98   C     C_R   0.252417 0.433406 0.427756 0.015856
C99   C     C_R   0.749364 0.419173 0.575950 0.012561
C100  C     C_R   0.739847 0.972484 0.146776 0.540083
C101  C     C_R   0.260130 0.972482 0.853205 0.539832
C102  C     C_R   0.239847 0.472484 0.146776 0.540083
C103  C     C_R   0.979417 0.885774 0.073148 0.362955
C104  C     C_R   0.760130 0.472482 0.853205 0.539832
C105  C     C_R   0.726229 0.371366 0.354687 0.543733
C106  C     C_R   0.271168 0.377588 0.647717 0.542500
C107  C     C_R   0.226229 0.871366 0.354687 0.543733
C108  C     C_R   0.771168 0.877588 0.647717 0.542501
C109  C     C_R   0.535770 0.156154 0.355115 0.533691
C110  C     C_R   0.467073 0.157555 0.646639 0.541023
C111  C     C_R   0.035770 0.656154 0.355115 0.533691
C112  C     C_R   0.967073 0.657555 0.646639 0.541023
C113  C     C_R   0.741315 0.973080 0.354710 0.533832
C114  C     C_R   0.012555 0.993384 0.964871 -0.044389
C115  C     C_R   0.258908 0.970727 0.646322 0.539544
C116  C     C_R   0.241315 0.473080 0.354710 0.533832
C117  C     C_R   0.758908 0.470727 0.646322 0.539544
C118  C     C_R   0.500334 0.164276 0.925041 -0.080776
C119  C     C_R   0.499832 0.164157 0.074838 -0.081024
C120  C     C_R   0.000335 0.664276 0.925041 -0.080776
C121  C     C_R   0.999832 0.664157 0.074838 -0.081024
C122  C     C_R   0.504884 0.275088 0.962010 -0.042346
C123  C     C_R   0.495254 0.274996 0.037874 -0.041912
C124  C     C_R   0.004884 0.775088 0.962010 -0.042346
Cr1   Cr    Cr6+3 0.772000 0.169640 0.250110 1.022702
Cr2   Cr    Cr6+3 0.383330 0.010620 0.749160 0.999456
Cr3   Cr    Cr6+3 0.116670 0.510620 0.250840 1.000942
Cr4   Cr    Cr6+3 0.883330 0.510620 0.749160 0.999456
Cr5   Cr    Cr6+3 0.228000 0.169640 0.749890 1.014640
Cr6   Cr    Cr6+3 0.272000 0.669640 0.250110 1.022702
Cr7   Cr    Cr6+3 0.728000 0.669640 0.749890 1.014640
Cr8   Cr    Cr6+3 0.614960 0.323350 0.249260 1.066484
Cr9   Cr    Cr6+3 0.385040 0.323350 0.750740 1.072839
Cr10  Cr    Cr6+3 0.114960 0.823350 0.249260 1.066484
Cr11  Cr    Cr6+3 0.885040 0.823350 0.750740 1.072839
Cr12  Cr    Cr6+3 0.616670 0.010620 0.250840 1.000942
H1    H     H_    0.850797 0.016500 0.566833 0.142109
H2    H     H_    0.359521 0.907006 0.553697 0.150322
H3    H     H_    0.155480 0.336880 0.436758 0.132639
H4    H     H_    0.859521 0.407006 0.553697 0.150322
H5    H     H_    0.022288 0.078636 0.938585 0.090705
H6    H     H_    0.977817 0.078399 0.061461 0.090761
H7    H     H_    0.522288 0.578636 0.938585 0.090705
H8    H     H_    0.477817 0.578399 0.061461 0.090761
H9    H     H_    0.667497 0.781533 0.940362 0.142654
H10   H     H_    0.332299 0.781269 0.059556 0.142282
H11   H     H_    0.167497 0.281533 0.940362 0.142654
H12   H     H_    0.126007 0.895554 0.451228 0.147670
H13   H     H_    0.832299 0.281269 0.059556 0.142282
H14   H     H_    0.854257 0.969429 0.075452 0.175379
H15   H     H_    0.145755 0.969436 0.924574 0.175003
H16   H     H_    0.354257 0.469429 0.075452 0.175379
H17   H     H_    0.645755 0.469436 0.924575 0.175003
H18   H     H_    0.565340 0.987810 0.451298 0.142632
H19   H     H_    0.545014 0.994577 0.577756 0.128541
H20   H     H_    0.065340 0.487810 0.451298 0.142632
H21   H     H_    0.045014 0.494577 0.577756 0.128541
H22   H     H_    0.448282 0.343360 0.554952 0.153085
H23   H     H_    0.350797 0.516500 0.566833 0.142109
H24   H     H_    0.472684 0.338809 0.427002 0.145553
H25   H     H_    0.948282 0.843360 0.554952 0.153085
H26   H     H_    0.972685 0.838809 0.427002 0.145554
H27   H     H_    0.401562 0.873214 0.134387 0.141389
H28   H     H_    0.371371 0.996382 0.079442 0.135739
H29   H     H_    0.422012 0.022538 0.157304 0.103247
H30   H     H_    0.628879 0.996950 0.920324 0.135917
H31   H     H_    0.578160 0.023256 0.842521 0.101363
H32   H     H_    0.598635 0.873912 0.865284 0.140278
H33   H     H_    0.901562 0.373214 0.134387 0.141389
H34   H     H_    0.626007 0.395554 0.451228 0.147670
H35   H     H_    0.871371 0.496382 0.079442 0.135739
H36   H     H_    0.922012 0.522539 0.157304 0.103247
H37   H     H_    0.128879 0.496950 0.920324 0.135917
H38   H     H_    0.078160 0.523256 0.842521 0.101363
H39   H     H_    0.098635 0.373912 0.865284 0.140278
H40   H     H_    0.615278 0.263475 0.874578 0.066674
H41   H     H_    0.632696 0.371382 0.805476 0.163304
H42   H     H_    0.572134 0.257366 0.789956 0.139212
H43   H     H_    0.384616 0.262717 0.124824 0.070969
H44   H     H_    0.366978 0.370234 0.194000 0.159214
H45   H     H_    0.661620 0.811228 0.565570 0.139480
H46   H     H_    0.427509 0.256311 0.209564 0.134411
H47   H     H_    0.115278 0.763475 0.874578 0.066674
H48   H     H_    0.132696 0.871382 0.805476 0.163304
H49   H     H_    0.072134 0.757367 0.789956 0.139212
H50   H     H_    0.884617 0.762717 0.124824 0.070969
H51   H     H_    0.866978 0.870234 0.194000 0.159213
H52   H     H_    0.927509 0.756311 0.209564 0.134411
H53   H     H_    0.564498 0.853644 0.141520 0.208943
H54   H     H_    0.634640 0.760016 0.132152 0.054524
H55   H     H_    0.560340 0.758102 0.068683 0.124464
H56   H     H_    0.346949 0.877762 0.426215 0.139592
H57   H     H_    0.435438 0.853717 0.858539 0.208284
H58   H     H_    0.365284 0.759920 0.867992 0.053658
H59   H     H_    0.439573 0.758462 0.931505 0.124861
H60   H     H_    0.064498 0.353644 0.141520 0.208943
H61   H     H_    0.134640 0.260016 0.132152 0.054524
H62   H     H_    0.060340 0.258102 0.068683 0.124464
H63   H     H_    0.935438 0.353717 0.858539 0.208284
H64   H     H_    0.865284 0.259920 0.867992 0.053658
H65   H     H_    0.939573 0.258462 0.931505 0.124861
H66   H     H_    0.879459 0.113034 0.980813 0.095849
H67   H     H_    0.161620 0.311228 0.565570 0.139480
H68   H     H_    0.816267 0.079778 0.914205 0.123275
H69   H     H_    0.905330 0.081874 0.888306 0.151229
H70   H     H_    0.120728 0.113185 0.019235 0.095943
H71   H     H_    0.183979 0.079884 0.085756 0.123554
H72   H     H_    0.094949 0.081833 0.111764 0.151671
H73   H     H_    0.379459 0.613034 0.980813 0.095849
H74   H     H_    0.316267 0.579778 0.914205 0.123275
H75   H     H_    0.405330 0.581874 0.888306 0.151229
H76   H     H_    0.620729 0.613185 0.019235 0.095943
H77   H     H_    0.683979 0.579884 0.085756 0.123554
H78   H     H_    0.846949 0.377762 0.426215 0.139592
H79   H     H_    0.594949 0.581833 0.111764 0.151671
H80   H     H_    0.655480 0.836880 0.436758 0.132639
N1    N     N_1   0.920592 0.072145 0.409057 -0.307582
N2    N     N_1   0.071953 0.927246 0.624742 -0.295918
N3    N     N_1   0.420592 0.572146 0.409057 -0.307582
N4    N     N_1   0.571953 0.427246 0.624742 -0.295918
O1    O     O_R   0.787540 0.042690 0.170470 -0.543179
O2    O     O_R   0.454130 0.051100 0.669160 -0.537055
O3    O     O_R   0.045870 0.551100 0.330840 -0.533273
O4    O     O_R   0.954130 0.551100 0.669160 -0.537055
O5    O     O_R   0.681340 0.959300 0.325510 -0.516928
O6    O     O_R   0.318660 0.959300 0.674490 -0.516514
O7    O     O_R   0.181340 0.459300 0.325510 -0.516928
O8    O     O_R   0.818660 0.459300 0.674490 -0.516514
O9    O     O_3   0.667880 0.167870 0.250070 -0.291735
O10   O     O_3   0.332120 0.167870 0.749930 -0.288242
O11   O     O_3   0.167880 0.667870 0.250070 -0.291735
O12   O     O_R   0.212460 0.042690 0.829530 -0.543138
O13   O     O_3   0.832120 0.667870 0.749930 -0.288242
O14   O     O_R   0.765660 0.292160 0.175050 -0.536958
O15   O     O_R   0.234340 0.292160 0.824950 -0.538656
O16   O     O_R   0.265660 0.792160 0.175050 -0.536958
O17   O     O_R   0.734340 0.792160 0.824950 -0.538656
O18   O     O_R   0.670190 0.408980 0.168550 -0.472058
O19   O     O_R   0.329810 0.408980 0.831450 -0.473505
O20   O     O_R   0.170190 0.908980 0.168550 -0.472058
O21   O     O_R   0.829810 0.908980 0.831450 -0.473505
O22   O     O_R   0.556580 0.251450 0.175160 -0.443519
O23   O     O_R   0.287540 0.542690 0.170470 -0.543179
O24   O     O_R   0.443420 0.251450 0.824840 -0.443360
O25   O     O_R   0.056580 0.751450 0.175160 -0.443519
O26   O     O_R   0.943420 0.751450 0.824840 -0.443360
O27   O     O_R   0.545920 0.049510 0.170320 -0.505527
O28   O     O_R   0.454080 0.049510 0.829680 -0.507087
O29   O     O_R   0.045920 0.549510 0.170320 -0.505527
O30   O     O_R   0.954080 0.549510 0.829680 -0.507088
O31   O     O_R   0.681390 0.957840 0.176710 -0.484378
O32   O     O_R   0.318610 0.957840 0.823290 -0.484759
O33   O     O_R   0.181390 0.457840 0.176710 -0.484378
O34   O     O_R   0.712460 0.542690 0.829530 -0.543138
O35   O     O_R   0.818610 0.457840 0.823290 -0.484759
O36   O     O_R   0.787500 0.044280 0.330990 -0.498512
O37   O     O_R   0.212500 0.044280 0.669010 -0.498323
O38   O     O_R   0.287500 0.544280 0.330990 -0.498512
O39   O     O_R   0.712500 0.544280 0.669010 -0.498323
O40   O     O_R   0.765610 0.293630 0.323860 -0.495403
O41   O     O_R   0.234390 0.293630 0.676140 -0.501653
O42   O     O_R   0.265610 0.793630 0.323860 -0.495403
O43   O     O_R   0.734390 0.793630 0.676140 -0.501653
O44   O     O_R   0.670140 0.410570 0.329080 -0.522917
O45   O     O_R   0.556540 0.252920 0.323970 -0.504204
O46   O     O_R   0.329860 0.410570 0.670920 -0.529532
O47   O     O_R   0.170140 0.910570 0.329080 -0.522917
O48   O     O_R   0.829860 0.910570 0.670920 -0.529532
O49   O     O_3   0.475210 0.948420 0.068660 -0.520706
O50   O     O_3   0.525037 0.948642 0.931142 -0.520499
O51   O     O_3   0.975210 0.448420 0.068660 -0.520706
O52   O     O_3   0.025037 0.448642 0.931142 -0.520498
O53   O     O_3   0.538626 0.397680 0.854849 -0.552530
O54   O     O_3   0.461218 0.397086 0.145005 -0.554675
O55   O     O_3   0.038626 0.897680 0.854849 -0.552531
O56   O     O_R   0.443460 0.252920 0.676030 -0.491098
O57   O     O_3   0.961218 0.897086 0.145005 -0.554675
O58   O     O_3   0.627556 0.898783 0.055815 -0.517343
O59   O     O_3   0.372350 0.898902 0.944159 -0.517297
O60   O     O_3   0.127555 0.398783 0.055815 -0.517343
O61   O     O_3   0.872351 0.398902 0.944159 -0.517297
O62   O     O_3   0.881686 0.936649 0.946404 -0.560933
O63   O     O_3   0.118362 0.936753 0.053631 -0.561147
O64   O     O_3   0.381686 0.436649 0.946404 -0.560933
O65   O     O_3   0.618363 0.436753 0.053631 -0.561147
O66   O     O_R   0.056540 0.752920 0.323970 -0.504204
O67   O     O_R   0.943460 0.752920 0.676030 -0.491098
O68   O     O_R   0.545870 0.051100 0.330840 -0.533273

loop_
_geom_bond_atom_site_label_1
_geom_bond_atom_site_label_2
_ccdc_geom_bond_type
C17   H42   S    
C44   C49   A    
C83   C87   A    
C9    O50   S    
C82   H34   S    
C117  O8    A    
C33   C55   A    
C37   C41   S    
C12   C74   S    
C67   O25   A    
C11   O52   S    
C6    C7    A    
Cr12  O5    S    
C100  O31   A    
Cr8   O9    S    
Cr4   O4    S    
Cr7   O34   S    
C16   C77   S    
C90   C95   A    
C66   O28   A    
C4    O49   S    
C83   C108  S    
C10   H33   S    
C56   C62   A    
C71   H24   S    
C57   H19   S    
Cr1   O40   S    
C5    O50   S    
C8    O49   S    
C104  O35   A    
Cr5   O15   S    
C60   C63   A    
C77   C82   A    
C13   C24   A    
C7    O52   S    
C59   O17   A    
Cr4   O13   S    
Cr7   O17   S    
C38   C42   A    
Cr1   O9    S    
C92   C124  A    
Cr9   O24   S    
C27   O63   S    
C79   C84   A    
C117  O39   A    
C34   H9    S    
C95   C99   A    
C37   O19   A    
C20   H52   S    
C13   C70   A    
C94   C98   A    
C76   C98   A    
C18   H46   S    
C75   C97   A    
Cr4   O35   S    
C104  O34   A    
C56   C57   A    
C108  O43   A    
Cr2   O32   S    
C27   H72   S    
C42   C46   A    
C66   C118  S    
C84   C107  S    
C69   C71   A    
Cr8   O18   S    
Cr9   O10   S    
Cr1   O14   S    
C55   C104  S    
Cr6   O38   S    
C91   C96   A    
C88   C93   A    
C109  O68   A    
C98   C116  S    
C78   C83   A    
C115  O37   A    
C19   O55   S    
C43   C47   A    
C53   C101  S    
C23   H60   S    
C62   C71   A    
C64   C73   A    
Cr11  O13   S    
Cr12  O31   S    
C16   N4    T    
C29   H77   S    
C93   H2    S    
C112  O67   A    
C97   C115  S    
C31   O59   S    
C38   H13   S    
C27   H71   S    
C32   O60   S    
C17   H40   S    
Cr3   O3    S    
C81   O54   S    
C15   N3    T    
C91   H80   S    
C15   C76   S    
Cr8   O45   S    
C10   H36   S    
C18   H44   S    
C113  O36   A    
Cr3   O33   S    
Cr3   O7    S    
C94   H3    S    
C112  O4    A    
Cr11  O26   S    
C36   C41   A    
Cr2   O6    S    
Cr5   O41   S    
C61   C110  S    
C67   C121  S    
C23   O60   S    
C32   C54   A    
C48   O20   A    
C22   H59   S    
C37   O15   A    
C58   C60   A    
Cr7   O43   S    
C58   C64   A    
C33   O61   S    
C2    C103  A    
C11   H37   S    
C106  O46   A    
C87   C91   A    
C30   C34   A    
C116  O7    A    
Cr2   O28   S    
C34   C39   A    
C114  H5    S    
C74   C96   A    
C21   H53   S    
C9    H31   S    
C20   O57   S    
C115  O6    A    
C56   H18   S    
C86   C90   A    
C30   O58   S    
C19   H47   S    
C4    C119  A    
C85   C89   A    
C22   O59   S    
C4    C5    A    
C80   H23   S    
C39   C43   A    
C68   O26   A    
C28   H73   S    
C82   C86   A    
C44   O63   S    
Cr5   O10   S    
C52   C100  S    
C106  O41   A    
Cr7   O13   S    
Cr12  O27   S    
C28   H75   S    
C35   H10   S    
Cr1   O36   S    
C26   H68   S    
C24   C81   A    
C87   H45   S    
C80   C85   A    
C25   H63   S    
C110  O2    A    
C99   C117  S    
C43   O62   S    
Cr6   O23   S    
C70   C122  A    
C36   H11   S    
C113  O5    A    
C23   H62   S    
C47   H14   S    
C1    O14   A    
Cr4   O8    S    
C100  O1    A    
C39   C59   S    
C49   H15   S    
C69   H22   S    
C95   H4    S    
C22   H57   S    
C111  O3    A    
Cr10  O11   S    
C31   C53   A    
C92   O55   S    
C11   H39   S    
Cr9   O46   S    
C48   O16   A    
C58   H20   S    
C110  O56   A    
C67   O29   A    
C109  O45   A    
C89   H67   S    
C81   C123  A    
C18   H43   S    
C32   C36   A    
C105  O40   A    
Cr1   O1    S    
C10   O51   S    
C8    H28   S    
Cr11  O48   S    
C2    H6    S    
C31   C35   A    
C79   H12   S    
C101  O32   A    
Cr11  O67   S    
C60   H21   S    
C25   O61   S    
C85   C106  S    
Cr12  O68   S    
C78   H1    S    
C93   C97   A    
C12   N1    T    
C90   H78   S    
C116  O38   A    
C3    C124  A    
Cr2   O10   S    
C29   H76   S    
C9    H30   S    
C101  O12   A    
Cr12  O9    S    
C3    C103  A    
Cr10  O47   S    
C88   H56   S    
C41   C45   A    
C30   C52   A    
C40   C48   S    
C51   H17   S    
C11   H38   S    
C29   O65   S    
Cr6   O42   S    
C75   C79   A    
C108  O48   A    
C6    O51   S    
C63   C112  S    
Cr5   O37   S    
Cr10  O20   S    
C7    C120  A    
C54   C102  S    
C9    H32   S    
C14   N2    T    
C84   C88   A    
C68   O30   A    
C72   C73   A    
C64   C111  S    
C8    H27   S    
C19   H48   S    
C89   C94   A    
C17   O53   S    
C76   C80   A    
Cr2   O2    S    
C57   C61   A    
C47   C52   A    
C102  O23   A    
C119  C123  A    
C1    O18   A    
C65   O22   A    
C23   H61   S    
C45   O64   S    
C25   H65   S    
C33   C38   A    
C6    C121  A    
C107  O42   A    
Cr8   O44   S    
C5    C118  A    
C59   O21   A    
C27   H70   S    
C61   C69   A    
C14   C75   S    
C102  O33   A    
C73   H26   S    
C35   C40   A    
C10   H35   S    
C28   H74   S    
C86   C105  S    
C50   C54   A    
C25   H64   S    
C28   O64   S    
Cr5   O12   S    
C19   H49   S    
C20   H51   S    
C107  O47   A    
C2    C114  A    
Cr11  O21   S    
C21   H54   S    
C62   C109  S    
C66   O24   A    
Cr6   O11   S    
C24   H8    S    
C105  O44   A    
C118  C122  A    
Cr8   O22   S    
Cr6   O16   S    
Cr10  O66   S    
C111  O66   A    
C70   O53   S    
Cr10  O25   S    
C77   C99   A    
C72   H25   S    
C51   C55   A    
C13   H7    S    
C46   C51   A    
C65   O27   A    
C96   C113  S    
C26   O62   S    
Cr4   O30   S    
C65   C119  S    
C49   C53   A    
C29   H79   S    
C8    H29   S    
C20   H50   S    
C3    C121  A    
C26   H69   S    
C50   H16   S    
C1    C42   S    
C40   C44   A    
C63   C72   A    
C26   H66   S    
Cr3   O11   S    
C74   C78   A    
Cr9   O56   S    
C103  O57   S    
C22   H58   S    
C17   H41   S    
C45   C50   A    
Cr9   O19   S    
C21   H55   S    
Cr3   O29   S    
C122  C123  A    
C21   O58   S    
C92   C114  A    
Cr7   O39   S    
C68   C120  S    
C120  C124  A    
C18   O54   S    
C46   O65   S    
