data_mof_unit_66450.cif
_audit_creation_date              2012-12-10T19:48:33-0500
_audit_creation_method            fapswitch 2.2
_symmetry_space_group_name_H-M    P1
_symmetry_Int_Tables_number       1
_space_group_crystal_system       triclinic
_cell_length_a                    13.308365
_cell_length_b                    14.247867
_cell_length_c                    14.907528
_cell_angle_alpha                 90.633442
_cell_angle_beta                  91.445455
_cell_angle_gamma                 71.688941
_cell_volume                      2682.70401698

loop_
_atom_site_label
_atom_site_type_symbol
_atom_type_description
_atom_site_fract_x
_atom_site_fract_y
_atom_site_fract_z
_atom_type_partial_charge
C1    C     C_R   0.499973 0.500451 0.671715 0.981643
C2    C     C_R   0.977293 0.464586 0.487197 0.132130
C3    C     C_R   0.869261 0.485590 0.466749 -0.026015
C4    C     C_R   0.024562 0.538500 0.472998 -0.025129
C5    C     C_R   0.962274 0.638055 0.459522 -0.030889
C6    C     C_R   0.858636 0.654604 0.425022 0.300173
C7    C     C_R   0.816011 0.576557 0.423772 -0.165360
C8    C     C_R   0.132778 0.514257 0.464775 0.215827
C9    C     C_R   0.120130 0.684705 0.492860 -0.260643
C10   C     C_R   0.818302 0.415657 0.490192 -0.231474
C11   C     C_R   0.592272 0.503207 0.907330 -0.164625
C12   C     C_R   0.702922 0.446347 0.495199 0.948969
C13   C     C_R   0.591608 0.504476 0.814614 0.239328
C14   C     C_R   0.500448 0.501127 0.767170 -0.165547
C15   C     C_R   0.410356 0.496757 0.811526 0.219675
C16   C     C_R   0.411654 0.496432 0.904230 -0.149044
C17   C     C_R   0.502435 0.499417 0.951648 -0.000196
C18   C     C_R   0.424809 0.571068 0.093393 -0.133768
C19   C     C_R   0.425521 0.570845 0.185939 -0.204757
C20   C     C_R   0.503675 0.497689 0.232536 -0.074285
C21   C     C_R   0.582990 0.425179 0.187348 0.264616
C22   C     C_R   0.582387 0.426355 0.094544 -0.151551
C23   C     C_R   0.501555 0.499106 0.328145 0.895894
C24   C     C_R   0.503191 0.498846 0.048045 0.074502
C25   C     C_R   0.479348 0.899639 0.581466 -0.164688
C26   C     C_R   0.480054 0.800683 0.577985 0.025058
C27   C     C_R   0.518933 0.790578 0.423832 0.029950
C28   C     C_R   0.518540 0.889436 0.424354 -0.193643
C29   C     C_R   0.499050 0.945943 0.504016 0.204765
C30   C     C_R   0.455482 0.113699 0.432229 -0.368547
C31   C     C_R   0.460453 0.210583 0.428614 0.420910
C32   C     C_R   0.547595 0.190665 0.570328 0.276881
C33   C     C_R   0.545256 0.092049 0.574619 0.560005
C34   C     C_R   0.296888 0.553894 0.495822 0.950171
C35   C     C_R   0.497680 0.052394 0.505186 -0.108069
C36   C     C_R   0.010694 0.712687 0.475573 0.340429
C37   C     C_R   0.182076 0.585402 0.484273 -0.158848
C38   C     C_R   0.878623 0.321798 0.522521 0.694868
C39   C     C_R   0.986209 0.301028 0.540325 -0.188687
C40   C     C_R   0.034382 0.372863 0.526507 -0.193506
H1    H     H_    0.156917 0.740707 0.509578 0.203358
H2    H     H_    0.342555 0.493093 0.939371 0.189082
H3    H     H_    0.364040 0.627649 0.057111 0.164221
H4    H     H_    0.364729 0.626850 0.221273 0.167602
H5    H     H_    0.643067 0.370905 0.058626 0.185011
H6    H     H_    0.461603 0.940001 0.644072 0.190680
H7    H     H_    0.463956 0.766725 0.638105 0.155984
H8    H     H_    0.535099 0.748295 0.362244 0.154815
H9    H     H_    0.535308 0.920754 0.362850 0.183621
H10   H     H_    0.421794 0.085013 0.375435 0.213474
H11   H     H_    0.116194 0.356772 0.548418 0.204098
H12   H     H_    0.031598 0.230464 0.568916 0.193966
H13   H     H_    0.741075 0.588221 0.388581 0.184238
H14   H     H_    0.662179 0.505763 0.944867 0.185961
N1    N     N_R   0.500000 0.747530 0.500020 -0.105846
N2    N     N_R   0.499940 0.252470 0.500020 -0.184747
O1    O     O_R   0.499990 0.420530 0.630930 -0.571095
O2    O     O_R   0.499990 0.579480 0.630940 -0.619229
O3    O     O_R   0.653620 0.381060 0.499970 -0.522862
O4    O     O_R   0.653620 0.540010 0.499980 -0.622169
O5    O     O_R   0.500010 0.420520 0.369060 -0.546405
O6    O     O_R   0.500010 0.579470 0.369070 -0.660456
O7    O     O_R   0.346380 0.459990 0.500020 -0.568772
O8    O     O_R   0.346380 0.618940 0.500030 -0.632587
Zn1   Zn    Zn3+2 0.500000 0.393860 0.499990 1.106928
Zn2   Zn    Zn3+2 0.500000 0.606140 0.500010 0.980344
Br1   Br    Br    0.717273 0.507509 0.755505 -0.426763
Br2   Br    Br    0.283862 0.493322 0.748286 -0.470090
Br3   Br    Br    0.696019 0.327334 0.249068 -0.409939
Br4   Br    Br    0.780547 0.770706 0.359160 -0.431102
Br5   Br    Br    0.429469 0.266447 0.311105 -0.342568
Br6   Br    Br    0.636651 0.226169 0.658501 -0.226390
F1    F     F_    0.596244 0.033312 0.643582 -0.602675
Br7   Br    Br    0.934132 0.850300 0.492256 -0.313541
Br8   Br    Br    0.198183 0.401470 0.389790 -0.432737
F2    F     F_    0.832852 0.252206 0.542802 -0.589935

loop_
_geom_bond_atom_site_label_1
_geom_bond_atom_site_label_2
_ccdc_geom_bond_type
C27   H8    S    
O7    Zn1   S    
C34   C37   S    
C19   C20   A    
C4    C8    A    
C26   N1    A    
C32   Br6   S    
C38   F2    S    
C30   C35   A    
C18   C24   A    
C28   C29   A    
C3    C7    A    
C30   C31   A    
C27   N1    A    
C15   C16   A    
C5    C36   A    
C18   C19   A    
C12   O3    A    
O2    Zn2   S    
C23   O6    A    
C16   C17   A    
C9    C36   A    
C2    C40   A    
C31   N2    A    
C31   Br5   S    
C39   H12   S    
C30   H10   S    
O4    Zn2   S    
C21   C22   A    
C1    O2    A    
C10   C12   S    
C34   O8    A    
C25   C29   A    
C38   C39   A    
C17   C24   S    
O6    Zn2   S    
C39   C40   A    
C25   C26   A    
C8    Br8   S    
C21   Br3   S    
O8    Zn2   S    
C2    C4    A    
C1    O1    A    
C28   H9    S    
C20   C23   S    
C9    C37   A    
C11   H14   S    
C36   Br7   S    
C26   H7    S    
C33   F1    S    
C22   C24   A    
C8    C37   A    
C7    H13   S    
C16   H2    S    
N1    Zn2   S    
C19   H4    S    
C13   Br1   S    
C6    Br4   S    
C11   C17   A    
O1    Zn1   S    
C4    C5    A    
C6    C7    A    
C40   H11   S    
C29   C35   S    
C9    H1    S    
C10   C38   A    
C32   C33   A    
C2    C3    A    
C3    C10   A    
C18   H3    S    
O3    Zn1   S    
C11   C13   A    
C5    C6    A    
C15   Br2   S    
C34   O7    A    
C33   C35   A    
C12   O4    A    
O5    Zn1   S    
C23   O5    A    
C22   H5    S    
C20   C21   A    
C27   C28   A    
C14   C15   A    
C1    C14   S    
C13   C14   A    
C25   H6    S    
C32   N2    A    
N2    Zn1   S    
