data_mof_unit_23677.cif
_audit_creation_date              2012-12-11T14:08:03-0500
_audit_creation_method            fapswitch 2.2
_symmetry_space_group_name_H-M    P1
_symmetry_Int_Tables_number       1
_space_group_crystal_system       triclinic
_cell_length_a                    11.020337
_cell_length_b                    11.067533
_cell_length_c                    18.789327
_cell_angle_alpha                 90.451386
_cell_angle_beta                  90.031244
_cell_angle_gamma                 59.470211
_cell_volume                      1973.90958535

loop_
_atom_site_label
_atom_site_type_symbol
_atom_type_description
_atom_site_fract_x
_atom_site_fract_y
_atom_site_fract_z
_atom_type_partial_charge
C1    C     C_R   0.277208 0.628514 0.614709 0.548945
C2    C     C_3   0.803286 0.505530 0.792931 -0.111504
C3    C     C_3   0.690852 0.657166 0.817439 0.014423
C4    C     C_3   0.650832 0.617634 0.684695 0.060145
C5    C     C_3   0.654615 0.755369 0.691237 0.132533
C6    C     C_3   0.794649 0.492589 0.712481 0.551333
C7    C     C_2   0.661426 0.176876 0.674928 -0.126839
C8    C     C_2   0.684861 0.173777 0.830585 -0.093544
C9    C     C_2   0.795832 0.130624 0.786401 -0.136907
C10   C     C_2   0.780505 0.148026 0.708198 -0.078476
C11   C     C_2   0.222506 0.649520 0.686612 0.326623
C12   C     C_R   0.629378 0.589312 0.609710 0.574964
C13   C     C_2   0.204192 0.655178 0.843717 -0.059693
C14   C     C_2   0.202129 0.557629 0.801846 -0.099042
C15   C     C_2   0.247875 0.539679 0.727280 -0.122445
C16   C     C_2   0.670114 0.690411 0.337518 0.278421
C17   C     C_2   0.637803 0.661813 0.153807 -0.077135
C18   C     C_2   0.693272 0.684837 0.211305 0.403776
C19   C     C_2   0.696099 0.617008 0.277085 0.239346
C20   C     C_2   0.636259 0.194497 0.318311 0.305943
C21   C     C_2   0.630546 0.208790 0.160412 -0.117769
C22   C     C_2   0.526080 0.222621 0.201256 -0.077307
C23   C     C_R   0.626383 0.231092 0.602672 0.529748
C24   C     C_2   0.520322 0.255146 0.276004 0.375733
C25   C     C_2   0.185040 0.661597 0.326512 0.311646
C26   C     C_2   0.189033 0.641511 0.170659 -0.055178
C27   C     C_2   0.236544 0.711974 0.207292 -0.153320
C28   C     C_2   0.267900 0.683662 0.281961 -0.073467
C29   C     C_R   0.701986 0.103839 0.898528 0.538703
C30   C     C_R   0.721114 0.684549 0.890168 0.569794
C31   C     C_R   0.119387 0.705496 0.908192 0.524168
C32   C     C_R   0.671504 0.116025 0.099901 0.575634
C33   C     C_R   0.687633 0.684120 0.088404 0.550562
C34   C     C_R   0.225428 0.648018 0.400577 0.545162
C35   C     C_R   0.100303 0.705070 0.109900 0.576414
C36   C     C_R   0.646752 0.629147 0.399410 0.562849
C37   C     C_R   0.613140 0.236183 0.392931 0.562119
C38   C     C_3   0.543591 0.671113 0.810437 0.085931
C39   C     C_3   0.528492 0.631921 0.732532 -0.228858
C40   C     C_3   0.703841 0.763059 0.767913 0.127841
Cr1   Cr    Cr6+3 0.393010 0.398050 0.501480 1.012892
Cr2   Cr    Cr6+3 0.398820 0.707980 0.501630 1.015774
Cr3   Cr    Cr6+3 0.708140 0.393940 0.496850 1.046841
Cr4   Cr    Cr6+3 0.937950 0.938450 0.008940 1.037200
Cr5   Cr    Cr6+3 0.626180 0.937030 0.994750 1.034396
Cr6   Cr    Cr6+3 0.937790 0.625760 0.001410 1.044698
H1    H     H_    0.460000 0.782770 0.819601 0.136888
H2    H     H_    0.732942 0.748269 0.651190 0.153669
H3    H     H_    0.902310 0.068311 0.806724 0.161422
H4    H     H_    0.870160 0.134229 0.677422 0.212250
H5    H     H_    0.577874 0.239978 0.811914 0.117225
H6    H     H_    0.577972 0.173643 0.703838 0.088876
H7    H     H_    0.157851 0.495476 0.820546 0.150342
H8    H     H_    0.298059 0.434532 0.704614 0.086207
H9    H     H_    0.253397 0.712943 0.825604 0.189105
H10   H     H_    0.585887 0.600547 0.155058 0.035333
H11   H     H_    0.450811 0.193808 0.182444 0.160553
H12   H     H_    0.700645 0.244879 0.178058 0.145299
H13   H     H_    0.236979 0.802351 0.185419 0.137635
H14   H     H_    0.528103 0.531516 0.730939 0.158179
H15   H     H_    0.356250 0.691884 0.301811 0.126673
H16   H     H_    0.198684 0.545469 0.191362 0.179726
H17   H     H_    0.425580 0.714343 0.711383 0.184681
H18   H     H_    0.636072 0.871611 0.789671 0.158186
H19   H     H_    0.912326 0.479130 0.806371 0.159359
H20   H     H_    0.786298 0.426773 0.820676 0.168090
O1    O     O_R   0.507110 0.256280 0.580300 -0.559375
O2    O     O_R   0.524640 0.695370 0.425100 -0.519432
O3    O     O_R   0.735890 0.504390 0.415980 -0.501313
O4    O     O_R   0.690560 0.277820 0.422350 -0.488050
O5    O     O_3   0.499990 0.499990 0.499980 -0.293004
O6    O     O_R   0.089190 0.825870 0.932320 -0.533796
O7    O     O_R   0.819070 0.053960 0.931440 -0.501635
O8    O     O_R   0.607070 0.076440 0.916460 -0.527824
O9    O     O_R   0.647110 0.806550 0.917690 -0.534396
O10   O     O_R   0.837080 0.593860 0.915300 -0.528745
O11   O     O_R   0.064770 0.636080 0.932550 -0.500090
O12   O     O_R   0.280830 0.527190 0.577940 -0.536232
O13   O     O_R   0.068250 0.829200 0.092940 -0.511475
O14   O     O_R   0.799650 0.057040 0.080330 -0.479389
O15   O     O_R   0.586130 0.079760 0.077080 -0.508563
O16   O     O_R   0.627700 0.809630 0.066580 -0.471354
O17   O     O_R   0.816140 0.597180 0.075920 -0.501035
O18   O     O_R   0.045360 0.639170 0.081440 -0.480656
O19   O     O_3   0.833980 0.833750 0.001700 -0.235875
O20   O     O_R   0.261360 0.738990 0.584270 -0.465767
O21   O     O_R   0.532590 0.694780 0.574370 -0.520138
O22   O     O_R   0.744470 0.503750 0.577000 -0.460270
O23   O     O_R   0.698520 0.277230 0.571620 -0.475111
O24   O     O_R   0.498530 0.256920 0.419280 -0.485262
O25   O     O_R   0.272880 0.527780 0.428680 -0.468349
O26   O     O_R   0.252780 0.739630 0.423250 -0.547821
O27   O     O_3   0.909712 0.495042 0.678846 -0.541308
C41   C     C_3   0.031272 0.360120 0.673765 -0.036976
H21   H     H_    0.058736 0.304312 0.725480 0.113232
H22   H     H_    0.121370 0.371733 0.657269 0.111283
H23   H     H_    0.017299 0.296247 0.632197 0.175955
O28   O     O_3   0.847767 0.725327 0.768505 -0.577909
C42   C     C_3   0.869516 0.825397 0.734995 -0.083708
H24   H     H_    0.926604 0.781184 0.684139 0.182223
H25   H     H_    0.934623 0.849114 0.770583 0.207489
H26   H     H_    0.771030 0.923512 0.723322 0.080515
O29   O     O_3   0.530255 0.577049 0.856704 -0.591837
C43   C     C_3   0.474793 0.637193 0.924272 -0.121039
H27   H     H_    0.391566 0.749909 0.922340 0.109306
H28   H     H_    0.560171 0.621702 0.960911 0.128027
H29   H     H_    0.426183 0.580216 0.947908 0.131560
F1    F     F_    0.156681 0.783019 0.712895 -0.696773
F2    F     F_    0.761289 0.759123 0.207745 -0.581337
O30   O     O_3   0.711284 0.483895 0.276690 -0.603331
C44   C     C_3   0.839887 0.386458 0.243452 -0.111294
H30   H     H_    0.928464 0.402520 0.258293 0.111853
H31   H     H_    0.828093 0.389008 0.184729 0.115352
H32   H     H_    0.870024 0.279740 0.261143 0.198906
O31   O     O_3   0.640223 0.829436 0.336282 -0.560692
C45   C     C_3   0.640296 0.881885 0.405152 -0.111202
H33   H     H_    0.735464 0.808260 0.436032 0.076631
H34   H     H_    0.542146 0.909002 0.434464 0.140297
H35   H     H_    0.641483 0.980236 0.400060 0.130361
F3    F     F_    0.388037 0.336958 0.302899 -0.658386
O32   O     O_3   0.771013 0.123148 0.288957 -0.631749
C46   C     C_3   0.859303 0.998981 0.326225 -0.098434
H36   H     H_    0.825825 0.921075 0.317134 0.223435
H37   H     H_    0.865708 0.017147 0.383991 0.095742
H38   H     H_    0.967339 0.953349 0.304302 0.177122
O33   O     O_3   0.065494 0.661764 0.301971 -0.580298
C47   C     C_3   0.028082 0.583843 0.346317 -0.072948
H39   H     H_    0.987263 0.637439 0.398496 0.093879
H40   H     H_    0.116769 0.474429 0.352820 0.182944
H41   H     H_    0.943524 0.575797 0.320070 0.158155
O34   O     O_3   0.517536 0.873727 0.680556 -0.600017
C48   C     C_3   0.517547 0.964123 0.627915 -0.105004
H42   H     H_    0.420800 0.068344 0.634354 0.148435
H43   H     H_    0.516090 0.924144 0.573870 0.144952
H44   H     H_    0.609344 0.978863 0.632074 0.086655
F4    F     F_    0.796527 0.370198 0.697804 -0.687879

loop_
_geom_bond_atom_site_label_1
_geom_bond_atom_site_label_2
_ccdc_geom_bond_type
C7    C10   D    
O33   C47   S    
C30   O9    A    
Cr5   O16   S    
C1    C11   S    
C18   F2    S    
C2    H19   S    
C22   H11   S    
Cr6   O10   S    
Cr1   O1    S    
C25   C28   D    
C32   O15   A    
C26   C27   D    
O27   C41   S    
C37   O24   A    
Cr3   O22   S    
C7    H6    S    
C16   C19   D    
C40   O28   S    
C38   C39   S    
C29   O7    A    
O31   C45   S    
C45   H33   S    
C18   C19   S    
C23   O1    A    
C34   O25   A    
C6    F4    S    
O30   C44   S    
C11   C15   D    
C20   C24   D    
C3    C38   S    
C48   H42   S    
C23   O23   A    
Cr2   O20   S    
C13   C14   D    
C4    C12   S    
C33   O16   A    
C12   O21   A    
C25   C34   S    
Cr1   O5    S    
Cr6   O19   S    
C28   H15   S    
Cr1   O24   S    
Cr3   O3    S    
C21   C22   D    
Cr2   O2    S    
C1    O12   A    
C2    C6    S    
C17   C33   S    
C43   H28   S    
C43   H27   S    
C21   C32   S    
C31   O11   A    
C5    H2    S    
C24   F3    S    
C12   O22   A    
C15   H8    S    
Cr4   O14   S    
C9    H3    S    
C4    C6    S    
Cr1   O12   S    
C8    C9    D    
C29   O8    A    
C41   H23   S    
Cr5   O8    S    
C3    C30   S    
Cr5   O19   S    
C25   O33   S    
C47   H40   S    
C38   O29   S    
C32   O14   A    
C30   O10   A    
C42   H24   S    
C8    H5    S    
C4    C39   S    
C6    O27   S    
C42   H26   S    
C17   C18   D    
O32   C46   S    
C44   H31   S    
Cr3   O23   S    
C41   H22   S    
C33   O17   A    
C17   H10   S    
C38   H1    S    
Cr6   O18   S    
C31   O6    A    
C42   H25   S    
C3    C40   S    
Cr3   O4    S    
C22   C24   S    
C8    C29   S    
C46   H37   S    
Cr4   O19   S    
C10   H4    S    
C16   O31   S    
C11   F1    S    
C36   O3    A    
C20   O32   S    
C9    C10   S    
C19   O30   S    
C1    O20   A    
Cr3   O5    S    
C44   H30   S    
Cr1   O25   S    
C13   C31   S    
Cr4   O13   S    
Cr5   O15   S    
C4    C5    S    
C2    H20   S    
Cr6   O11   S    
C35   O18   A    
C36   O2    A    
C47   H39   S    
C39   H17   S    
C40   H18   S    
C45   H35   S    
Cr5   O9    S    
C46   H38   S    
C2    C3    S    
C26   H16   S    
C47   H41   S    
C21   H12   S    
C27   H13   S    
C16   C36   S    
C20   C37   S    
C48   H44   S    
C7    C23   S    
C39   H14   S    
C35   O13   A    
Cr2   O5    S    
C45   H34   S    
Cr4   O6    S    
C44   H32   S    
Cr2   O26   S    
C41   H21   S    
C34   O26   A    
Cr6   O17   S    
C26   C35   S    
C5    O34   S    
C14   H7    S    
C48   H43   S    
O28   C42   S    
C5    C40   S    
O29   C43   S    
C14   C15   S    
Cr2   O21   S    
C13   H9    S    
C46   H36   S    
C37   O4    A    
C43   H29   S    
O34   C48   S    
C27   C28   S    
Cr4   O7    S    
