data_mof_unit_12392.cif
_audit_creation_date              2012-12-10T16:42:56-0500
_audit_creation_method            fapswitch 2.2
_symmetry_space_group_name_H-M    P1
_symmetry_Int_Tables_number       1
_space_group_crystal_system       triclinic
_cell_length_a                    7.507619
_cell_length_b                    8.684164
_cell_length_c                    12.958583
_cell_angle_alpha                 87.477926
_cell_angle_beta                  79.326051
_cell_angle_gamma                 103.170483
_cell_volume                      805.121155792

loop_
_atom_site_label
_atom_site_type_symbol
_atom_type_description
_atom_site_fract_x
_atom_site_fract_y
_atom_site_fract_z
_atom_type_partial_charge
C1    C     C_R   0.452488 0.199691 0.503781 0.852919
C2    C     C_R   0.547512 0.800309 0.496219 0.852919
C3    C     C_R   0.466432 0.495378 0.701255 0.784777
C4    C     C_R   0.533567 0.504622 0.298745 0.784777
C5    C     C_R   0.553030 0.508899 0.185025 -0.042884
C6    C     C_R   0.446970 0.491101 0.814975 -0.042884
C7    C     C_R   0.250518 0.453434 0.989029 -0.225316
C8    C     C_R   0.749482 0.546566 0.010971 -0.225316
C9    C     C_R   0.268726 0.457539 0.880397 -0.201597
C10   C     C_R   0.731274 0.542461 0.119603 -0.201597
C11   C     C_R   0.606911 0.520421 0.858641 -0.265805
C12   C     C_R   0.393089 0.479579 0.141359 -0.265805
C13   C     C_R   0.589788 0.516838 0.967161 0.172380
C14   C     C_R   0.410212 0.483162 0.032839 0.172380
C15   C     C_2   0.426112 0.031294 0.507444 -0.369959
C16   C     C_2   0.573888 0.968706 0.492556 -0.369959
Cu1   Cu    Cu3+1 0.686350 0.517570 0.488220 1.007971
Cu2   Cu    Cu3+1 0.313650 0.482430 0.511780 1.007971
H1    H     H_    0.255201 0.453494 0.191536 0.179848
H2    H     H_    0.744799 0.546506 0.808464 0.179848
H3    H     H_    0.856686 0.566153 0.152180 0.162569
H4    H     H_    0.143314 0.433847 0.847820 0.162570
H5    H     H_    0.112257 0.426873 0.038621 0.140014
H6    H     H_    0.887743 0.573127 0.961379 0.140014
H7    H     H_    0.284014 0.958507 0.523198 0.168311
H8    H     H_    0.715986 0.041493 0.476802 0.168311
N1    N     N_2   0.033570 0.455950 0.529530 0.126959
N2    N     N_2   0.966430 0.544050 0.470470 0.126959
O1    O     O_R   0.621060 0.286250 0.492350 -0.557376
O2    O     O_R   0.378940 0.713750 0.507650 -0.557376
O3    O     O_R   0.306310 0.256580 0.512240 -0.635167
O4    O     O_R   0.693690 0.743420 0.487760 -0.635167
O5    O     O_R   0.631800 0.512400 0.642670 -0.537002
O6    O     O_R   0.368200 0.487600 0.357330 -0.537002
O7    O     O_R   0.317060 0.482730 0.662570 -0.604662
O8    O     O_R   0.682940 0.517270 0.337430 -0.604662
O9    O     O_3   0.917239 0.397807 0.621886 -0.480476
C17   C     C_3   0.934454 0.243009 0.645817 0.192966
H9    H     H_    0.061028 0.246184 0.678851 0.159143
H10   H     H_    0.938987 0.174177 0.575227 0.128870
C18   C     C_3   0.766073 0.156549 0.728985 -0.867953
H11   H     H_    0.635476 0.151904 0.699357 0.255716
H12   H     H_    0.776588 0.033352 0.747891 0.208327
H13   H     H_    0.760475 0.219250 0.801984 0.247428
O10   O     O_3   0.082761 0.602193 0.378114 -0.480477
C19   C     C_3   0.065546 0.756991 0.354183 0.192966
H14   H     H_    0.061012 0.825823 0.424773 0.128870
H15   H     H_    0.938972 0.753815 0.321148 0.159143
C20   C     C_3   0.233927 0.843451 0.271015 -0.867953
H16   H     H_    0.239527 0.780749 0.198017 0.247429
H17   H     H_    0.223410 0.966647 0.252108 0.208327
H18   H     H_    0.364523 0.848098 0.300644 0.255715

loop_
_geom_bond_atom_site_label_1
_geom_bond_atom_site_label_2
_ccdc_geom_bond_type
C4    O8    A    
O9    C17   S    
C1    C15   S    
Cu1   O8    S    
C2    C16   S    
C18   H11   S    
C18   H12   S    
C3    O7    A    
C2    O2    A    
C3    C6    S    
N1    N2    D    
C20   H18   S    
C6    C9    A    
C1    O1    A    
Cu1   Cu2   S    
C5    C10   A    
C13   C14   A    
C17   H10   S    
C11   C13   A    
C19   C20   S    
C8    C13   A    
Cu1   O5    S    
C5    C12   A    
C7    H5    S    
C12   H1    S    
C8    C10   A    
C8    H6    S    
C12   C14   A    
C19   H15   S    
Cu2   O6    S    
C10   H3    S    
C16   H8    S    
C17   H9    S    
C11   H2    S    
C18   H13   S    
C4    O6    A    
C9    H4    S    
C15   H7    S    
Cu1   O4    S    
C3    O5    A    
Cu2   O2    S    
C15   C16   D    
C1    O3    A    
Cu1   O1    S    
C17   C18   S    
C2    O4    A    
C20   H16   S    
Cu2   O7    S    
C6    C11   A    
C7    C9    A    
N2    O10   S    
C19   H14   S    
Cu2   O3    S    
O10   C19   S    
Cu1   N2    S    
C7    C14   A    
Cu2   N1    S    
N1    O9    S    
C4    C5    S    
C20   H17   S    
