data_mof_unit_22599.cif
_audit_creation_date              2012-12-11T14:28:27-0500
_audit_creation_method            fapswitch 2.2
_symmetry_space_group_name_H-M    P1
_symmetry_Int_Tables_number       1
_space_group_crystal_system       triclinic
_cell_length_a                    11.15629
_cell_length_b                    19.157134
_cell_length_c                    18.35642
_cell_angle_alpha                 90.212883
_cell_angle_beta                  90.130831
_cell_angle_gamma                 90.170176
_cell_volume                      3923.1260419

loop_
_atom_site_label
_atom_site_type_symbol
_atom_type_description
_atom_site_fract_x
_atom_site_fract_y
_atom_site_fract_z
_atom_type_partial_charge
C1    C     C_R   0.320584 0.969470 0.646483 0.529805
C2    C     C_3   0.122472 0.688814 0.017593 -0.082133
C3    C     C_3   0.970459 0.212465 0.986594 -0.087715
C4    C     C_3   0.503017 0.293104 0.479252 -0.113116
C5    C     C_3   0.564138 0.298145 0.031600 -0.062733
C6    C     C_3   0.595430 0.706774 0.531369 -0.057595
C7    C     C_3   0.470401 0.712468 0.986595 -0.087853
C8    C     C_3   0.127297 0.796066 0.505157 -0.177317
C9    C     C_3   0.161055 0.760040 0.987031 -0.111431
C10   C     C_3   0.130113 0.225004 0.489643 -0.117780
C11   C     C_3   0.101234 0.200418 0.011345 -0.158563
C12   C     C_3   0.628362 0.276547 0.510137 -0.122854
C13   C     C_3   0.124926 0.297760 0.524470 -0.073412
C14   C     C_3   0.661164 0.259939 0.987038 -0.110826
C15   C     C_3   0.663653 0.759394 0.483086 -0.096814
C16   C     C_3   0.601173 0.700403 0.011345 -0.158485
C17   C     C_3   0.086542 0.752310 0.570735 0.044030
C18   C     C_3   0.071882 0.749669 0.923985 0.008681
C19   C     C_3   0.070392 0.255837 0.422243 0.042940
C20   C     C_3   0.083252 0.253508 0.072815 0.062161
C21   C     C_3   0.570241 0.244631 0.577409 0.042850
C22   C     C_3   0.571934 0.249653 0.924006 0.009441
C23   C     C_3   0.569096 0.750974 0.422739 0.014863
C24   C     C_3   0.145329 0.260517 0.962611 -0.110602
C25   C     C_3   0.583221 0.753497 0.072816 0.062235
C26   C     C_3   0.957374 0.758322 0.545328 0.254237
C27   C     C_3   0.975465 0.788354 0.968260 0.271431
C28   C     C_3   0.947744 0.237545 0.451515 0.272500
C29   C     C_3   0.955125 0.265351 0.049247 0.252184
C30   C     C_3   0.446605 0.261149 0.548214 0.273521
C31   C     C_3   0.475622 0.288370 0.968330 0.271643
C32   C     C_3   0.500403 0.698617 0.470786 0.287929
C33   C     C_3   0.455090 0.765354 0.049251 0.251435
C34   C     C_3   0.970917 0.688177 0.504002 -0.122849
C35   C     C_3   0.625479 0.203799 0.475153 -0.076435
C36   C     C_3   0.934019 0.717681 0.999672 -0.122187
C37   C     C_3   0.939106 0.310382 0.488621 -0.118473
C38   C     C_3   0.995740 0.326170 0.000201 -0.162193
C39   C     C_3   0.440149 0.188248 0.511001 -0.118113
C40   C     C_3   0.434065 0.217713 0.999709 -0.122337
C41   C     C_3   0.428073 0.759534 0.503123 -0.138856
C42   C     C_3   0.495720 0.826168 0.000204 -0.162332
C43   C     C_3   0.103640 0.684448 0.529026 -0.133266
C44   C     C_3   0.031710 0.679681 0.954733 -0.168408
C45   C     C_3   0.063801 0.327444 0.457062 -0.173654
C46   C     C_3   0.622466 0.188725 0.017584 -0.082188
C47   C     C_3   0.126866 0.313865 0.024361 -0.119460
C48   C     C_3   0.565786 0.173100 0.542422 -0.171069
C49   C     C_3   0.531664 0.179670 0.954733 -0.168541
C50   C     C_3   0.495747 0.811581 0.453396 -0.184815
C51   C     C_3   0.626849 0.813846 0.024357 -0.119151
C52   C     C_3   0.897007 0.845059 0.626634 0.023739
C53   C     C_3   0.814798 0.904563 0.611948 -0.411481
C54   C     C_3   0.903251 0.862701 0.878176 -0.005930
C55   C     C_3   0.799519 0.908671 0.854952 -0.369573
C56   C     C_3   0.904034 0.145655 0.371391 0.000548
C57   C     C_3   0.591461 0.821019 0.512915 -0.099578
C58   C     C_3   0.817847 0.085683 0.373485 -0.416446
C59   C     C_3   0.853062 0.326293 0.138431 -0.026794
C60   C     C_3   0.785421 0.314983 0.209240 -0.332785
C61   C     C_3   0.403259 0.352058 0.629263 0.003356
C62   C     C_3   0.318730 0.412585 0.628838 -0.427208
C63   C     C_3   0.403250 0.362737 0.878345 -0.005803
C64   C     C_3   0.299365 0.408645 0.855301 -0.369306
C65   C     C_3   0.412206 0.631639 0.376723 0.004008
C66   C     C_3   0.298987 0.590795 0.360661 -0.390831
C67   C     C_3   0.353178 0.826216 0.138573 -0.019082
C68   C     C_3   0.645283 0.760493 0.962609 -0.110461
C69   C     C_3   0.285625 0.814780 0.209395 -0.345922
C70   C     C_3   0.015824 0.729610 0.437840 0.017376
C71   C     C_3   0.025443 0.726965 0.061234 0.030911
C72   C     C_3   0.002796 0.279587 0.556772 -0.000448
C73   C     C_R   0.321551 0.971030 0.851914 0.530389
C74   C     C_3   0.016068 0.273242 0.938842 0.004203
C75   C     C_3   0.502437 0.220034 0.442961 -0.000320
C76   C     C_3   0.525520 0.226929 0.061252 0.030489
C77   C     C_3   0.525325 0.769324 0.560968 0.020644
C78   C     C_3   0.516029 0.773240 0.938843 0.004163
C79   C     C_R   0.323776 0.990989 0.421643 -0.054071
C80   C     C_R   0.323617 0.000950 0.072159 -0.060808
C81   C     C_R   0.329661 0.003292 0.574361 -0.042996
C82   C     C_R   0.334331 0.011441 0.920035 -0.046848
C83   C     C_R   0.831216 0.495655 0.424957 -0.046012
C84   C     C_R   0.319269 0.029152 0.352058 0.520796
C85   C     C_R   0.823631 0.500949 0.072157 -0.060801
C86   C     C_R   0.822116 0.507377 0.577489 -0.043558
C87   C     C_R   0.834327 0.511442 0.920032 -0.046767
C88   C     C_R   0.539146 0.974623 0.419644 -0.077072
C89   C     C_R   0.541587 0.984668 0.076678 -0.084559
C90   C     C_R   0.549540 0.006248 0.567791 -0.103732
C91   C     C_R   0.556209 0.011214 0.928289 -0.100152
C92   C     C_R   0.052675 0.497421 0.434159 -0.096825
C93   C     C_R   0.041623 0.484733 0.076664 -0.084639
C94   C     C_R   0.036249 0.526394 0.582420 -0.079689
C95   C     C_R   0.319019 0.031224 0.145962 0.515745
C96   C     C_R   0.056196 0.511270 0.928274 -0.100199
C97   C     C_R   0.648051 0.980531 0.454236 -0.140999
C98   C     C_R   0.652299 0.993938 0.044699 -0.122716
C99   C     C_R   0.652934 0.004106 0.525913 -0.171469
C100  C     C_R   0.659480 0.010122 0.971278 -0.138381
C101  C     C_R   0.154929 0.499994 0.477902 -0.148140
C102  C     C_R   0.152315 0.494099 0.044693 -0.122948
C103  C     C_R   0.146639 0.518693 0.550552 -0.139256
C104  C     C_R   0.159461 0.510291 0.971272 -0.138381
C105  C     C_R   0.437367 0.997741 0.534493 0.009323
C106  C     C_R   0.818932 0.470440 0.647676 0.528740
C107  C     C_R   0.442005 0.006561 0.960902 -0.002398
C108  C     C_R   0.433259 0.987962 0.458151 0.003306
C109  C     C_R   0.435571 0.998050 0.037205 -0.002616
C110  C     C_R   0.932069 0.512255 0.542240 0.002503
C111  C     C_R   0.942003 0.506575 0.960893 -0.002295
C112  C     C_R   0.938539 0.502805 0.465958 0.001630
C113  C     C_R   0.935584 0.498068 0.037196 -0.002592
C114  C     C_R   0.221920 0.011039 0.535577 0.009366
C115  C     C_R   0.226768 0.024442 0.956565 0.005907
C116  C     C_R   0.217608 0.989182 0.462864 0.013613
C117  C     C_R   0.821550 0.471031 0.851913 0.530060
C118  C     C_R   0.217553 0.004013 0.029301 0.004495
C119  C     C_R   0.716236 0.506621 0.535355 0.009756
C120  C     C_R   0.726768 0.524433 0.956568 0.006063
C121  C     C_R   0.722971 0.485401 0.462557 0.010788
C122  C     C_R   0.717565 0.503997 0.029302 0.004623
C123  C     C_R   0.115856 0.034183 0.568979 -0.081130
C124  C     C_R   0.124044 0.048356 0.919305 -0.087355
C125  C     C_R   0.106027 0.970729 0.432447 -0.082364
C126  C     C_R   0.101837 0.990254 0.057087 -0.076052
C127  C     C_R   0.602996 0.522869 0.564662 -0.074934
C128  C     C_R   0.820894 0.530356 0.353349 0.527359
C129  C     C_R   0.624036 0.548340 0.919313 -0.087355
C130  C     C_R   0.618042 0.461750 0.427379 -0.083246
C131  C     C_R   0.601861 0.490211 0.057086 -0.076225
C132  C     C_R   0.006080 0.021388 0.535942 -0.139947
C133  C     C_R   0.011240 0.039970 0.949748 -0.124042
C134  C     C_R   0.001176 0.985337 0.470120 -0.142103
C135  C     C_R   0.000056 0.008193 0.017365 -0.095780
C136  C     C_R   0.499435 0.508192 0.525281 -0.071106
C137  C     C_R   0.511238 0.539924 0.949752 -0.123900
C138  C     C_R   0.506806 0.474128 0.458458 -0.103026
C139  C     C_R   0.819021 0.531223 0.145961 0.516851
C140  C     C_R   0.500070 0.508121 0.017357 -0.095830
C141  C     C_R   0.136278 0.758948 0.642948 0.543364
C142  C     C_R   0.128205 0.756965 0.853348 0.519699
C143  C     C_R   0.128490 0.243854 0.353067 0.536255
C144  C     C_R   0.133009 0.242607 0.144423 0.552541
C145  C     C_R   0.628852 0.256302 0.646671 0.537959
C146  C     C_R   0.628224 0.256967 0.853360 0.517277
C147  C     C_R   0.626832 0.743498 0.352542 0.516072
C148  C     C_R   0.633010 0.742603 0.144420 0.551489
C149  C     C_R   0.500073 0.785986 0.636799 0.578274
C150  C     C_3   0.145458 0.727319 0.463425 -0.132028
C151  C     C_R   0.494736 0.788216 0.862387 0.575487
C152  C     C_R   0.490824 0.209991 0.362447 0.585443
C153  C     C_R   0.498661 0.212669 0.137074 0.567481
C154  C     C_R   0.990903 0.289830 0.637311 0.589394
C155  C     C_R   0.994748 0.288214 0.862389 0.575927
C156  C     C_R   0.994349 0.712040 0.362178 0.574002
C157  C     C_R   0.998651 0.712676 0.137070 0.568365
C158  C     C_3   0.996977 0.799743 0.477661 -0.107365
C159  C     C_3   0.063930 0.798205 0.031556 -0.062867
C160  C     C_3   0.005672 0.206445 0.520566 -0.110981
Cr1   Cr    Cr6+3 0.488160 0.884660 0.750000 0.961607
Cr2   Cr    Cr6+3 0.333410 0.272740 0.250000 0.989498
Cr3   Cr    Cr6+3 0.833410 0.227260 0.750000 0.993039
Cr4   Cr    Cr6+3 0.833410 0.772740 0.250000 0.987142
Cr5   Cr    Cr6+3 0.488160 0.115340 0.250000 0.980050
Cr6   Cr    Cr6+3 0.988160 0.384660 0.750000 0.963349
Cr7   Cr    Cr6+3 0.988160 0.615340 0.250000 0.971834
Cr8   Cr    Cr6+3 0.173480 0.883120 0.750000 0.957372
Cr9   Cr    Cr6+3 0.173480 0.116880 0.250000 0.980715
Cr10  Cr    Cr6+3 0.673480 0.383120 0.750000 0.951643
Cr11  Cr    Cr6+3 0.673480 0.616880 0.250000 0.982907
Cr12  Cr    Cr6+3 0.333410 0.727260 0.750000 0.996279
H1    H     H_    0.190194 0.841025 0.507635 0.122498
H2    H     H_    0.933150 0.056501 0.919694 0.097171
H3    H     H_    0.327239 0.464175 0.854629 0.083356
H4    H     H_    0.270796 0.395257 0.798967 0.127548
H5    H     H_    0.222992 0.401503 0.892796 0.220450
H6    H     H_    0.482947 0.600718 0.349606 0.205877
H7    H     H_    0.399806 0.683915 0.351390 0.119886
H8    H     H_    0.229763 0.602890 0.401454 0.201668
H9    H     H_    0.265564 0.604676 0.305583 0.142451
H10   H     H_    0.318025 0.534209 0.358668 0.095298
H11   H     H_    0.303546 0.864915 0.105490 0.124993
H12   H     H_    0.443232 0.847651 0.152926 0.120788
H13   H     H_    0.916740 0.970207 0.447088 0.092263
H14   H     H_    0.332194 0.775035 0.242985 0.153852
H15   H     H_    0.281295 0.864523 0.240562 0.085089
H16   H     H_    0.193055 0.796804 0.197726 0.199972
H17   H     H_    0.913058 0.998550 0.039865 0.114397
H18   H     H_    0.413944 0.523251 0.546807 0.125939
H19   H     H_    0.433147 0.556444 0.919694 0.097084
H20   H     H_    0.427086 0.458742 0.429343 0.089570
H21   H     H_    0.413078 0.498426 0.039840 0.114202
H22   H     H_    0.948952 0.845029 0.454469 0.121423
H23   H     H_    0.078237 0.845777 0.064884 0.114266
H24   H     H_    0.977166 0.158057 0.548015 0.125209
H25   H     H_    0.252028 0.780818 0.977553 0.138916
H26   H     H_    0.902906 0.172968 0.969822 0.122570
H27   H     H_    0.471227 0.340527 0.451612 0.124280
H28   H     H_    0.578532 0.345700 0.064940 0.114122
H29   H     H_    0.638727 0.665945 0.564833 0.126225
H30   H     H_    0.402844 0.672973 0.969821 0.122455
H31   H     H_    0.902109 0.646503 0.501250 0.113895
H32   H     H_    0.843447 0.696534 0.009117 0.100020
H33   H     H_    0.870776 0.351805 0.486075 0.106247
H34   H     H_    0.942886 0.373397 0.990470 0.116369
H35   H     H_    0.372583 0.146071 0.513069 0.108025
H36   H     H_    0.203761 0.187475 0.486493 0.121806
H37   H     H_    0.343462 0.196624 0.009176 0.100036
H38   H     H_    0.337775 0.758021 0.525157 0.120274
H39   H     H_    0.442860 0.873392 0.990477 0.116210
H40   H     H_    0.161224 0.643974 0.551769 0.159908
H41   H     H_    0.012434 0.637032 0.916326 0.125816
H42   H     H_    0.094926 0.372134 0.425169 0.134152
H43   H     H_    0.193379 0.354081 0.040649 0.178950
H44   H     H_    0.600371 0.129751 0.574704 0.138810
H45   H     H_    0.512302 0.137017 0.916340 0.125726
H46   H     H_    0.448451 0.849403 0.418388 0.114185
H47   H     H_    0.146367 0.149913 0.020448 0.139941
H48   H     H_    0.693405 0.854037 0.040640 0.179031
H49   H     H_    0.223047 0.718035 0.427368 0.153505
H50   H     H_    0.184565 0.648655 0.039044 0.163767
H51   H     H_    0.187199 0.333654 0.549387 0.213095
H52   H     H_    0.220199 0.256895 0.923232 0.172988
H53   H     H_    0.688110 0.168315 0.450367 0.215174
H54   H     H_    0.684494 0.148522 0.039015 0.163958
H55   H     H_    0.624714 0.870565 0.533741 0.163866
H56   H     H_    0.720128 0.756843 0.923217 0.172943
H57   H     H_    0.727418 0.966905 0.424526 0.104686
H58   H     H_    0.699808 0.315751 0.513628 0.119123
H59   H     H_    0.731536 0.988258 0.077745 0.103994
H60   H     H_    0.736573 0.018778 0.550271 0.101278
H61   H     H_    0.745306 0.021011 0.947571 0.106979
H62   H     H_    0.241058 0.488341 0.455628 0.108114
H63   H     H_    0.231555 0.488512 0.077752 0.103289
H64   H     H_    0.225244 0.530693 0.582366 0.103007
H65   H     H_    0.245255 0.521272 0.947570 0.106922
H66   H     H_    0.537636 0.958064 0.363135 0.118256
H67   H     H_    0.539839 0.967532 0.132767 0.117599
H68   H     H_    0.557888 0.021493 0.624408 0.125570
H69   H     H_    0.752153 0.280674 0.977535 0.139195
H70   H     H_    0.566062 0.022665 0.870919 0.124578
H71   H     H_    0.063798 0.483986 0.377295 0.125117
H72   H     H_    0.039910 0.467593 0.132751 0.118329
H73   H     H_    0.032648 0.543243 0.638787 0.125429
H74   H     H_    0.066029 0.522708 0.870899 0.124329
H75   H     H_    0.100068 0.945937 0.379404 0.127724
H76   H     H_    0.089367 0.965458 0.109427 0.124618
H77   H     H_    0.117677 0.059542 0.621841 0.133556
H78   H     H_    0.131030 0.070347 0.865155 0.131564
H79   H     H_    0.621820 0.437438 0.374030 0.125325
H80   H     H_    0.760052 0.759844 0.470625 0.156673
H81   H     H_    0.589408 0.465410 0.109426 0.123960
H82   H     H_    0.594601 0.547209 0.617762 0.124563
H83   H     H_    0.631012 0.570340 0.865166 0.131232
H84   H     H_    0.901358 0.835935 0.686324 0.158296
H85   H     H_    0.981590 0.868240 0.605943 0.173586
H86   H     H_    0.727318 0.898062 0.637008 0.196947
H87   H     H_    0.852739 0.952665 0.636900 0.074663
H88   H     H_    0.809810 0.910129 0.552094 0.146686
H89   H     H_    0.903267 0.816893 0.840612 0.139725
H90   H     H_    0.985179 0.895355 0.873679 0.200696
H91   H     H_    0.646288 0.649892 0.020449 0.139915
H92   H     H_    0.827441 0.964196 0.854492 0.083267
H93   H     H_    0.771288 0.895433 0.798472 0.127923
H94   H     H_    0.722955 0.901521 0.892296 0.220613
H95   H     H_    0.985702 0.124013 0.398021 0.174950
H96   H     H_    0.918031 0.157799 0.312921 0.182103
H97   H     H_    0.735411 0.096377 0.342813 0.200054
H98   H     H_    0.859748 0.039197 0.347846 0.084715
H99   H     H_    0.799976 0.075506 0.431474 0.145247
H100  H     H_    0.803407 0.364882 0.105224 0.125066
H101  H     H_    0.943058 0.347810 0.152783 0.122040
H102  H     H_    0.925730 0.038309 0.562753 0.095134
H103  H     H_    0.832193 0.275493 0.243050 0.181820
H104  H     H_    0.780659 0.364840 0.240178 0.090523
H105  H     H_    0.693010 0.296743 0.197570 0.199036
H106  H     H_    0.417766 0.338601 0.687403 0.171459
H107  H     H_    0.484496 0.374294 0.602699 0.170994
H108  H     H_    0.237345 0.402289 0.660477 0.195317
H109  H     H_    0.363145 0.458618 0.654292 0.076372
H110  H     H_    0.299014 0.423655 0.571254 0.140418
H111  H     H_    0.403193 0.316921 0.840788 0.139386
H112  H     H_    0.485140 0.395405 0.873714 0.200773
O1    O     O_R   0.575450 0.828820 0.667950 -0.521797
O2    O     O_R   0.416860 0.942890 0.825320 -0.524216
O3    O     O_R   0.416860 0.057110 0.325320 -0.522316
O4    O     O_R   0.416860 0.057110 0.174680 -0.517081
O5    O     O_R   0.916860 0.442890 0.674680 -0.521941
O6    O     O_R   0.916860 0.442890 0.825320 -0.525191
O7    O     O_R   0.916860 0.557110 0.325320 -0.523167
O8    O     O_R   0.916860 0.557110 0.174680 -0.515319
O9    O     O_R   0.213790 0.953680 0.668330 -0.522129
O10   O     O_R   0.213790 0.953680 0.831670 -0.520400
O11   O     O_R   0.213790 0.046320 0.331670 -0.525273
O12   O     O_R   0.575450 0.828820 0.832050 -0.530677
O13   O     O_R   0.213790 0.046320 0.168330 -0.523663
O14   O     O_R   0.713790 0.453680 0.668330 -0.529723
O15   O     O_R   0.713790 0.453680 0.831670 -0.520105
O16   O     O_R   0.713790 0.546320 0.331670 -0.520872
O17   O     O_R   0.713790 0.546320 0.168330 -0.525541
O18   O     O_R   0.121360 0.817890 0.672660 -0.538192
O19   O     O_R   0.121360 0.817890 0.827340 -0.538116
O20   O     O_R   0.121360 0.182110 0.327340 -0.539264
O21   O     O_R   0.121360 0.182110 0.172660 -0.493584
O22   O     O_R   0.621360 0.317890 0.672660 -0.541918
O23   O     O_R   0.575450 0.171180 0.332050 -0.518946
O24   O     O_R   0.621360 0.317890 0.827340 -0.539219
O25   O     O_R   0.621360 0.682110 0.327340 -0.528073
O26   O     O_R   0.621360 0.682110 0.172660 -0.494792
O27   O     O_R   0.206850 0.711370 0.665820 -0.539976
O28   O     O_R   0.206850 0.711370 0.834180 -0.529469
O29   O     O_R   0.206850 0.288630 0.334180 -0.537656
O30   O     O_R   0.206850 0.288630 0.165820 -0.547346
O31   O     O_R   0.706850 0.211370 0.665820 -0.537376
O32   O     O_R   0.706850 0.211370 0.834180 -0.530736
O33   O     O_R   0.706850 0.788630 0.334180 -0.535018
O34   O     O_R   0.575450 0.171180 0.167950 -0.505938
O35   O     O_R   0.706850 0.788630 0.165820 -0.547059
O36   O     O_R   0.457710 0.733190 0.672630 -0.500609
O37   O     O_R   0.457710 0.733190 0.827370 -0.505313
O38   O     O_R   0.457710 0.266810 0.327370 -0.507114
O39   O     O_R   0.457710 0.266810 0.172630 -0.516350
O40   O     O_R   0.957710 0.233190 0.672630 -0.499310
O41   O     O_R   0.957710 0.233190 0.827370 -0.504748
O42   O     O_R   0.957710 0.766810 0.327370 -0.513375
O43   O     O_R   0.957710 0.766810 0.172630 -0.515969
O44   O     O_3   0.331690 0.831680 0.750000 -0.284127
O45   O     O_R   0.075450 0.328820 0.667950 -0.517403
O46   O     O_3   0.331690 0.168320 0.250000 -0.292281
O47   O     O_3   0.831690 0.331680 0.750000 -0.287338
O48   O     O_3   0.831690 0.668320 0.250000 -0.287722
O49   O     O_3   0.862325 0.782116 0.590410 -0.567435
O50   O     O_3   0.890686 0.840917 0.950899 -0.590431
O51   O     O_3   0.859275 0.206215 0.406809 -0.588607
O52   O     O_3   0.859681 0.262721 0.099589 -0.563292
O53   O     O_3   0.357552 0.292238 0.592367 -0.579502
O54   O     O_3   0.390931 0.340993 0.951086 -0.590360
O55   O     O_3   0.438924 0.635578 0.452283 -0.568420
O56   O     O_R   0.075450 0.328820 0.832050 -0.531068
O57   O     O_3   0.359612 0.762726 0.099570 -0.562720
O58   O     O_R   0.075450 0.671180 0.332050 -0.539244
O59   O     O_R   0.075450 0.671180 0.167950 -0.509091
O60   O     O_R   0.416860 0.942890 0.674680 -0.524352

loop_
_geom_bond_atom_site_label_1
_geom_bond_atom_site_label_2
_ccdc_geom_bond_type
C145  O22   A    
C6    C32   S    
C142  O19   A    
C60   H103  S    
C117  O6    A    
C127  H82   S    
C61   H106  S    
C20   C144  S    
C70   C150  S    
C83   C128  S    
Cr12  O27   S    
C103  H64   S    
C124  C133  A    
C147  O33   A    
Cr5   O4    S    
C86   C110  A    
Cr9   O20   S    
C123  H77   S    
C88   C108  A    
C65   H6    S    
C95   O4    A    
C76   C153  S    
Cr3   O41   S    
C3    C74   S    
C131  C140  A    
C137  H19   S    
C4    H27   S    
Cr1   O1    S    
C157  O43   A    
C55   H93   S    
C78   C151  S    
C86   C119  A    
C91   C100  A    
C4    C12   S    
C88   C97   A    
C153  O39   A    
C36   C71   S    
Cr7   O59   S    
C160  H24   S    
C21   C48   S    
C66   H10   S    
C59   C60   S    
C101  C103  A    
Cr8   O18   S    
C7    C33   S    
Cr10  O47   S    
C155  O56   A    
Cr1   O60   S    
C128  O16   A    
C5    H28   S    
C71   C157  S    
C137  C140  A    
C11   C20   S    
C72   C154  S    
C91   C107  A    
C127  C136  A    
C106  O5    A    
C149  O36   A    
Cr7   O8    S    
C40   H37   S    
C40   C76   S    
C49   H45   S    
C8    C150  S    
C17   C43   S    
C18   C44   S    
C155  O41   A    
C115  C118  A    
C152  O23   A    
C131  H81   S    
C111  C113  A    
C106  O14   A    
Cr12  O37   S    
C31   O54   S    
C22   C49   S    
Cr9   O21   S    
Cr4   O42   S    
C60   H105  S    
C96   C104  A    
C150  H49   S    
C36   C44   S    
C37   C45   S    
C2    C71   S    
C130  C138  A    
C10   C160  S    
C144  O21   A    
C16   C25   S    
C58   H98   S    
C53   H86   S    
C35   H53   S    
C50   C57   S    
C90   C105  A    
C93   H72   S    
Cr11  O16   S    
C68   H56   S    
Cr12  O44   S    
C13   C72   S    
C117  O15   A    
Cr11  O26   S    
C8    C17   S    
C5    C76   S    
C144  O30   A    
C13   C45   S    
C64   H5    S    
C79   C108  A    
C26   C158  S    
C52   H84   S    
C94   H73   S    
C20   C47   S    
C3    C11   S    
C129  C137  A    
C128  O7    A    
C132  C134  A    
C101  H62   S    
C133  C135  A    
C83   C112  A    
Cr6   O56   S    
C1    C81   S    
C156  O42   A    
C123  C132  A    
C62   H109  S    
C121  C130  A    
C154  O40   A    
C148  O35   A    
C84   O11   A    
C130  H79   S    
C159  H23   S    
Cr8   O9    S    
C120  C129  A    
C33   C42   S    
C82   C115  A    
C153  O34   A    
C79   C84   S    
C157  O59   A    
C27   C159  S    
C40   C49   S    
C28   C160  S    
C3    C29   S    
C10   H36   S    
C124  H78   S    
Cr10  O14   S    
C73   O2    A    
C22   C146  S    
C2    C44   S    
C29   C38   S    
Cr5   O46   S    
C39   C75   S    
C64   H4    S    
C140  H21   S    
C75   C152  S    
Cr2   O38   S    
C30   O53   S    
Cr5   O34   S    
C53   H88   S    
C86   C106  S    
C9    H25   S    
C63   H112  S    
C119  C121  A    
C96   C111  A    
C81   C105  A    
C55   H92   S    
C26   O49   S    
C6    H29   S    
Cr3   O31   S    
C73   O10   A    
C54   O50   S    
C80   C109  A    
C88   H66   S    
C80   C95   S    
C19   C28   S    
C43   C150  S    
C67   H11   S    
C143  O20   A    
C114  C123  A    
C116  C125  A    
C65   O55   S    
Cr1   O12   S    
C41   H38   S    
C11   H47   S    
C90   C99   A    
C52   C53   S    
C38   C74   S    
C54   C55   S    
C60   H104  S    
C54   H89   S    
C37   H33   S    
C34   C43   S    
C114  C116  A    
C19   C45   S    
C118  C126  A    
Cr12  O28   S    
C1    O9    A    
C89   C98   A    
C14   C22   S    
C85   C113  A    
Cr11  O17   S    
C28   C37   S    
Cr10  O22   S    
C56   C58   S    
C59   H100  S    
C156  O58   A    
C61   C62   S    
C56   H96   S    
C110  C112  A    
C67   O57   S    
C63   C64   S    
C57   H55   S    
C9    C18   S    
Cr8   O44   S    
C2    C9    S    
C25   C33   S    
C119  C127  A    
C125  C134  A    
C95   O13   A    
C122  C131  A    
C8    C158  S    
C151  O37   A    
C14   C46   S    
Cr1   O2    S    
C46   C49   S    
C158  H22   S    
C87   C117  S    
C92   H71   S    
C87   C111  A    
C15   H80   S    
Cr7   O7    S    
C52   O49   S    
C2    H50   S    
C3    H26   S    
C31   C40   S    
C17   C141  S    
C4    C75   S    
C16   H91   S    
Cr6   O5    S    
C129  H83   S    
C141  O27   A    
C47   H43   S    
C59   O52   S    
C34   C70   S    
C146  O24   A    
C102  H63   S    
C61   H107  S    
Cr3   O47   S    
C100  H61   S    
C104  H65   S    
C55   H94   S    
C13   H51   S    
C35   C48   S    
C96   H74   S    
C139  O8    A    
C68   C78   S    
C141  O18   A    
Cr5   O23   S    
C80   C118  A    
C151  O12   A    
C57   C77   S    
C154  O45   A    
C77   C149  S    
C92   C112  A    
C23   C50   S    
Cr4   O48   S    
C66   H8    S    
C58   H99   S    
C94   C110  A    
C44   H41   S    
C70   C158  S    
C21   C145  S    
Cr4   O35   S    
C91   H70   S    
C152  O38   A    
C10   C19   S    
C147  O25   A    
C45   H42   S    
C85   C122  A    
C93   C113  A    
C43   H40   S    
C5    C14   S    
C56   O51   S    
C92   C101  A    
C7    C16   S    
C66   H9    S    
C94   C103  A    
C98   C100  A    
Cr6   O47   S    
C125  H75   S    
C41   C50   S    
C33   O57   S    
C115  C124  A    
C138  H20   S    
C62   H110  S    
C93   C102  A    
C12   H58   S    
C27   C36   S    
C65   H7    S    
C21   C30   S    
Cr8   O10   S    
C23   C32   S    
Cr9   O46   S    
Cr5   O3    S    
C107  C109  A    
C23   C147  S    
Cr2   O46   S    
C52   H85   S    
Cr11  O25   S    
C74   C155  S    
C25   C148  S    
Cr10  O15   S    
C98   H59   S    
C37   C72   S    
Cr11  O48   S    
C69   H14   S    
C39   C48   S    
C56   H95   S    
Cr2   O39   S    
C48   H44   S    
C53   H87   S    
C89   H67   S    
C46   C76   S    
C99   H60   S    
C63   H111  S    
C58   H97   S    
C35   C75   S    
Cr3   O40   S    
C70   C156  S    
C17   C26   S    
C7    H30   S    
C41   C77   S    
C9    C159  S    
C89   C109  A    
C11   C24   S    
Cr2   O30   S    
C32   O55   S    
C135  H17   S    
Cr7   O58   S    
C6    C15   S    
C26   C34   S    
C97   H57   S    
Cr6   O45   S    
C39   H35   S    
C30   C39   S    
Cr8   O19   S    
C142  O28   A    
C16   C68   S    
C133  H2    S    
C85   C139  S    
C42   C51   S    
C15   C23   S    
C61   O53   S    
C79   C116  A    
Cr12  O36   S    
C15   C57   S    
C134  H13   S    
C29   O52   S    
C62   H108  S    
Cr9   O11   S    
C97   C99   A    
C120  C122  A    
C20   C29   S    
C24   H52   S    
C105  C108  A    
C12   C35   S    
C139  O17   A    
C22   C31   S    
C126  H76   S    
C54   H90   S    
C18   C142  S    
C136  C138  A    
Cr10  O24   S    
C8    H1    S    
C6    C77   S    
Cr1   O44   S    
C12   C21   S    
C50   H46   S    
Cr4   O33   S    
C136  H18   S    
C67   C69   S    
C81   C114  A    
Cr2   O29   S    
C25   C51   S    
C14   H69   S    
Cr4   O43   S    
C34   H31   S    
C32   C41   S    
C27   O50   S    
C132  H102  S    
C73   C82   S    
C46   H54   S    
C82   C107  A    
C83   C121  A    
C64   H3    S    
C102  C104  A    
C143  O29   A    
C69   H16   S    
C38   C47   S    
C7    C78   S    
C42   C78   S    
C148  O26   A    
C28   O51   S    
C69   H15   S    
C19   C143  S    
C38   H34   S    
C24   C47   S    
C149  O1    A    
C84   O3    A    
C18   C27   S    
Cr3   O32   S    
C10   C13   S    
C126  C135  A    
C51   H48   S    
C71   C159  S    
C72   C160  S    
C90   H68   S    
C1    O60   A    
C87   C120  A    
Cr7   O48   S    
C24   C74   S    
C145  O31   A    
C59   H101  S    
C146  O32   A    
C51   C68   S    
C67   H12   S    
C63   O54   S    
Cr6   O6    S    
C65   C66   S    
C36   H32   S    
Cr9   O13   S    
C4    C30   S    
C42   H39   S    
C5    C31   S    
