data_mof_unit_15292.cif
_audit_creation_date              2012-12-11T19:54:10-0500
_audit_creation_method            fapswitch 2.2
_symmetry_space_group_name_H-M    P1
_symmetry_Int_Tables_number       1
_space_group_crystal_system       triclinic
_cell_length_a                    8.205697
_cell_length_b                    16.497574
_cell_length_c                    17.278639
_cell_angle_alpha                 111.486253
_cell_angle_beta                  82.660039
_cell_angle_gamma                 96.07929
_cell_volume                      2154.25902614

loop_
_atom_site_label
_atom_site_type_symbol
_atom_type_description
_atom_site_fract_x
_atom_site_fract_y
_atom_site_fract_z
_atom_type_partial_charge
Ba1   Ba    Ba6+2 0.325860 0.460280 0.530510 1.664653
Ba2   Ba    Ba6+2 0.863950 0.539650 0.469460 1.686457
C1    C     C_3   0.057731 0.175952 0.707364 -0.285436
C2    C     C_3   0.894317 0.505914 0.787442 0.007950
C3    C     C_2   0.806403 0.488757 0.863342 -0.131776
C4    C     C_3   0.591143 0.241165 0.689291 0.320937
C5    C     C_2   0.643210 0.500140 0.884856 -0.055424
C6    C     C_2   0.553043 0.530895 0.830951 -0.010245
C7    C     C_1   0.625998 0.535812 0.759282 0.041358
C8    C     C_R   0.399782 0.530261 0.144550 0.085100
C9    C     C_R   0.331788 0.534957 0.224096 -0.009351
C10   C     C_R   0.559569 0.460816 0.238593 0.059664
C11   C     C_R   0.624855 0.452089 0.156296 -0.084663
C12   C     C_3   0.053630 0.254306 0.681433 0.285678
C13   C     C_R   0.545870 0.487851 0.108849 0.112164
C14   C     C_2   0.552482 0.480692 0.958657 0.389503
C15   C     C_2   0.628571 0.493003 0.028368 -0.105082
C16   C     C_3   0.571777 0.215160 0.766660 0.368218
C17   C     C_R   0.413279 0.502365 0.271503 -0.244846
C18   C     C_2   0.391482 0.755298 0.499769 -0.291210
C19   C     C_R   0.803046 0.250420 0.479238 -0.296361
C20   C     C_2   0.205092 0.872321 0.572174 -0.119808
C21   C     C_2   0.239679 0.789267 0.553748 0.021641
C22   C     C_2   0.514486 0.810186 0.484289 -0.055738
C23   C     C_3   0.000728 0.698540 0.740434 0.302658
C24   C     C_3   0.495795 0.907463 0.527376 0.058242
C25   C     C_3   0.315656 0.929694 0.534934 0.033736
C26   C     C_2   0.622292 0.965713 0.497700 -0.028379
C27   C     C_2   0.585467 0.039611 0.490035 -0.053130
C28   C     C_3   0.670855 0.266272 0.320059 0.303720
C29   C     C_R   0.870031 0.077313 0.437725 -0.034074
C30   C     C_R   0.713038 0.103646 0.474215 -0.023818
C31   C     C_R   0.989397 0.134816 0.417972 -0.111741
C32   C     C_R   0.954552 0.221281 0.437250 0.083059
C33   C     C_R   0.679731 0.191528 0.494836 -0.012218
C34   C     C_3   0.979152 0.735279 0.835431 -0.356232
C35   C     C_3   0.664678 0.167265 0.278705 -0.373728
C36   C     C_3   0.527450 0.730694 0.673160 0.270672
C37   C     C_3   0.524185 0.829612 0.710999 -0.318601
C38   C     C_3   0.202980 0.326858 0.264835 0.274865
C39   C     C_3   0.222591 0.295981 0.169883 -0.336902
C40   C     C_3   0.747828 0.810477 0.309796 0.822023
C41   C     C_3   0.846708 0.879963 0.281623 -0.283678
C42   C     C_3   0.244683 0.753026 0.324166 0.344149
C43   C     C_3   0.271700 0.840284 0.311803 -0.314474
C44   C     C_2   0.773046 0.506424 0.728899 -0.289861
H1    H     H_    0.180919 0.271385 0.660280 0.140002
H2    H     H_    0.326436 0.341329 0.287773 0.014210
H3    H     H_    0.132500 0.386467 0.289353 0.052071
H4    H     H_    0.148237 0.189937 0.753888 0.155365
H5    H     H_    0.294160 0.236772 0.143766 0.138599
H6    H     H_    0.288529 0.347506 0.148889 0.090997
H7    H     H_    0.099623 0.280406 0.145640 0.144204
H8    H     H_    0.977041 0.236333 0.628373 0.003430
H9    H     H_    0.094116 0.118192 0.651898 0.127699
H10   H     H_    0.876535 0.685606 0.717620 0.022772
H11   H     H_    0.063310 0.636519 0.719860 0.032036
H12   H     H_    0.763270 0.147749 0.226248 0.139418
H13   H     H_    0.920939 0.798656 0.857648 0.142283
H14   H     H_    0.898897 0.689404 0.859336 0.068938
H15   H     H_    0.100813 0.745305 0.860451 0.135844
H16   H     H_    0.935000 0.161203 0.735878 0.167251
H17   H     H_    0.679115 0.243777 0.803213 -0.009765
H18   H     H_    0.629887 0.837390 0.342992 -0.216513
H19   H     H_    0.948376 0.852028 0.233037 0.147616
H20   H     H_    0.765435 0.912368 0.256673 0.082363
H21   H     H_    0.903501 0.928751 0.335117 0.039589
H22   H     H_    0.367230 0.727797 0.319704 0.032496
H23   H     H_    0.682575 0.136698 0.324007 0.052189
H24   H     H_    0.180270 0.764526 0.387442 0.042845
H25   H     H_    0.315673 0.830781 0.245800 0.173063
H26   H     H_    0.363932 0.882952 0.352815 0.052914
H27   H     H_    0.616565 0.313175 0.709681 -0.034766
H28   H     H_    0.155581 0.873737 0.329083 0.106575
H29   H     H_    0.758258 0.514109 0.029607 0.112254
H30   H     H_    0.430571 0.553728 0.853204 0.142867
H31   H     H_    0.343317 0.563995 0.112893 0.138579
H32   H     H_    0.877725 0.466141 0.899306 0.121744
H33   H     H_    0.738978 0.420559 0.130612 0.097586
H34   H     H_    0.543142 0.142696 0.254256 0.128637
H35   H     H_    0.811509 0.486854 0.662474 0.075799
H36   H     H_    0.362363 0.509280 0.334353 0.057691
H37   H     H_    0.095542 0.898250 0.612377 0.116999
H38   H     H_    0.698797 0.208699 0.648778 -0.015502
H39   H     H_    0.106718 0.111211 0.385889 0.092532
H40   H     H_    0.406785 0.685763 0.478494 0.077854
H41   H     H_    0.778273 0.318196 0.496078 0.067683
H42   H     H_    0.750506 0.951964 0.492080 0.097508
H43   H     H_    0.458274 0.055499 0.499609 0.110470
H44   H     H_    0.459514 0.240424 0.807037 0.095754
H45   H     H_    0.413549 0.702758 0.642802 0.006126
H46   H     H_    0.793182 0.290127 0.342262 0.012904
H47   H     H_    0.573627 0.284381 0.373234 0.057008
H48   H     H_    0.742557 0.620478 0.268863 0.371136
H49   H     H_    0.220075 0.338000 0.850910 0.374780
H50   H     H_    0.349437 0.004836 0.721150 0.350125
H51   H     H_    0.634163 0.713826 0.625432 0.085239
H52   H     H_    0.414090 0.848435 0.756673 0.140467
H53   H     H_    0.519924 0.856720 0.661517 0.082710
H54   H     H_    0.636886 0.858059 0.743229 0.155353
O1    O     O_2   0.351410 0.559500 0.703710 -0.471188
O2    O     O_2   0.827088 0.807344 0.515646 -0.477994
O3    O     O_3   0.841086 0.785605 0.359821 -0.610479
O4    O     O_3   0.622300 0.553110 0.604480 -0.501776
O5    O     O_3   0.040530 0.390860 0.438530 -0.494680
O6    O     O_2   0.927940 0.718960 0.581060 -0.458004
O7    O     O_3   0.096010 0.759626 0.711807 -0.634984
O8    O     O_2   0.993005 0.539902 0.227442 -0.458254
O9    O     O_3   0.147663 0.694566 0.263390 -0.532903
O10   O     O_3   0.077860 0.395310 0.623380 -0.501957
O11   O     O_2   0.214366 0.449166 0.764226 -0.411677
O12   O     O_3   0.119280 0.260153 0.288495 -0.630730
O13   O     O_3   0.540410 0.699247 0.737027 -0.632590
O14   O     O_3   0.987631 0.323979 0.749390 -0.633207
O15   O     O_2   0.261760 0.281010 0.418880 -0.474525
O16   O     O_3   0.488390 0.347430 0.574410 -0.472482
O17   O     O_2   0.334626 0.192559 0.504189 -0.508339
O18   O     O_2   0.573947 0.734609 0.175988 -0.327857
O19   O     O_2   0.857874 0.692507 0.160190 -0.269844
O20   O     O_3   0.641442 0.638515 0.256023 -0.595082
O21   O     O_2   0.300209 0.380436 0.002266 -0.334879
O22   O     O_2   0.229999 0.507118 0.973480 -0.300546
O23   O     O_3   0.447174 0.216734 0.647423 -0.590396
O24   O     O_3   0.326919 0.371670 0.849304 -0.530382
O25   O     O_2   0.690589 0.057670 0.674970 -0.333264
O26   O     O_2   0.575658 0.081545 0.818935 -0.288865
O27   O     O_3   0.371884 0.058954 0.708261 -0.527401
O28   O     O_2   0.838300 0.440470 0.296230 -0.470053
O29   O     O_3   0.567380 0.446810 0.395500 -0.505058
O30   O     O_3   0.111820 0.604620 0.376600 -0.500904
O31   O     O_3   0.645720 0.300807 0.260379 -0.631857
O32   O     O_3   0.149150 0.609060 0.561440 -0.485541
O33   O     O_3   0.701290 0.652490 0.425560 -0.464701
P1    P     P_3+3 0.533580 0.585010 0.696460 0.981516
P2    P     P_3+3 0.097450 0.292710 0.397510 0.976876
P3    P     P_3+3 0.486035 0.235706 0.552804 0.948779
P4    P     P_3+3 0.656110 0.414920 0.303520 0.981143
P5    P     P_3+3 0.718020 0.764905 0.443073 0.983106
P6    P     P_3+3 0.043760 0.421343 0.731010 0.989274
P7    P     P_3+3 0.108463 0.720390 0.602573 0.953025
P8    P     P_3+3 0.144403 0.591573 0.271275 1.038016
S1    S     S_3+6 0.706062 0.718066 0.220056 -0.091826
S2    S     S_3+6 0.345977 0.435237 0.948864 -0.114625
S3    S     S_3+6 0.557326 0.099753 0.741479 -0.090583

loop_
_geom_bond_atom_site_label_1
_geom_bond_atom_site_label_2
_ccdc_geom_bond_type
H49   O24   S    
C19   H41   S    
C35   H23   S    
C43   H25   S    
O21   S2    D    
C23   H10   S    
C34   H13   S    
C40   O3    S    
C27   H43   S    
O11   P6    D    
C5    C6    S    
C38   O12   S    
C2    C44   S    
O1    P1    D    
C9    C17   A    
C24   C25   S    
O4    P1    S    
C4    O23   S    
O10   P6    S    
C22   C24   S    
C28   H47   S    
Ba1   O29   S    
C8    C13   A    
C36   C37   S    
C16   H17   S    
O25   S3    D    
C38   H3    S    
C6    H30   S    
Ba2   O29   S    
C11   H33   S    
C38   H2    S    
Ba1   Ba2   S    
O2    P5    D    
O7    P7    S    
O30   P8    S    
C31   H39   S    
C1    H9    S    
C1    H4    S    
C18   C22   D    
C14   C15   D    
C18   H40   S    
C40   S1    S    
Ba2   O32   S    
C29   C31   A    
O24   S2    S    
C42   H24   S    
Ba1   O16   S    
C17   H36   S    
C39   H6    S    
C35   H12   S    
O5    P2    S    
C42   O9    S    
Ba1   O32   S    
O33   P5    S    
C43   H26   S    
C23   H11   S    
O22   S2    D    
C36   H51   S    
O8    P8    D    
C8    H31   S    
C4    C16   S    
C35   H34   S    
Ba2   O33   S    
C4    H38   S    
C16   H44   S    
C30   C33   A    
C21   P7    S    
C14   S2    S    
O20   S1    S    
C28   H46   S    
O3    P5    S    
C3    C5    D    
C36   O13   S    
C6    C7    D    
C37   H52   S    
C19   C32   A    
C22   P5    S    
C12   O14   S    
C36   H45   S    
Ba2   O6    S    
H50   O27   S    
C43   H28   S    
O28   P4    D    
C26   H42   S    
O31   P4    S    
Ba1   O10   S    
C44   H35   S    
O6    P7    D    
C29   C30   A    
C18   C21   S    
Ba2   O4    S    
C41   H19   S    
C31   C32   A    
O14   P6    S    
C9    P8    S    
Ba1   O4    S    
C39   H7    S    
C1    C12   S    
C19   C33   A    
C38   C39   S    
C12   H8    S    
O13   P1    S    
C11   C13   A    
C42   H22   S    
C40   C41   S    
O12   P2    S    
C34   H15   S    
C26   C27   D    
Ba1   O1    S    
Ba1   P1    S    
C42   C43   S    
C23   O7    S    
C4    H27   S    
C1    H16   S    
C13   C15   S    
C5    C14   S    
C10   P4    S    
Ba2   P4    S    
C2    C3    S    
O18   S1    D    
C33   P3    S    
C40   H18   S    
C12   H1    S    
O16   P3    S    
O32   P7    S    
Ba2   O5    S    
C24   C26   S    
O23   P3    S    
C20   C25   S    
C20   H37   S    
C16   S3    S    
C27   C30   S    
C7    P1    S    
C2    P6    S    
C37   H54   S    
O15   P2    D    
C32   P2    S    
C41   H20   S    
C10   C17   A    
O26   S3    D    
Ba2   O30   S    
O27   S3    S    
C8    C9    A    
C23   C34   S    
C37   H53   S    
C7    C44   D    
O29   P4    S    
C10   C11   A    
C28   C35   S    
C41   H21   S    
H48   O20   S    
C15   H29   S    
O19   S1    D    
C34   H14   S    
C20   C21   D    
O9    P8    S    
Ba1   O15   S    
C3    H32   S    
Ba1   P2    S    
O17   P3    D    
C39   H5    S    
C28   O31   S    
Ba1   O5    S    
Ba2   O28   S    
