data_mof_unit_16154.cif
_audit_creation_date              2012-12-11T14:56:22-0500
_audit_creation_method            fapswitch 2.2
_symmetry_space_group_name_H-M    P1
_symmetry_Int_Tables_number       1
_space_group_crystal_system       triclinic
_cell_length_a                    10.529856
_cell_length_b                    10.660318
_cell_length_c                    17.089053
_cell_angle_alpha                 80.610041
_cell_angle_beta                  89.556551
_cell_angle_gamma                 119.151879
_cell_volume                      1644.3521512

loop_
_atom_site_label
_atom_site_type_symbol
_atom_type_description
_atom_site_fract_x
_atom_site_fract_y
_atom_site_fract_z
_atom_type_partial_charge
C1    C     C_R   0.278145 0.888505 0.132751 0.529883
C2    C     C_1   0.650964 0.345260 0.707573 -0.054042
C3    C     C_R   0.621358 0.712924 0.804073 -0.134183
C4    C     C_R   0.608298 0.205072 0.101736 0.549620
C5    C     C_R   0.607260 0.699977 0.725696 -0.150332
C6    C     C_R   0.670628 0.825240 0.665258 0.046044
C7    C     C_R   0.756845 0.965259 0.683626 0.121977
C8    C     C_R   0.765720 0.977302 0.763707 -0.108444
C9    C     C_R   0.691760 0.851702 0.823396 0.001224
C10   C     C_R   0.239798 0.963811 0.760510 -0.156517
C11   C     C_R   0.228623 0.953269 0.681746 -0.141770
C12   C     C_R   0.733150 0.255361 0.302291 0.107538
C13   C     C_R   0.160601 0.815869 0.661247 0.002399
C14   C     C_R   0.116735 0.689022 0.719383 -0.131319
C15   C     C_R   0.126945 0.697720 0.799751 0.026620
C16   C     C_R   0.640481 0.858526 0.125401 0.541510
C17   C     C_R   0.185963 0.837306 0.820261 0.008111
C18   C     C_R   0.686288 0.810301 0.357379 0.540897
C19   C     C_R   0.681563 0.380942 0.400008 0.574677
C20   C     C_R   0.108316 0.812351 0.359948 0.555921
C21   C     C_R   0.677566 0.800777 0.585376 0.548360
C22   C     C_R   0.678182 0.381813 0.624431 0.543970
C23   C     C_R   0.715438 0.217283 0.227997 -0.132222
C24   C     C_R   0.101256 0.802418 0.585419 0.555132
C25   C     C_R   0.222385 0.862361 0.899646 0.590418
C26   C     C_R   0.637673 0.285242 0.861013 0.572499
C27   C     C_R   0.647997 0.866379 0.899826 0.550513
C28   C     C_R   0.495631 0.234588 0.222032 -0.146112
C29   C     C_R   0.505366 0.264875 0.299272 0.004205
C30   C     C_R   0.634617 0.293438 0.335999 0.021820
C31   C     C_2   0.069538 0.559722 0.859559 0.584633
C32   C     C_2   0.376637 0.257790 0.340311 0.594179
C33   C     C_3   0.995229 0.387029 0.305116 -0.247585
C34   C     C_R   0.606399 0.221182 0.184692 -0.042857
C35   C     C_3   0.963173 0.215613 0.634073 -0.251336
C36   C     C_1   0.668642 0.849204 0.205535 -0.031918
C37   C     C_1   0.680011 0.839810 0.275001 -0.036218
C38   C     C_1   0.226902 0.853812 0.215395 -0.046993
C39   C     C_1   0.178552 0.834092 0.283059 -0.044204
C40   C     C_1   0.644245 0.323898 0.778184 -0.051886
Cr1   Cr    Cr6+3 0.402240 0.783890 0.019450 1.072091
Cr2   Cr    Cr6+3 0.382360 0.097900 0.991800 1.033987
Cr3   Cr    Cr6+3 0.715380 0.118170 0.988700 1.037824
Cr4   Cr    Cr6+3 0.936650 0.882420 0.465510 1.062749
Cr5   Cr    Cr6+3 0.605770 0.565620 0.493360 1.059242
Cr6   Cr    Cr6+3 0.921340 0.550490 0.496380 1.012793
H1    H     H_    0.401659 0.221006 0.191068 0.186190
H2    H     H_    0.188604 0.262224 0.330011 0.328284
H3    H     H_    0.858060 0.165773 0.348194 0.253287
H4    H     H_    0.078123 0.403861 0.347958 0.148172
H5    H     H_    0.987638 0.488635 0.291558 0.183086
H6    H     H_    0.031403 0.367610 0.249259 0.147059
H7    H     H_    0.758723 0.114978 0.587529 0.261020
H8    H     H_    0.016789 0.290443 0.576054 0.151504
H9    H     H_    0.038734 0.178892 0.660029 0.155480
H10   H     H_    0.941710 0.276876 0.674085 0.163565
H11   H     H_    0.264959 0.052155 0.637309 0.152385
H12   H     H_    0.062805 0.582125 0.702990 0.165706
H13   H     H_    0.793781 0.193522 0.202015 0.145324
H14   H     H_    0.566214 0.614843 0.849789 0.152005
H15   H     H_    0.549340 0.590732 0.712494 0.148313
H16   H     H_    0.819039 0.084493 0.779429 0.146692
H17   H     H_    0.292938 0.072694 0.774342 0.147504
H18   H     H_    0.032183 0.352081 0.884705 0.343906
N1    N     N_2   0.855912 0.262687 0.340281 -0.491630
N2    N     N_2   0.827762 0.091240 0.621272 -0.501543
O1    O     O_R   0.521780 0.757110 0.108900 -0.499576
O2    O     O_R   0.805020 0.410040 0.421340 -0.488855
O3    O     O_R   0.049240 0.685450 0.403290 -0.509256
O4    O     O_R   0.275160 0.783810 0.101120 -0.474642
O5    O     O_R   0.077520 0.903010 0.551800 -0.488315
O6    O     O_R   0.802980 0.872780 0.546830 -0.470493
O7    O     O_R   0.578090 0.681300 0.569920 -0.530208
O8    O     O_R   0.608530 0.436370 0.586530 -0.497567
O9    O     O_R   0.798770 0.401880 0.597100 -0.529309
O10   O     O_R   0.043450 0.677890 0.566230 -0.516040
O11   O     O_3   0.821250 0.666180 0.485090 -0.264505
O12   O     O_R   0.513330 0.228330 0.898660 -0.504709
O13   O     O_R   0.237900 0.972600 0.090980 -0.499337
O14   O     O_R   0.511190 0.220540 0.061620 -0.504773
O15   O     O_R   0.736920 0.257720 0.063840 -0.470071
O16   O     O_R   0.710450 0.984050 0.081720 -0.525889
O17   O     O_R   0.524090 0.765520 0.933110 -0.505705
O18   O     O_R   0.277300 0.791600 0.938160 -0.460910
O19   O     O_R   0.240210 0.981010 0.915190 -0.521283
O20   O     O_2   0.016617 0.549516 0.925828 -0.483450
O21   O     O_R   0.072949 0.439487 0.839104 -0.716733
O22   O     O_2   0.352283 0.222571 0.412933 -0.510433
O23   O     O_R   0.739230 0.266130 0.888050 -0.480431
O24   O     O_R   0.277031 0.281151 0.295500 -0.704413
O25   O     O_R   0.712580 0.991850 0.918770 -0.511497
O26   O     O_3   0.499990 0.999980 0.999980 -0.310758
O27   O     O_R   0.083770 0.911170 0.376030 -0.476160
O28   O     O_R   0.808770 0.880340 0.383890 -0.511686
O29   O     O_R   0.584340 0.689460 0.394160 -0.497026
O30   O     O_R   0.614320 0.443940 0.423590 -0.465179

loop_
_geom_bond_atom_site_label_1
_geom_bond_atom_site_label_2
_ccdc_geom_bond_type
C20   O27   A    
C28   H1    S    
Cr2   O14   S    
C11   C13   A    
C10   H17   S    
C19   C30   S    
Cr6   O10   S    
C33   N1    S    
C7    C8    A    
Cr1   O1    S    
C33   H6    S    
C23   H13   S    
C12   C23   A    
Cr3   O23   S    
H3    N1    S    
C28   C29   A    
C18   C37   S    
C4    O14   A    
C29   C32   S    
C38   C39   T    
C10   C17   A    
C32   O22   D    
C21   O7    A    
Cr4   O5    S    
Cr5   O7    S    
Cr6   O3    S    
Cr4   O27   S    
C32   O24   S    
C4    O15   A    
C8    C9    A    
C2    C22   S    
C25   O18   A    
C27   O25   A    
H18   O21   S    
C3    H14   S    
C28   C34   A    
Cr2   O13   S    
C31   O20   D    
H2    O24   S    
C13   C14   A    
C35   H8    S    
C18   O29   A    
C22   O9    A    
C16   O16   A    
Cr6   O9    S    
C14   H12   S    
C4    C34   S    
C31   O21   S    
C21   O6    A    
C35   H9    S    
C16   O1    A    
C20   C39   S    
C24   O10   A    
C35   N2    S    
C33   H4    S    
C6    C21   S    
Cr3   O25   S    
C13   C24   S    
Cr5   O8    S    
C26   O23   A    
Cr6   O2    S    
C29   C30   A    
C3    C9    A    
C23   C34   A    
C25   O19   A    
C5    H15   S    
C19   O2    A    
Cr2   O19   S    
C26   O12   A    
H7    N2    S    
C1    C38   S    
Cr2   O12   S    
C18   O28   A    
C20   O3    A    
C22   O8    A    
Cr5   O29   S    
C9    C27   S    
C1    O13   A    
C15   C17   A    
C36   C37   T    
C12   C30   A    
C35   H10   S    
C1    O4    A    
C3    C5    A    
Cr6   O11   S    
C15   C31   S    
C6    C7    A    
C33   H5    S    
Cr4   O11   S    
C12   N1    S    
Cr3   O26   S    
C17   C25   S    
C27   O17   A    
C16   C36   S    
C7    N2    S    
Cr1   O18   S    
C26   C40   S    
C5    C6    A    
Cr3   O15   S    
Cr4   O6    S    
Cr2   O26   S    
Cr4   O28   S    
C10   C11   A    
C2    C40   T    
Cr1   O26   S    
Cr3   O16   S    
C14   C15   A    
Cr5   O11   S    
C11   H11   S    
Cr5   O30   S    
C19   O30   A    
C24   O5    A    
C8    H16   S    
Cr1   O4    S    
Cr1   O17   S    
