data_mof_unit_23356.cif
_audit_creation_date              2013-03-05T16:08:06-0500
_audit_creation_method            fapswitch 2.2
_symmetry_space_group_name_H-M    P1
_symmetry_Int_Tables_number       1
_space_group_crystal_system       triclinic
_cell_length_a                    23.481947
_cell_length_b                    11.558102
_cell_length_c                    10.764105
_cell_angle_alpha                 89.746867
_cell_angle_beta                  90.002193
_cell_angle_gamma                 89.998922
_cell_volume                      2921.42211766

loop_
_atom_site_label
_atom_site_type_symbol
_atom_site_description
_atom_site_fract_x
_atom_site_fract_y
_atom_site_fract_z
_atom_type_partial_charge
O1    O     O_R   0.500000 0.334450 0.602530 -0.616539
O2    O     O_R   0.500000 0.665550 0.397470 -0.616523
O3    O     O_R   0.500000 0.665550 0.602530 -0.601024
O4    O     O_R   0.500000 0.334450 0.397470 -0.601030
C1    C     C_R   0.500132 0.281156 0.500230 0.977939
C2    C     C_R   0.500132 0.718844 0.499770 0.977972
O5    O     O_R   0.416150 0.500000 0.602560 -0.602162
O6    O     O_R   0.583850 0.500000 0.397440 -0.606459
O7    O     O_R   0.583850 0.500000 0.602560 -0.606458
O8    O     O_R   0.416150 0.500000 0.397440 -0.602161
C3    C     C_R   0.389083 0.499993 0.499996 0.961175
C4    C     C_R   0.610921 0.499995 0.500002 0.949253
Zn1   Zn    Zn3+2 0.500000 0.500000 0.636920 1.044827
Zn2   Zn    Zn3+2 0.500000 0.500000 0.363080 1.044862
C5    C     C_R   0.880930 0.578399 0.427137 0.471715
C6    C     C_R   0.119140 0.428476 0.580777 0.488683
C7    C     C_R   0.880939 0.421391 0.572844 0.471747
C8    C     C_R   0.119126 0.571204 0.418965 0.488677
N1    N     N_R   0.852795 0.499901 0.500002 -0.343854
N2    N     N_R   0.147248 0.499847 0.499870 -0.352334
C9    C     C_R   0.940326 0.421702 0.576835 -0.012671
C10   C     C_R   0.059737 0.574914 0.419503 -0.016179
C11   C     C_R   0.940315 0.578050 0.423076 -0.012678
C12   C     C_R   0.059750 0.424772 0.580277 -0.016185
C13   C     C_R   0.970137 0.499866 0.499938 -0.018495
C14   C     C_R   0.029926 0.499849 0.499904 -0.027283
C15   C     C_R   0.970413 0.346046 0.655248 -0.169849
C16   C     C_R   0.029643 0.651291 0.341911 -0.162965
C17   C     C_R   0.970390 0.653686 0.344626 -0.169873
C18   C     C_R   0.029668 0.348407 0.657897 -0.162963
O9    O     O_2   0.851316 0.656537 0.359556 -0.574599
O10   O     O_2   0.148748 0.362014 0.661432 -0.567447
O11   O     O_2   0.851334 0.343273 0.640459 -0.574621
O12   O     O_2   0.148721 0.637662 0.338293 -0.567461
H1    H     H_    0.948310 0.285622 0.715468 0.190187
H2    H     H_    0.051740 0.710025 0.279783 0.190554
H3    H     H_    0.948277 0.714124 0.284432 0.190189
H4    H     H_    0.051775 0.289663 0.720003 0.190548
C19   C     C_R   0.237250 0.419179 0.425097 0.054356
C20   C     C_R   0.762738 0.427259 0.416219 0.049166
C21   C     C_R   0.237210 0.580651 0.574724 0.054302
C22   C     C_R   0.762754 0.572584 0.583816 0.049183
C23   C     C_R   0.297218 0.420384 0.424323 -0.075994
C24   C     C_R   0.702809 0.424417 0.419665 -0.080071
C25   C     C_R   0.297180 0.579506 0.575585 -0.076021
C26   C     C_R   0.702825 0.575483 0.580359 -0.080066
C27   C     C_R   0.326777 0.499956 0.499976 -0.232732
C28   C     C_R   0.673240 0.499966 0.500008 -0.238673
C29   C     C_R   0.207973 0.499891 0.499899 0.272479
C30   C     C_R   0.792042 0.499910 0.500018 0.274441
C31   C     C_1   0.500198 0.161060 0.500576 -0.117107
C32   C     C_1   0.500198 0.838940 0.499424 -0.117185
C33   C     C_1   0.500212 0.059146 0.500292 0.029214
C34   C     C_1   0.500212 0.940853 0.499708 0.029200
N3    N     N_1   0.500000 0.500000 0.180630 -0.071460
N4    N     N_1   0.500000 0.500000 0.819370 -0.071480
C35   C     C_1   0.500007 0.499996 0.069722 0.086431
C36   C     C_1   0.500007 0.500004 0.930278 0.086376
C37   C     C_3   0.204140 0.330769 0.348542 -0.389320
C38   C     C_3   0.206169 0.209783 0.408155 -0.347808
C39   C     C_3   0.170954 0.123169 0.334099 -0.838691
H5    H     H_    0.125593 0.150369 0.331345 0.261185
H6    H     H_    0.187498 0.116497 0.237714 0.277413
H7    H     H_    0.173576 0.036576 0.378877 0.256996
H8    H     H_    0.250670 0.177864 0.413147 0.245299
H9    H     H_    0.189157 0.213406 0.504231 0.266522
H10   H     H_    0.158886 0.356134 0.337345 0.206314
H11   H     H_    0.220972 0.327759 0.252354 0.243816
C40   C     C_3   0.795805 0.350395 0.326571 -0.376203
C41   C     C_3   0.805734 0.411612 0.201387 -0.312766
C42   C     C_3   0.829668 0.328569 0.104781 -0.835891
H12   H     H_    0.870718 0.291572 0.137416 0.257972
H13   H     H_    0.799009 0.257316 0.087153 0.282224
H14   H     H_    0.837191 0.375864 0.016234 0.255827
H15   H     H_    0.765416 0.449149 0.165498 0.275755
H16   H     H_    0.836441 0.483470 0.213245 0.243225
H17   H     H_    0.837559 0.324574 0.366046 0.203751
H18   H     H_    0.773104 0.267272 0.312119 0.219908
C43   C     C_3   0.204054 0.669082 0.651153 -0.389278
C44   C     C_3   0.206103 0.790042 0.591480 -0.347727
C45   C     C_3   0.170763 0.876641 0.665271 -0.838678
H19   H     H_    0.125408 0.849385 0.667747 0.261177
H20   H     H_    0.187180 0.883374 0.761757 0.277388
H21   H     H_    0.173415 0.963219 0.620467 0.256985
H22   H     H_    0.250597 0.822029 0.586734 0.245211
H23   H     H_    0.189210 0.786344 0.495304 0.266553
H24   H     H_    0.158796 0.643709 0.662241 0.206272
H25   H     H_    0.220833 0.672138 0.747384 0.243842
C46   C     C_3   0.795836 0.649420 0.673465 -0.376190
C47   C     C_3   0.805749 0.588200 0.798656 -0.312818
C48   C     C_3   0.829719 0.671219 0.895247 -0.835926
H26   H     H_    0.870792 0.708104 0.862626 0.257968
H27   H     H_    0.799100 0.742551 0.912825 0.282216
H28   H     H_    0.837207 0.623935 0.983819 0.255837
H29   H     H_    0.765419 0.550735 0.834553 0.275765
H30   H     H_    0.836428 0.516290 0.786806 0.243270
H31   H     H_    0.837597 0.675194 0.634000 0.203761
H32   H     H_    0.773153 0.732566 0.687906 0.219891
C49   C     C_2   0.329476 0.335705 0.348309 0.923934
O13   O     O_2   0.325571 0.337442 0.235061 -0.605663
O14   O     O_R   0.365309 0.255844 0.406947 -0.827379
H33   H     H_    0.385301 0.203201 0.345758 0.344974
C50   C     C_2   0.670824 0.338160 0.344765 0.930380
O15   O     O_2   0.640378 0.267224 0.397022 -0.635758
O16   O     O_R   0.674932 0.338956 0.215285 -0.806078
H34   H     H_    0.650999 0.276318 0.175323 0.349626
C51   C     C_2   0.329401 0.664244 0.651602 0.923923
O17   O     O_2   0.325407 0.662664 0.764834 -0.605704
O18   O     O_R   0.365296 0.744002 0.592990 -0.827355
H35   H     H_    0.385255 0.796696 0.654174 0.344995
C52   C     C_2   0.670857 0.661768 0.655253 0.930364
O19   O     O_2   0.640430 0.732741 0.602990 -0.635730
O20   O     O_R   0.674956 0.660955 0.784735 -0.806080
H36   H     H_    0.651035 0.723612 0.824693 0.349632

loop_
_geom_bond_atom_site_label_1
_geom_bond_atom_site_label_2
_geom_bond_distance
_ccdc_geom_bond_type
O14   H33   1.013881 S    
C40   H17   1.108952 S    
C52   O19   1.223016 D    
C4    C28   1.463355 S    
O3    C2    1.263688 A    
C43   H24   1.108772 S    
C45   H19   1.110936 S    
C35   C36   1.500997 S    
C47   H29   1.110065 S    
C33   C34   1.367286 S    
C5    N1    1.366964 A    
C44   H22   1.109398 S    
O1    C1    1.264120 A    
C11   C17   1.403421 A    
C16   C17   1.391970 A    
C23   C49   1.486030 S    
C40   C41   1.536990 S    
C18   H4    1.083215 S    
C22   C26   1.408132 A    
C39   H6    1.110856 S    
O7    Zn1   2.003411 S    
C44   H23   1.109630 S    
C37   H10   1.108775 S    
C3    C27   1.463059 S    
C51   O17   1.222506 D    
C41   C42   1.525548 S    
O3    Zn1   1.947316 S    
C6    N2    1.366853 A    
Zn1   N4    1.963910 S    
C5    C11   1.395164 A    
Zn2   N3    1.963911 S    
C9    C15   1.403425 A    
C38   H9    1.109622 S    
C37   C38   1.536732 S    
C6    C12   1.395247 A    
C10   C16   1.403451 A    
C26   C52   1.488321 S    
C15   C18   1.391977 A    
C51   O18   1.397589 S    
C40   H18   1.110266 S    
O2    C2    1.264121 A    
C7    O11   1.349998 S    
C21   C29   1.413491 A    
C43   H25   1.108939 S    
C45   H20   1.110854 S    
C24   C50   1.488329 S    
C32   C34   1.177941 T    
C25   C27   1.413292 A    
C26   C28   1.413923 A    
C20   C40   1.526744 S    
C52   O20   1.397068 S    
O8    Zn2   2.003414 S    
C48   H26   1.110862 S    
C42   H13   1.110816 S    
O4    C1    1.263688 A    
C19   C23   1.408259 A    
C15   H1    1.083214 S    
C13   C14   1.403960 A    
C7    C9    1.395176 A    
C46   H31   1.108952 S    
C38   C39   1.525934 S    
C31   C33   1.177941 T    
C39   H7    1.110653 S    
O5    C3    1.273877 A    
N2    C29   1.425962 S    
C37   H11   1.108960 S    
C48   H27   1.110790 S    
C49   O13   1.222534 D    
C20   C24   1.408129 A    
O6    C4    1.273907 A    
C19   C37   1.528107 S    
C50   O16   1.397070 S    
C47   H30   1.107691 S    
C8    O12   1.349517 S    
C22   C30   1.413829 A    
C19   C29   1.413448 A    
C38   H8    1.109403 S    
N3    C35   1.193822 T    
C41   H16   1.107689 S    
O1    Zn1   1.950529 S    
C41   H15   1.110076 S    
C45   H21   1.110657 S    
O20   H36   1.013772 S    
C9    C13   1.408843 A    
O6    Zn2   2.003383 S    
C49   O14   1.397560 S    
C8    C10   1.395241 A    
C12   C14   1.408971 A    
C44   C45   1.525922 S    
C21   C43   1.528108 S    
C42   H14   1.110809 S    
C5    O9    1.350009 S    
C6    O10   1.349530 S    
O16   H34   1.013777 S    
C46   H32   1.110269 S    
C22   C46   1.526735 S    
C42   H12   1.110893 S    
O18   H35   1.013836 S    
C48   H28   1.110828 S    
N1    C30   1.426603 S    
C47   C48   1.525554 S    
C20   C30   1.413828 A    
C7    N1    1.366969 A    
N4    C36   1.193822 T    
C8    N2    1.366853 A    
C11   C13   1.408844 A    
O4    Zn2   1.947317 S    
C39   H5    1.110936 S    
O2    Zn2   1.950527 S    
O7    C4    1.273908 A    
C12   C18   1.403450 A    
O8    C3    1.273842 A    
C43   C44   1.536748 S    
C25   C51   1.486039 S    
O5    Zn1   2.003386 S    
C16   H2    1.083210 S    
C10   C14   1.408965 A    
C17   H3    1.083219 S    
C50   O15   1.223006 D    
C21   C25   1.408304 A    
C1    C31   1.388077 S    
C2    C32   1.388077 S    
C46   C47   1.536988 S    
C23   C27   1.413286 A    
C24   C28   1.413931 A    
