data_mof_unit_29139.cif
_audit_creation_date              2012-12-11T15:14:41-0500
_audit_creation_method            fapswitch 2.2
_symmetry_space_group_name_H-M    P1
_symmetry_Int_Tables_number       1
_space_group_crystal_system       triclinic
_cell_length_a                    22.274826
_cell_length_b                    7.231714
_cell_length_c                    19.240151
_cell_angle_alpha                 90.004025
_cell_angle_beta                  99.086645
_cell_angle_gamma                 90.004642
_cell_volume                      3060.40873921

loop_
_atom_site_label
_atom_site_type_symbol
_atom_type_description
_atom_site_fract_x
_atom_site_fract_y
_atom_site_fract_z
_atom_type_partial_charge
O1    O     O_R   0.448470 0.506130 0.415700 -0.533062
O2    O     O_R   0.551530 0.006130 0.584300 -0.533050
O3    O     O_R   0.436320 0.174490 0.555800 -0.533803
O4    O     O_R   0.563680 0.674490 0.444200 -0.533824
C1    C     C_R   0.421166 0.344392 0.575197 0.705360
C2    C     C_R   0.578833 0.844394 0.424803 0.705346
O5    O     O_R   0.441350 0.176340 0.414480 -0.533702
O6    O     O_R   0.558650 0.676340 0.585520 -0.533712
O7    O     O_R   0.556600 0.007100 0.441970 -0.532641
O8    O     O_R   0.443400 0.507100 0.558030 -0.532661
C3    C     C_R   0.427184 0.344674 0.389046 0.673636
C4    C     C_R   0.572813 0.844698 0.610955 0.673630
O9    O     O_3   0.537810 0.339550 0.509190 -0.371902
O10   O     O_3   0.462190 0.839550 0.490810 -0.371899
V1    V     V_3+5 0.492990 0.064280 0.498300 1.429111
V2    V     V_3+5 0.507010 0.564280 0.501700 1.429020
C5    C     C_R   0.869442 0.969700 0.694191 0.359324
C6    C     C_R   0.130629 0.471084 0.305774 0.359289
H1    H     H_    0.955679 0.000675 0.760634 0.130471
H2    H     H_    0.044403 0.502167 0.239320 0.130557
H3    H     H_    0.781863 0.990141 0.578553 0.135132
H4    H     H_    0.218241 0.491899 0.421364 0.135060
C7    C     C_R   0.885038 0.941938 0.821470 -0.111541
C8    C     C_R   0.114968 0.442091 0.178530 -0.111598
C9    C     C_R   0.590718 0.811170 0.739755 -0.160524
C10   C     C_R   0.409232 0.310387 0.260273 -0.160487
C11   C     C_R   0.627899 0.805598 0.804893 -0.126639
C12   C     C_R   0.372033 0.304508 0.195151 -0.126688
C13   C     C_R   0.690203 0.837109 0.810549 -0.158023
C14   C     C_R   0.309746 0.336312 0.189487 -0.158010
C15   C     C_R   0.717373 0.876531 0.750467 0.101471
C16   C     C_R   0.282614 0.376354 0.249543 0.101497
C17   C     C_R   0.678556 0.884224 0.683643 0.070548
C18   C     C_R   0.321453 0.384413 0.316346 0.070555
C19   C     C_R   0.781649 0.907240 0.754553 0.040366
C20   C     C_R   0.218353 0.407361 0.245449 0.040335
C21   C     C_R   0.805795 0.942033 0.691352 0.036546
C22   C     C_R   0.194251 0.442944 0.308621 0.036626
C23   C     C_R   0.765940 0.954234 0.627052 -0.190289
C24   C     C_R   0.234129 0.455457 0.372897 -0.190235
C25   C     C_R   0.703909 0.924547 0.623236 -0.188704
C26   C     C_R   0.296140 0.425392 0.376725 -0.188773
C27   C     C_R   0.822812 0.906416 0.819310 -0.222572
C28   C     C_R   0.177166 0.406093 0.180711 -0.222570
C29   C     C_R   0.907538 0.974874 0.759088 -0.159338
C30   C     C_R   0.092519 0.475923 0.240882 -0.159332
C31   C     C_R   0.614986 0.850537 0.678732 -0.081129
C32   C     C_R   0.385005 0.350401 0.321269 -0.081195
H5    H     H_    0.808014 0.882610 0.869205 0.105264
H6    H     H_    0.191927 0.381615 0.130838 0.105316
H7    H     H_    0.542549 0.783751 0.736847 0.105011
H8    H     H_    0.457383 0.282688 0.263191 0.105108
H9    H     H_    0.715761 0.828158 0.862804 0.106100
H10   H     H_    0.284172 0.327112 0.137246 0.106068
H11   H     H_    0.608278 0.774949 0.851615 0.116565
H12   H     H_    0.391623 0.273372 0.148450 0.116550
H13   H     H_    0.675739 0.934406 0.572072 0.110862
H14   H     H_    0.324327 0.435512 0.427871 0.110994
C33   C     C_3   0.776531 0.826781 0.312343 -0.131520
C34   C     C_3   0.222740 0.337134 0.686303 -0.130923
C35   C     C_3   0.795173 0.009794 0.279507 -0.132370
C36   C     C_3   0.206696 0.518279 0.722460 -0.132614
H15   H     H_    0.832439 0.102935 0.303309 0.119081
H16   H     H_    0.170979 0.618420 0.700289 0.118187
H17   H     H_    0.798067 0.768514 0.363639 0.117407
H18   H     H_    0.200606 0.287412 0.633888 0.117462
H19   H     H_    0.708177 0.203090 0.269656 0.112079
H20   H     H_    0.296565 0.699648 0.736397 0.111437
C37   C     C_1   0.875185 0.940190 0.121179 -0.179445
C38   C     C_1   0.124814 0.440199 0.878819 -0.179428
C39   C     C_1   0.624936 0.854197 0.379247 -0.181221
C40   C     C_1   0.375063 0.354188 0.620753 -0.181183
C41   C     C_3   0.773145 0.729697 0.239948 -0.135856
C42   C     C_3   0.224256 0.231584 0.756729 -0.134966
C43   C     C_3   0.791179 0.912529 0.207730 0.165563
C44   C     C_3   0.208820 0.412546 0.792267 0.165358
C45   C     C_3   0.705219 0.784663 0.221281 -0.141315
C46   C     C_3   0.292909 0.276181 0.776748 -0.141262
C47   C     C_3   0.709207 0.881923 0.293053 0.164867
C48   C     C_3   0.290792 0.381908 0.706946 0.164633
C49   C     C_3   0.723854 0.967670 0.188453 -0.141504
C50   C     C_3   0.276872 0.457320 0.812896 -0.141368
C51   C     C_3   0.727243 0.064755 0.260842 -0.140370
C52   C     C_3   0.275352 0.562870 0.742477 -0.140161
C53   C     C_1   0.837208 0.928821 0.160002 -0.059575
C54   C     C_1   0.162791 0.428837 0.839995 -0.059444
C55   C     C_1   0.663067 0.865596 0.340629 -0.062683
C56   C     C_1   0.336931 0.365581 0.659370 -0.062533
H21   H     H_    0.702306 0.025969 0.137169 0.108299
H22   H     H_    0.299020 0.507073 0.865299 0.108259
H23   H     H_    0.667953 0.691520 0.197481 0.108016
H24   H     H_    0.328626 0.176036 0.798916 0.107819
H25   H     H_    0.792210 0.591358 0.231140 0.113728
H26   H     H_    0.203044 0.094802 0.762803 0.113787
O11   O     O_R   0.056650 0.288730 0.942060 -0.533113
O12   O     O_R   0.943350 0.788730 0.057940 -0.533103
O13   O     O_R   0.058660 0.616870 0.085540 -0.535245
O14   O     O_R   0.941340 0.116870 0.914460 -0.535233
C57   C     C_R   0.072817 0.448749 0.111042 0.701882
C58   C     C_R   0.927184 0.948724 0.888958 0.701849
O15   O     O_R   0.063700 0.618520 0.944220 -0.535470
O16   O     O_R   0.936300 0.118520 0.055780 -0.535483
O17   O     O_R   0.948460 0.787610 0.915680 -0.532102
O18   O     O_R   0.051540 0.287610 0.084320 -0.532089
C59   C     C_R   0.078900 0.450010 0.924637 0.713936
C60   C     C_R   0.921100 0.950008 0.075362 0.713929
O19   O     O_3   0.962230 0.453430 0.990860 -0.374115
O20   O     O_3   0.037770 0.953430 0.009140 -0.374109
V3    V     V_3+5 0.007010 0.728750 0.001700 1.427606
V4    V     V_3+5 0.992990 0.228750 0.998300 1.427568
O21   O     O_3   0.896437 0.993691 0.635058 -0.641691
H27   H     H_    0.875725 0.912234 0.597407 0.283349
O22   O     O_3   0.103676 0.495903 0.364893 -0.641694
H28   H     H_    0.124312 0.414549 0.402618 0.283270

loop_
_geom_bond_atom_site_label_1
_geom_bond_atom_site_label_2
_ccdc_geom_bond_type
C47   C51   S    
H19   C51   S    
O14   V4    S    
C11   C13   A    
C8    C57   S    
C42   H26   S    
O21   H27   S    
O1    C3    A    
C41   H25   S    
C48   C52   S    
O2    C4    A    
C26   H14   S    
C2    O7    A    
C47   C55   S    
C12   H12   S    
C37   C53   T    
C23   C25   A    
C35   C43   S    
O5    C3    A    
C14   H10   S    
C42   C44   S    
C7    C29   A    
C16   C20   A    
C19   C21   A    
C5    C29   A    
C1    C40   S    
C46   C48   S    
O15   V3    S    
C5    O21   S    
C7    C27   A    
O20   V3    S    
C34   C36   S    
C35   H15   S    
C36   H16   S    
O11   C59   A    
C40   C56   T    
C36   C52   S    
C43   C53   S    
C34   C48   S    
C18   C26   A    
C15   C17   A    
O16   C60   A    
C14   C16   A    
C19   C27   A    
C9    C31   A    
C10   C32   A    
C49   H21   S    
C24   C26   A    
C57   O18   A    
C34   H18   S    
O6    V2    S    
C13   C15   A    
C41   C43   S    
C36   C44   S    
C3    C32   S    
C4    C31   S    
C6    C30   A    
C6    O22   S    
C49   C51   S    
C45   C47   S    
O15   C59   A    
C2    C39   S    
C33   C35   S    
H20   C52   S    
O4    C2    A    
C35   C51   S    
C44   C50   S    
C43   C49   S    
O5    V1    S    
C46   H24   S    
C38   C59   S    
C58   O17   A    
C16   C18   A    
O4    V2    S    
C9    H7    S    
C10   H8    S    
O13   V3    S    
C46   C50   S    
H3    C23   S    
C45   C49   S    
O6    C4    A    
H4    C24   S    
O1    V2    S    
C5    C21   A    
O2    V1    S    
C39   C55   T    
C50   C52   S    
C17   C31   A    
O19   V4    S    
C15   C19   A    
C20   C28   A    
C18   C32   A    
C33   C47   S    
C20   C22   A    
C38   C54   T    
C44   C54   S    
O3    V1    S    
O18   V4    S    
O22   H28   S    
C28   H6    S    
O12   C60   A    
C45   H23   S    
O13   C57   A    
C27   H5    S    
O3    C1    A    
O11   V4    S    
C37   C60   S    
H1    C29   S    
C9    C11   A    
O12   V3    S    
C10   C12   A    
C50   H22   S    
O17   V3    S    
C8    C30   A    
C12   C14   A    
C6    C22   A    
C17   C25   A    
C1    O8    A    
C21   C23   A    
O8    V2    S    
C33   H17   S    
C22   C24   A    
C13   H9    S    
C8    C28   A    
C34   C42   S    
C7    C58   S    
C11   H11   S    
O7    V1    S    
C33   C41   S    
O14   C58   A    
O16   V4    S    
C25   H13   S    
C48   C56   S    
C42   C46   S    
O9    V2    S    
C41   C45   S    
O10   V1    S    
H2    C30   S    
