data_mof_unit_41427.cif
_audit_creation_date              2012-10-26T20:13:55-0400
_audit_creation_method            fapswitch 2.2
_symmetry_space_group_name_H-M    P1
_symmetry_Int_Tables_number       1
_space_group_crystal_system       triclinic
_cell_length_a                    8.733735
_cell_length_b                    10.863558
_cell_length_c                    9.549377
_cell_angle_alpha                 89.987153
_cell_angle_beta                  97.605928
_cell_angle_gamma                 90.362044
_cell_volume                      898.049940294

loop_
_atom_site_label
_atom_site_type_symbol
_atom_type_description
_atom_site_fract_x
_atom_site_fract_y
_atom_site_fract_z
_atom_type_partial_charge
C1    C     C_R   0.501488 0.262729 0.500101 0.548851
C2    C     C_R   0.571944 0.592411 0.934759 0.157616
C3    C     C_3   0.739018 0.625713 0.948820 -0.277399
C4    C     C_R   0.204080 0.498642 0.464159 0.551324
C5    C     C_3   0.738424 0.626659 0.107473 -0.278153
C6    C     C_R   0.500267 0.737288 0.499855 0.553203
C7    C     C_R   0.796084 0.499797 0.536090 0.548359
C8    C     C_2   0.038687 0.494944 0.444895 -0.154711
C9    C     C_2   0.961841 0.500834 0.556349 -0.159941
C10   C     C_R   0.503151 0.061992 0.621766 0.039925
C11   C     C_R   0.505158 0.130150 0.499071 -0.000836
C12   C     C_R   0.509234 0.935555 0.371780 -0.165246
C13   C     C_R   0.509946 0.064685 0.371970 -0.168772
C14   C     C_3   0.636448 0.126200 0.867802 -0.264831
C15   C     C_3   0.792586 0.095638 0.819757 -0.416377
C16   C     C_R   0.502645 0.869922 0.498524 0.003649
C17   C     C_R   0.499744 0.937828 0.621059 0.005563
C18   C     C_3   0.487916 0.927476 0.774943 -0.242367
C19   C     C_3   0.493474 0.069637 0.776877 -0.108527
C20   C     C_R   0.571433 0.592762 0.082054 0.156462
C21   C     C_R   0.415874 0.416132 0.064272 -0.018095
C22   C     C_R   0.415262 0.416520 0.915331 -0.029468
Cu1   Cu    Cu3+1 0.499990 0.499980 0.640670 0.927060
Cu2   Cu    Cu3+1 0.500010 0.500020 0.359330 0.933065
H1    H     H_    0.980181 0.486313 0.338131 0.114103
H2    H     H_    0.374403 0.889050 0.794463 0.122437
H3    H     H_    0.589263 0.881622 0.834614 0.134196
H4    H     H_    0.382900 0.110753 0.799151 0.111635
H5    H     H_    0.350399 0.346595 0.112102 0.112381
H6    H     H_    0.811566 0.994824 0.818479 0.143777
H7    H     H_    0.799692 0.133910 0.712968 0.161364
H8    H     H_    0.886687 0.137880 0.894267 0.125191
H9    H     H_    0.624497 0.227783 0.867543 0.173303
H10   H     H_    0.637185 0.095056 0.978747 0.129828
H11   H     H_    0.349116 0.347421 0.851577 0.108156
H12   H     H_    0.811374 0.551068 0.913256 0.152726
H13   H     H_    0.759527 0.718032 0.904798 0.114110
H14   H     H_    0.810138 0.552415 0.160712 0.147179
H15   H     H_    0.757839 0.719623 0.155414 0.122461
H16   H     H_    0.020912 0.507579 0.663729 0.123391
H17   H     H_    0.513293 0.112460 0.272831 0.129290
H18   H     H_    0.512783 0.887905 0.272639 0.133118
N1    N     N_R   0.500980 0.500930 0.148050 -0.230493
N2    N     N_R   0.500990 0.500890 0.852140 -0.234409
O1    O     O_R   0.500000 0.319640 0.618810 -0.509537
O2    O     O_R   0.500020 0.319680 0.381230 -0.513990
O3    O     O_R   0.274830 0.499980 0.591380 -0.500949
O4    O     O_R   0.274850 0.500020 0.353800 -0.499840
O5    O     O_R   0.499980 0.680320 0.618770 -0.497978
O6    O     O_R   0.500000 0.680360 0.381190 -0.505251
O7    O     O_R   0.725150 0.499980 0.646200 -0.506029
O8    O     O_R   0.725170 0.500020 0.408620 -0.500523

loop_
_geom_bond_atom_site_label_1
_geom_bond_atom_site_label_2
_ccdc_geom_bond_type
C14   H10   S    
Cu1   Cu2   S    
Cu2   O8    S    
C22   H11   S    
C6    C16   S    
Cu1   O7    S    
C18   H2    S    
C10   C19   S    
C4    C8    S    
Cu2   O2    S    
C14   H9    S    
C13   H17   S    
C2    C3    S    
C7    O7    A    
C15   H8    S    
C5    C20   S    
C21   N1    A    
C21   C22   A    
C6    O6    A    
C15   H7    S    
C8    H1    S    
C11   C13   A    
C1    O1    A    
C3    H12   S    
Cu1   O1    S    
C7    O8    A    
C17   C18   S    
C5    H15   S    
C6    O5    A    
Cu2   O6    S    
C1    O2    A    
Cu1   O5    S    
Cu1   O3    S    
C10   C11   A    
C18   H3    S    
C10   C17   A    
C2    C20   A    
C19   H4    S    
Cu2   O4    S    
C20   N1    A    
C12   C13   A    
C3    H13   S    
C15   H6    S    
C18   C19   S    
C4    O4    A    
C7    C9    S    
Cu2   N1    S    
C14   C15   S    
C16   C17   A    
C12   H18   S    
C5    H14   S    
C21   H5    S    
C14   C19   S    
C9    H16   S    
C22   N2    A    
Cu1   N2    S    
C12   C16   A    
C2    N2    A    
C8    C9    D    
C3    C5    S    
C4    O3    A    
C1    C11   S    
