data_mof_unit_27897.cif
_audit_creation_date              2013-03-05T16:08:45-0500
_audit_creation_method            fapswitch 2.2
_symmetry_space_group_name_H-M    P1
_symmetry_Int_Tables_number       1
_space_group_crystal_system       triclinic
_cell_length_a                    27.688085
_cell_length_b                    11.627017
_cell_length_c                    10.760854
_cell_angle_alpha                 89.965656
_cell_angle_beta                  89.962085
_cell_angle_gamma                 88.99577
_cell_volume                      3463.7065021

loop_
_atom_site_label
_atom_site_type_symbol
_atom_site_description
_atom_site_fract_x
_atom_site_fract_y
_atom_site_fract_z
_atom_type_partial_charge
O1    O     O_R   0.500000 0.334450 0.602530 -0.604945
O2    O     O_R   0.500000 0.665550 0.397470 -0.605477
O3    O     O_R   0.500000 0.665550 0.602530 -0.604991
O4    O     O_R   0.500000 0.334450 0.397470 -0.605478
C1    C     C_R   0.500058 0.281053 0.500031 0.915284
C2    C     C_R   0.499941 0.718947 0.499970 0.915185
O5    O     O_R   0.428750 0.500000 0.602520 -0.614808
O6    O     O_R   0.571250 0.500000 0.397480 -0.613724
O7    O     O_R   0.571250 0.500000 0.602520 -0.614607
O8    O     O_R   0.428750 0.500000 0.397480 -0.613682
C3    C     C_R   0.405607 0.502260 0.500174 0.942055
C4    C     C_R   0.594396 0.497804 0.500084 0.942455
Zn1   Zn    Zn3+2 0.500000 0.500000 0.636920 1.026118
Zn2   Zn    Zn3+2 0.500000 0.500000 0.363080 1.024501
C5    C     C_R   0.180798 0.426391 0.540041 0.671303
C6    C     C_R   0.819142 0.576177 0.536254 0.667515
C7    C     C_R   0.174194 0.627960 0.499356 0.658775
C8    C     C_R   0.825966 0.374120 0.499049 0.654992
O9    O     O_2   0.209949 0.332645 0.546383 -0.426151
O10   O     O_2   0.789902 0.669863 0.540554 -0.426401
O11   O     O_2   0.197529 0.725152 0.471549 -0.402511
O12   O     O_2   0.802689 0.276295 0.473872 -0.404907
N1    N     N_R   0.200892 0.529624 0.514547 -0.348795
N2    N     N_R   0.799163 0.472471 0.512736 -0.349146
C9    C     C_R   0.279128 0.549486 0.617539 0.437789
C10   C     C_R   0.721059 0.453008 0.616858 0.436477
C11   C     C_R   0.276082 0.511367 0.393773 0.440727
C12   C     C_R   0.723830 0.488824 0.392575 0.440714
C13   C     C_R   0.329176 0.538179 0.613575 -0.238676
C14   C     C_R   0.670986 0.463754 0.613265 -0.237683
C15   C     C_R   0.326381 0.501561 0.391885 -0.248014
C16   C     C_R   0.673520 0.498109 0.391083 -0.247018
C17   C     C_R   0.252369 0.534128 0.507544 0.017681
C18   C     C_R   0.747686 0.467489 0.506381 0.018616
C19   C     C_R   0.101678 0.518277 0.534554 -0.136714
C20   C     C_R   0.898356 0.484669 0.532610 -0.134352
C21   C     C_R   0.130626 0.417866 0.555174 -0.139331
C22   C     C_R   0.869285 0.585153 0.551570 -0.118266
C23   C     C_R   0.123383 0.626363 0.510956 -0.172031
C24   C     C_R   0.876790 0.376247 0.509985 -0.175524
C25   C     C_R   0.108044 0.313677 0.589709 0.435957
C26   C     C_R   0.891708 0.689845 0.584781 0.382758
C27   C     C_R   0.093209 0.726572 0.499355 0.444439
C28   C     C_R   0.907104 0.276201 0.498985 0.439775
C29   C     C_R   0.352931 0.513020 0.501678 -0.193371
C30   C     C_R   0.647088 0.487503 0.501286 -0.193629
H1    H     H_    0.344877 0.483209 0.305287 0.215029
H2    H     H_    0.654922 0.515327 0.304414 0.215262
H3    H     H_    0.349738 0.548834 0.698166 0.227625
H4    H     H_    0.650522 0.453831 0.698210 0.227698
C31   C     C_R   0.978583 0.392853 0.532042 0.008314
C32   C     C_R   0.021480 0.610335 0.531282 0.008041
C33   C     C_R   0.970873 0.601594 0.546196 0.038767
C34   C     C_R   0.029091 0.401733 0.548252 0.017065
C35   C     C_R   0.949263 0.492920 0.536956 0.104721
C36   C     C_R   0.050756 0.510259 0.538104 0.103712
C37   C     C_R   0.956956 0.286794 0.509637 -0.243190
C38   C     C_R   0.043293 0.716219 0.508694 -0.252638
C39   C     C_R   0.941657 0.697577 0.575630 -0.304877
C40   C     C_R   0.058123 0.306039 0.579883 -0.267898
H5    H     H_    0.979107 0.210877 0.495075 0.212514
H6    H     H_    0.021307 0.792209 0.493029 0.214858
H7    H     H_    0.957699 0.778436 0.599595 0.202010
H8    H     H_    0.041901 0.225623 0.604994 0.219248
C41   C     C_1   0.500040 0.160914 0.500078 -0.145797
C42   C     C_1   0.499958 0.839086 0.499926 -0.145762
C43   C     C_1   0.500015 0.059157 0.500043 0.044413
C44   C     C_1   0.499982 0.940843 0.499965 0.044415
N3    N     N_1   0.500000 0.500000 0.180630 -0.073663
N4    N     N_1   0.500000 0.500000 0.819370 -0.072957
C45   C     C_1   0.500000 0.500000 0.069712 0.088461
C46   C     C_1   0.500000 0.500000 0.930287 0.091534
S1    S     S_3+6 0.243418 0.491969 0.254055 0.087633
O13   O     O_2   0.277197 0.469857 0.146977 -0.226573
O14   O     O_2   0.210758 0.390773 0.267793 -0.260785
O15   O     O_3   0.210104 0.611173 0.223760 -0.487869
H9    H     H_    0.176259 0.585416 0.218331 0.379027
S2    S     S_3+6 0.756313 0.506796 0.252208 0.087849
O16   O     O_2   0.722394 0.528517 0.145431 -0.226958
O17   O     O_2   0.789232 0.607659 0.264307 -0.261464
O18   O     O_3   0.789301 0.386921 0.222690 -0.484960
H10   H     H_    0.823300 0.411823 0.218808 0.378733
S3    S     S_3+6 0.250663 0.579713 0.761694 0.093562
O19   O     O_2   0.218638 0.684726 0.748732 -0.245011
O20   O     O_2   0.220509 0.479366 0.799549 -0.215533
O21   O     O_3   0.292141 0.603483 0.872489 -0.518096
H11   H     H_    0.273399 0.631783 0.945100 0.427945
S4    S     S_3+6 0.749703 0.424710 0.761147 0.096103
O22   O     O_2   0.782169 0.320351 0.749233 -0.237913
O23   O     O_2   0.779430 0.526139 0.797641 -0.217931
O24   O     O_3   0.708368 0.400871 0.872448 -0.516161
H12   H     H_    0.727160 0.371637 0.944493 0.429487
S5    S     S_3+6 0.138964 0.193219 0.656051 0.124620
O25   O     O_2   0.166413 0.130014 0.555979 -0.164783
O26   O     O_2   0.173564 0.233537 0.753789 -0.186576
O27   O     O_3   0.099652 0.103024 0.722414 -0.521388
H13   H     H_    0.119895 0.047667 0.770271 0.419131
S6    S     S_3+6 0.860470 0.811231 0.648172 0.137828
O28   O     O_2   0.833604 0.872800 0.545960 -0.136791
O29   O     O_2   0.825060 0.773408 0.745349 -0.181962
O30   O     O_3   0.899124 0.903246 0.713861 -0.478999
H14   H     H_    0.910997 0.863489 0.789642 0.366837
S7    S     S_3+6 0.114512 0.868874 0.480062 0.126646
O31   O     O_2   0.149431 0.894709 0.582750 -0.163828
O32   O     O_2   0.139417 0.878790 0.356382 -0.202204
O33   O     O_3   0.068651 0.965807 0.485688 -0.536855
H15   H     H_    0.082013 0.037690 0.451518 0.403270
S8    S     S_3+6 0.886068 0.133872 0.478334 0.144910
O34   O     O_2   0.851850 0.106190 0.582158 -0.112662
O35   O     O_2   0.860448 0.125286 0.355591 -0.208041
O36   O     O_3   0.932176 0.037484 0.480517 -0.532080
H16   H     H_    0.918811 0.965984 0.445557 0.402055

loop_
_geom_bond_atom_site_label_1
_geom_bond_atom_site_label_2
_geom_bond_distance
_ccdc_geom_bond_type
C38   H6    1.077381 S    
C42   C44   1.183144 T    
S5    O25   1.502531 D    
S1    O14   1.503635 D    
S1    O13   1.503007 D    
O36   H16   0.990410 S    
O3    C2    1.265936 A    
O18   H10   0.990566 S    
C33   C39   1.403067 A    
C13   H3    1.082296 S    
C11   C17   1.411804 A    
O5    C3    1.274573 A    
O30   H14   0.990614 S    
O1    C1    1.266015 A    
C19   C21   1.421905 A    
C22   C26   1.422033 A    
C26   S6    1.778465 S    
S2    O17   1.503594 D    
Zn1   N4    1.963317 S    
S8    O34   1.502771 D    
C7    C23   1.412760 A    
N3    C45   1.193567 T    
O7    Zn1   2.006965 S    
C5    C21   1.403795 A    
C20   C24   1.425458 A    
C8    C24   1.412873 A    
C27   C38   1.392972 A    
C5    O9    1.346592 S    
C10   C18   1.410020 A    
C25   S5    1.778122 S    
C41   C43   1.183144 T    
N2    C18   1.429163 S    
C31   C37   1.401356 A    
C12   S2    1.771591 S    
C24   C28   1.427390 A    
O3    Zn1   1.959886 S    
C6    O10   1.346578 S    
C28   S8    1.778098 S    
C14   H4    1.082297 S    
C12   C18   1.411590 A    
C6    N2    1.359381 A    
C15   H1    1.082557 S    
C21   C25   1.422061 A    
C16   H2    1.082525 S    
O2    C2    1.266025 A    
C33   C35   1.411106 A    
C9    C13   1.390297 A    
C34   C36   1.410774 A    
C11   C15   1.395482 A    
C43   C44   1.375647 S    
C12   C16   1.395379 A    
O15   H9    0.990566 S    
C1    C41   1.396875 S    
O8    Zn2   2.006965 S    
O24   H12   0.990630 S    
O21   H11   0.990898 S    
C34   C40   1.403031 A    
N1    C17   1.429129 S    
C7    O11   1.344965 S    
C13   C29   1.400241 A    
C19   C23   1.425079 A    
S3    O19   1.502834 D    
S4    O24   1.682289 S    
C2    C42   1.396873 S    
C28   C37   1.392739 A    
O6    C4    1.277003 A    
O27   H13   0.990434 S    
S7    O32   1.503825 D    
C7    N1    1.360408 A    
C32   C38   1.401775 A    
C4    C30   1.461814 S    
S3    O20   1.502465 D    
S4    O23   1.502483 D    
C10   C14   1.390445 A    
S5    O27   1.683024 S    
S6    O29   1.503784 D    
C15   C29   1.399563 A    
S1    O15   1.683176 S    
C8    N2    1.360288 A    
C3    C29   1.461736 S    
O1    Zn1   1.960323 S    
C20   C22   1.421851 A    
C32   C33   1.415688 A    
O6    Zn2   2.007446 S    
C19   C36   1.415113 A    
S2    O16   1.502930 D    
C16   C30   1.399635 A    
C14   C30   1.400116 A    
C25   C40   1.390724 A    
O4    C1    1.265945 A    
C26   C39   1.390895 A    
C23   C27   1.427210 A    
C37   H5    1.077446 S    
S6    O30   1.682779 S    
C39   H7    1.078316 S    
S8    O36   1.684119 S    
C40   H8    1.078534 S    
C31   C34   1.414992 A    
C8    O12   1.344900 S    
C45   C46   1.500339 S    
C20   C35   1.415258 A    
S2    O18   1.683238 S    
C5    N1    1.359523 A    
Zn2   N3    1.963318 S    
S8    O35   1.503869 D    
S7    O33   1.684065 S    
C31   C35   1.407992 A    
O4    Zn2   1.959887 S    
O2    Zn2   1.960322 S    
O7    C4    1.274731 A    
C27   S7    1.778252 S    
O8    C3    1.277111 A    
C10   S4    1.771978 S    
O5    Zn1   2.007446 S    
S3    O21   1.682289 S    
S4    O22   1.502848 D    
S5    O26   1.503793 D    
S6    O28   1.502338 D    
O33   H15   0.990406 S    
C6    C22   1.403911 A    
S7    O31   1.502676 D    
C9    S3    1.772099 S    
N4    C46   1.193562 T    
C11   S1    1.771630 S    
C32   C36   1.408297 A    
C9    C17   1.409922 A    
