data_mof_unit_44074.cif
_audit_creation_date              2012-10-26T21:02:35-0400
_audit_creation_method            fapswitch 2.2
_symmetry_space_group_name_H-M    P1
_symmetry_Int_Tables_number       1
_space_group_crystal_system       triclinic
_cell_length_a                    12.380657
_cell_length_b                    13.158549
_cell_length_c                    15.016371
_cell_angle_alpha                 76.900525
_cell_angle_beta                  101.783917
_cell_angle_gamma                 117.184677
_cell_volume                      2105.12789088

loop_
_atom_site_label
_atom_site_type_symbol
_atom_type_description
_atom_site_fract_x
_atom_site_fract_y
_atom_site_fract_z
_atom_type_partial_charge
C1    C     C_R   0.854875 0.286327 0.507432 0.540828
C2    C     C_R   0.952075 0.396839 0.828089 -0.016363
C3    C     C_R   0.998883 0.501526 0.767294 -0.040476
C4    C     C_R   0.999341 0.499092 0.670797 0.524265
C5    C     C_R   0.036156 0.608575 0.795991 -0.008611
C6    C     C_R   0.274580 0.024800 0.371092 0.018776
C7    C     C_R   0.228312 0.835945 0.464400 -0.027228
C8    C     C_R   0.813790 0.081721 0.563913 -0.146778
C9    C     C_R   0.734816 0.964412 0.577912 0.005755
C10   C     C_R   0.611333 0.928340 0.543189 -0.075062
C11   C     C_R   0.566555 0.008452 0.491145 0.024851
C12   C     C_R   0.049474 0.615636 0.079617 0.009141
C13   C     C_R   0.651680 0.123460 0.465743 0.022161
C14   C     C_R   0.440126 0.977558 0.462417 0.035540
C15   C     C_R   0.401545 0.056464 0.398797 0.025841
C16   C     C_R   0.145222 0.713786 0.485800 0.523221
C17   C     C_R   0.491297 0.162831 0.362749 -0.140356
C18   C     C_R   0.613784 0.195620 0.395615 -0.126187
C19   C     C_R   0.351099 0.870710 0.497300 -0.121353
C20   C     C_R   0.189663 0.913085 0.403025 -0.093705
C21   C     C_R   0.773020 0.162307 0.509947 -0.003378
C22   C     C_R   0.374627 0.370229 0.667601 0.014931
C23   C     C_R   0.862773 0.301203 0.066981 -0.072344
C24   C     C_R   0.751456 0.628151 0.364606 0.037435
C25   C     C_R   0.646200 0.641329 0.324789 -0.106472
C26   C     C_R   0.541122 0.587923 0.370419 0.004860
C27   C     C_R   0.548936 0.535530 0.464355 -0.046068
C28   C     C_R   0.000580 0.501379 0.329288 0.521047
C29   C     C_R   0.657582 0.517747 0.499630 0.129302
C30   C     C_R   0.453084 0.491924 0.523957 -0.051320
C31   C     C_R   0.474363 0.442074 0.616092 -0.017708
C32   C     C_R   0.594738 0.458521 0.650390 -0.000070
C33   C     C_R   0.663691 0.456845 0.589462 0.042656
C34   C     C_R   0.858035 0.297342 0.974069 0.041611
C35   C     C_R   0.340812 0.501736 0.500731 0.030029
C36   C     C_R   0.257587 0.363440 0.630158 0.159282
C37   C     C_R   0.066042 0.611801 0.176827 -0.020983
C38   C     C_R   0.001775 0.506625 0.232222 -0.012826
C39   C     C_R   0.933315 0.405028 0.195218 -0.123484
C40   C     C_R   0.929962 0.404647 0.102399 -0.000722
C41   C     C_R   0.988599 0.509148 0.043961 0.042345
C42   C     C_2   0.158618 0.710389 0.223678 0.227043
C43   C     C_2   0.227577 0.105763 0.310100 0.248109
C44   C     C_2   0.782292 0.880963 0.631372 0.281803
C45   C     C_R   0.931229 0.398634 0.916900 -0.003206
C46   C     C_2   0.147016 0.272642 0.670599 0.323230
C47   C     C_2   0.648584 0.470506 0.747425 0.283701
C48   C     C_2   0.390737 0.294942 0.754791 0.334793
C49   C     C_2   0.424466 0.574237 0.312568 0.221405
C50   C     C_2   0.657689 0.340471 0.600288 0.237214
C51   C     C_2   0.763704 0.191623 0.936897 0.305661
C52   C     C_2   0.936088 0.288950 0.800004 0.234810
C53   C     C_2   0.076194 0.716002 0.727057 0.249956
C54   C     C_2   0.115269 0.833471 0.041065 0.323446
C55   C     C_R   0.985753 0.506473 0.950024 0.019762
C56   C     C_R   0.037813 0.611349 0.889697 0.005685
C57   C     C_R   0.088229 0.716577 0.924053 -0.055458
C58   C     C_R   0.089022 0.720417 0.016463 0.021666
Cu1   Cu    Cu3+1 0.098270 0.475420 0.521130 0.949870
Cu2   Cu    Cu3+1 0.901730 0.524580 0.478870 0.956762
H1    H     H_    0.828983 0.665556 0.325866 0.139282
H2    H     H_    0.073927 0.291279 0.677952 0.148673
H3    H     H_    0.731320 0.458904 0.773462 0.130933
H4    H     H_    0.454584 0.257350 0.762266 0.113897
H5    H     H_    0.884435 0.325385 0.239738 0.114904
H6    H     H_    0.328685 0.563619 0.444055 0.150189
H7    H     H_    0.341452 0.495949 0.325080 0.104055
H8    H     H_    0.644206 0.685851 0.254713 0.172647
H9    H     H_    0.611863 0.289566 0.544917 0.127887
H10   H     H_    0.810122 0.223663 0.111694 0.171280
H11   H     H_    0.727516 0.196260 0.864724 0.140257
H12   H     H_    0.140574 0.726436 0.285574 0.096397
H13   H     H_    0.899220 0.271538 0.730273 0.133301
H14   H     H_    0.136491 0.728957 0.678129 0.114422
H15   H     H_    0.125680 0.797777 0.878746 0.215081
H16   H     H_    0.076426 0.836582 0.098351 0.118384
H17   H     H_    0.093234 0.885224 0.378898 0.171013
H18   H     H_    0.469087 0.222359 0.308737 0.112468
H19   H     H_    0.283604 0.198172 0.300032 0.104433
H20   H     H_    0.374856 0.811542 0.550429 0.131140
H21   H     H_    0.907288 0.110214 0.596056 0.151695
H22   H     H_    0.553173 0.836895 0.555085 0.156650
H23   H     H_    0.877881 0.911556 0.659510 0.176455
H24   H     H_    0.678643 0.277570 0.363728 0.148684
N1    N     N_R   0.246280 0.438190 0.553160 -0.278633
N2    N     N_R   0.754320 0.561190 0.447410 -0.238839
O1    O     O_R   0.972510 0.318130 0.526570 -0.526497
O2    O     O_2   0.123219 0.069904 0.271217 -0.476238
O3    O     O_2   0.715888 0.777411 0.644387 -0.462037
O4    O     O_2   0.135143 0.173299 0.694127 -0.478850
O5    O     O_2   0.605044 0.499586 0.797631 -0.442305
O6    O     O_2   0.336033 0.277460 0.819830 -0.388014
O7    O     O_2   0.420666 0.648344 0.247856 -0.424214
O8    O     O_2   0.696144 0.297225 0.672748 -0.580974
O9    O     O_2   0.723305 0.098484 0.986885 -0.442191
O10   O     O_2   0.968395 0.220589 0.853948 -0.431930
O11   O     O_2   0.036604 0.787238 0.721080 -0.481918
O12   O     O_R   0.806530 0.359650 0.490890 -0.513170
O13   O     O_2   0.178458 0.924589 0.996398 -0.415261
O14   O     O_R   0.082980 0.479210 0.647590 -0.523849
O15   O     O_R   0.917000 0.520730 0.611900 -0.465618
O16   O     O_R   0.193470 0.640350 0.509110 -0.502493
O17   O     O_R   0.027490 0.681870 0.473430 -0.500276
O18   O     O_R   0.083000 0.479270 0.388100 -0.493895
O19   O     O_R   0.917020 0.520790 0.352410 -0.528922
O20   O     O_2   0.258291 0.770976 0.196059 -0.416636

loop_
_geom_bond_atom_site_label_1
_geom_bond_atom_site_label_2
_ccdc_geom_bond_type
C1    O1    A    
C22   C48   S    
C55   C56   A    
C1    C21   S    
C24   H1    S    
C27   C29   A    
C11   C13   A    
C5    C56   A    
C53   H14   S    
C44   H23   S    
C34   C51   S    
C37   C38   A    
C13   C18   A    
C46   H2    S    
C43   O2    D    
C5    C53   S    
C50   H9    S    
Cu2   O12   S    
C47   H3    S    
C30   C31   A    
C11   C14   A    
C48   H4    S    
C43   H19   S    
C23   C40   A    
C29   C33   A    
C12   C37   A    
C56   C57   A    
C37   C42   S    
C41   C55   A    
C6    C15   A    
C8    C9    A    
C18   H24   S    
C36   C46   S    
Cu2   O17   S    
C9    C10   A    
C12   C58   A    
Cu1   Cu2   S    
C27   C30   A    
Cu1   O14   S    
C39   H5    S    
C23   H10   S    
C25   H8    S    
C51   H11   S    
C8    C21   A    
C2    C45   A    
C22   C31   A    
C8    H21   S    
C24   C25   A    
C52   H13   S    
C26   C49   S    
C39   C40   A    
Cu2   N2    S    
C50   O8    D    
C35   H6    S    
C53   O11   D    
C33   C50   S    
C10   H22   S    
Cu1   N1    S    
C12   C41   A    
C28   O18   A    
C16   O17   A    
C31   C32   A    
C28   C38   S    
C28   O19   A    
C23   C34   A    
C4    O15   A    
C42   H12   S    
C17   C18   A    
C26   C27   A    
C13   C21   A    
C34   C45   A    
C42   O20   D    
C29   N2    A    
C2    C52   S    
C54   H16   S    
C20   H17   S    
C16   O16   A    
C40   C41   A    
C7    C19   A    
C6    C43   S    
C4    O14   A    
C32   C47   S    
C54   O13   D    
Cu1   O18   S    
C3    C4    S    
C22   C36   A    
C54   C58   S    
C15   C17   A    
C7    C16   S    
C9    C44   S    
C49   H7    S    
Cu1   O16   S    
C47   O5    D    
C14   C19   A    
C3    C5    A    
C1    O12   A    
C46   O4    D    
C36   N1    A    
C30   C35   A    
C32   C33   A    
C57   H15   S    
C2    C3    A    
C25   C26   A    
C35   N1    A    
C57   C58   A    
C38   C39   A    
C6    C20   A    
C17   H18   S    
C52   O10   D    
C19   H20   S    
Cu1   O1    S    
C10   C11   A    
Cu2   O19   S    
C45   C55   A    
C7    C20   A    
C48   O6    D    
C14   C15   A    
C49   O7    D    
C24   N2    A    
C44   O3    D    
Cu2   O15   S    
C51   O9    D    
