data_mof_unit_28340.cif
_audit_creation_date              2012-12-10T17:32:18-0500
_audit_creation_method            fapswitch 2.2
_symmetry_space_group_name_H-M    P1
_symmetry_Int_Tables_number       1
_space_group_crystal_system       triclinic
_cell_length_a                    12.344413
_cell_length_b                    13.14505
_cell_length_c                    15.055683
_cell_angle_alpha                 77.44181
_cell_angle_beta                  101.528613
_cell_angle_gamma                 116.788866
_cell_volume                      2114.0786431

loop_
_atom_site_label
_atom_site_type_symbol
_atom_type_description
_atom_site_fract_x
_atom_site_fract_y
_atom_site_fract_z
_atom_type_partial_charge
C1    C     C_R   0.854747 0.286275 0.508139 0.770687
C2    C     C_R   0.924611 0.540176 0.073101 0.106183
C3    C     C_R   0.139013 0.407142 0.086709 -0.216290
C4    C     C_R   0.140368 0.408740 0.994029 -0.203538
C5    C     C_R   0.069669 0.453134 0.927286 0.104861
C6    C     C_R   0.996840 0.496372 0.953652 0.061894
C7    C     C_R   0.924719 0.540504 0.886980 0.104427
C8    C     C_R   0.853151 0.583822 0.913817 -0.200447
C9    C     C_R   0.853344 0.583935 0.006420 -0.211523
C10   C     C_R   0.070480 0.455031 0.834554 -0.214120
C11   C     C_R   0.998617 0.498574 0.768140 -0.057171
C12   C     C_R   0.999580 0.499603 0.671187 0.849017
C13   C     C_R   0.925649 0.540774 0.794560 -0.227718
C14   C     C_R   0.279255 0.012444 0.361463 -0.185777
C15   C     C_R   0.227295 0.835197 0.467442 -0.140186
C16   C     C_R   0.813985 0.081939 0.564091 -0.188702
C17   C     C_R   0.734723 0.965572 0.576883 -0.147046
C18   C     C_R   0.611268 0.929669 0.544668 -0.086890
C19   C     C_R   0.565023 0.009928 0.498367 0.116309
C20   C     C_R   0.649463 0.124080 0.470867 0.080107
C21   C     C_R   0.438268 0.977777 0.471674 -0.040706
C22   C     C_R   0.401714 0.049219 0.398997 0.118649
C23   C     C_R   0.145016 0.713510 0.487165 0.883100
C24   C     C_R   0.488082 0.155860 0.363445 -0.211700
C25   C     C_R   0.609810 0.194018 0.400082 -0.192386
C26   C     C_R   0.346027 0.877780 0.514108 0.341215
C27   C     C_R   0.193646 0.903700 0.392739 -0.261917
C28   C     C_R   0.772345 0.162702 0.512173 -0.102174
C29   C     C_R   0.342277 0.320953 0.638248 -0.282181
C30   C     C_R   0.764068 0.647616 0.377104 0.034545
C31   C     C_R   0.669095 0.679846 0.346720 -0.319319
C32   C     C_R   0.560710 0.623446 0.387806 0.265962
C33   C     C_R   0.549969 0.535763 0.465529 -0.045018
C34   C     C_R   0.999466 0.499118 0.328906 0.793753
C35   C     C_R   0.651394 0.505467 0.492844 0.233357
C36   C     C_R   0.445427 0.475762 0.517298 -0.033443
C37   C     C_R   0.443026 0.384036 0.588595 0.162253
C38   C     C_R   0.541977 0.356439 0.611839 -0.259094
C39   C     C_R   0.644493 0.417422 0.566582 -0.165523
C40   C     C_R   0.343412 0.502473 0.504338 0.068947
C41   C     C_R   0.243625 0.348855 0.618644 0.079264
C42   C     C_R   0.926036 0.540777 0.165712 -0.248640
C43   C     C_R   0.997455 0.496730 0.232140 -0.064754
C44   C     C_R   0.066282 0.450059 0.205911 -0.264958
C45   C     C_R   0.067490 0.450531 0.113504 0.110132
C46   C     C_R   0.996282 0.495650 0.046780 0.067659
Cu1   Cu    Cu3+1 0.098270 0.475420 0.521130 0.975977
Cu2   Cu    Cu3+1 0.901730 0.524580 0.478870 0.929508
H1    H     H_    0.872220 0.576410 0.185894 0.151646
H2    H     H_    0.461296 0.210526 0.307468 0.140225
H3    H     H_    0.251038 0.065261 0.304688 0.140982
H4    H     H_    0.908000 0.108677 0.594865 0.154970
H5    H     H_    0.553422 0.838490 0.553324 0.175231
H6    H     H_    0.768466 0.903177 0.613763 0.148868
H7    H     H_    0.672995 0.275822 0.367970 0.173278
H8    H     H_    0.164818 0.299735 0.655799 0.116117
H9    H     H_    0.541309 0.287894 0.667245 0.166839
H10   H     H_    0.339918 0.250348 0.691982 0.147856
H11   H     H_    0.119125 0.413555 0.257366 0.158072
H12   H     H_    0.338282 0.574645 0.457892 0.182576
H13   H     H_    0.845998 0.690766 0.343136 0.136742
H14   H     H_    0.678126 0.746875 0.288408 0.147957
H15   H     H_    0.717040 0.392275 0.592006 0.207804
H16   H     H_    0.194300 0.372590 0.137376 0.141715
H17   H     H_    0.196566 0.375237 0.974535 0.144632
H18   H     H_    0.126365 0.421717 0.814249 0.155517
H19   H     H_    0.870306 0.574725 0.743280 0.161112
H20   H     H_    0.797440 0.617929 0.863206 0.150727
H21   H     H_    0.797860 0.618226 0.025902 0.144941
H22   H     H_    0.101743 0.872055 0.357297 0.160878
N1    N     N_R   0.246280 0.438190 0.553160 -0.187229
N2    N     N_R   0.754320 0.561190 0.447410 -0.203977
O1    O     O_R   0.972510 0.318130 0.526570 -0.589325
O2    O     O_R   0.806530 0.359650 0.490890 -0.602122
O3    O     O_R   0.082980 0.479210 0.647590 -0.560222
O4    O     O_R   0.917000 0.520730 0.611900 -0.608431
O5    O     O_R   0.193470 0.640350 0.509110 -0.549624
O6    O     O_R   0.027490 0.681870 0.473430 -0.590630
O7    O     O_R   0.083000 0.479270 0.388100 -0.592310
O8    O     O_R   0.917020 0.520790 0.352410 -0.601618
S1    S     S_3+6 0.364762 0.825830 0.633615 -0.016055
O9    O     O_2   0.249815 0.794517 0.673961 -0.297541
O10   O     O_2   0.388022 0.720264 0.647501 -0.314684
O11   O     O_3   0.481456 0.928065 0.688687 -0.538877
H23   H     H_    0.489577 0.890077 0.752528 0.372914
N3    N     N_2   0.463136 0.652944 0.345684 -0.464780
H24   H     H_    0.490358 0.739950 0.323386 0.253973
C47   C     C_3   0.384109 0.584116 0.275682 -0.709240
H25   H     H_    0.308308 0.609965 0.248684 0.240254
H26   H     H_    0.344837 0.491284 0.304710 0.230917
H27   H     H_    0.435692 0.597955 0.218174 0.233345

loop_
_geom_bond_atom_site_label_1
_geom_bond_atom_site_label_2
_ccdc_geom_bond_type
C16   C28   A    
C21   C26   A    
C40   H12   S    
C40   N1    A    
Cu2   O4    S    
C19   C20   A    
Cu1   O7    S    
S1    O9    D    
C7    C8    A    
C3    H16   S    
C2    C46   A    
C1    O2    A    
C29   H10   S    
C36   C37   A    
C19   C21   A    
C9    H21   S    
C5    C6    A    
N3    C47   S    
C20   C25   A    
C44   H11   S    
C33   C36   A    
C18   C19   A    
Cu2   O6    S    
C4    H17   S    
C18   H5    S    
C34   O8    A    
Cu1   Cu2   S    
C8    C9    A    
C1    C28   S    
C14   C27   A    
C41   N1    A    
C15   C23   S    
C21   C22   A    
C31   H14   S    
Cu2   N2    S    
S1    O10   D    
C10   H18   S    
C24   H2    S    
C38   C39   A    
Cu2   O2    S    
C36   C40   A    
C24   C25   A    
Cu1   O1    S    
C16   H4    S    
N3    H24   S    
C16   C17   A    
C15   C26   A    
C20   C28   A    
C45   C46   A    
C3    C45   A    
C23   O5    A    
C35   C39   A    
C43   C44   A    
C41   H8    S    
C37   C38   A    
C34   O7    A    
C38   H9    S    
C15   C27   A    
C14   H3    S    
C47   H27   S    
C32   N3    S    
C17   C18   A    
O11   H23   S    
Cu1   N1    S    
C27   H22   S    
C47   H26   S    
C35   N2    A    
C8    H20   S    
C26   S1    S    
C12   O4    A    
C22   C24   A    
C30   H13   S    
C42   C43   A    
Cu1   O5    S    
C3    C4    A    
S1    O11   S    
C44   C45   A    
C13   H19   S    
C6    C46   A    
C29   C41   A    
C31   C32   A    
C34   C43   S    
C25   H7    S    
C4    C5    A    
C30   N2    A    
C11   C12   S    
C6    C7    A    
C39   H15   S    
C1    O1    A    
C32   C33   A    
Cu2   O8    S    
Cu1   O3    S    
C5    C10   A    
C11   C13   A    
C14   C22   A    
C30   C31   A    
C2    C42   A    
C33   C35   A    
C23   O6    A    
C10   C11   A    
C42   H1    S    
C7    C13   A    
C47   H25   S    
C12   O3    A    
C29   C37   A    
C2    C9    A    
C17   H6    S    
