data_mof_unit_13501.cif
_audit_creation_date              2012-12-10T18:09:33-0500
_audit_creation_method            fapswitch 2.2
_symmetry_space_group_name_H-M    P1
_symmetry_Int_Tables_number       1
_space_group_crystal_system       triclinic
_cell_length_a                    15.210231
_cell_length_b                    16.270489
_cell_length_c                    9.638663
_cell_angle_alpha                 89.155147
_cell_angle_beta                  89.851612
_cell_angle_gamma                 90.261033
_cell_volume                      2385.06354962

loop_
_atom_site_label
_atom_site_type_symbol
_atom_type_description
_atom_site_fract_x
_atom_site_fract_y
_atom_site_fract_z
_atom_type_partial_charge
C1    C     C_R   0.120952 0.382883 0.500628 0.995087
C2    C     C_R   0.124435 0.615299 0.499354 0.992935
C3    C     C_R   0.620951 0.882883 0.500628 0.995071
C4    C     C_R   0.624438 0.115297 0.499355 0.992892
C5    C     C_3   0.054808 0.431031 0.084483 -0.442547
C6    C     C_3   0.062182 0.436721 0.917911 -0.470541
C7    C     C_3   0.554795 0.931022 0.084482 -0.442552
C8    C     C_3   0.562174 0.936715 0.917911 -0.470557
C9    C     C_R   0.878624 0.380989 0.499800 0.947447
C10   C     C_R   0.878058 0.620023 0.499432 0.981162
C11   C     C_R   0.378629 0.880986 0.499799 0.947422
C12   C     C_R   0.378057 0.120021 0.499433 0.981172
C13   C     C_3   0.839422 0.239388 0.597857 0.156053
C14   C     C_3   0.800201 0.272089 0.347878 0.174717
C15   C     C_3   0.804842 0.737202 0.642789 0.184916
C16   C     C_3   0.825190 0.759867 0.384255 0.195832
C17   C     C_3   0.339410 0.739395 0.597884 0.156089
C18   C     C_3   0.300223 0.772067 0.347880 0.174744
C19   C     C_3   0.304838 0.237197 0.642795 0.184923
C20   C     C_3   0.325196 0.259867 0.384266 0.195819
C21   C     C_3   0.277992 0.662289 0.584507 0.114500
C22   C     C_3   0.223742 0.707957 0.347340 0.122761
C23   C     C_3   0.246380 0.316159 0.632331 0.058463
C24   C     C_3   0.246223 0.319935 0.370733 0.067259
C25   C     C_3   0.778019 0.162269 0.584446 0.114518
C26   C     C_3   0.723708 0.207988 0.347343 0.122750
C27   C     C_3   0.746387 0.816167 0.632321 0.058441
C28   C     C_3   0.746214 0.819932 0.370722 0.067236
C29   C     C_3   0.714123 0.340021 0.542793 0.615197
C30   C     C_3   0.707133 0.657740 0.477134 0.631867
C31   C     C_3   0.214127 0.840030 0.542752 0.615241
C32   C     C_3   0.207134 0.157740 0.477130 0.631864
C33   C     C_3   0.808942 0.310995 0.497733 -0.322667
C34   C     C_3   0.805502 0.690302 0.498974 -0.336684
C35   C     C_3   0.308946 0.810991 0.497729 -0.322715
C36   C     C_3   0.305502 0.190301 0.498977 -0.336681
C37   C     C_3   0.193643 0.684220 0.498195 -0.331845
C38   C     C_3   0.187017 0.314282 0.500913 -0.280820
C39   C     C_3   0.693647 0.184217 0.498202 -0.331861
C40   C     C_3   0.687016 0.814282 0.500912 -0.280803
C41   C     C_3   0.151926 0.762694 0.566130 0.464873
C42   C     C_3   0.137379 0.229431 0.499779 0.435783
C43   C     C_3   0.651945 0.262675 0.566222 0.464976
C44   C     C_3   0.637379 0.729431 0.499790 0.435800
C45   C     C_3   0.044127 0.574447 0.078383 0.341566
C46   C     C_3   0.032049 0.579332 0.915716 0.341528
C47   C     C_3   0.912998 0.487342 0.082318 0.292683
C48   C     C_3   0.914763 0.476311 0.919782 0.333468
C49   C     C_3   0.544136 0.074442 0.078382 0.341582
C50   C     C_3   0.532059 0.079328 0.915713 0.341540
C51   C     C_3   0.412995 0.987364 0.082317 0.292643
C52   C     C_3   0.414760 0.976318 0.919786 0.333518
Cu1   Cu    Cu3+1 0.000100 0.500000 0.642410 1.083286
Cu2   Cu    Cu3+1 0.000100 0.500000 0.357590 1.105254
Cu3   Cu    Cu3+1 0.500100 0.000000 0.642410 1.083284
Cu4   Cu    Cu3+1 0.500100 0.000000 0.357590 1.105238
H1    H     H_    0.907170 0.224001 0.564095 0.221297
H2    H     H_    0.863732 0.240919 0.326099 0.213682
H3    H     H_    0.873895 0.755094 0.665706 0.234125
H4    H     H_    0.882061 0.795494 0.422211 0.228178
H5    H     H_    0.407156 0.723993 0.564126 0.221286
H6    H     H_    0.363760 0.740903 0.326117 0.213690
H7    H     H_    0.373891 0.255090 0.665714 0.234150
H8    H     H_    0.382070 0.295490 0.422226 0.228160
H9    H     H_    0.257588 0.639079 0.688502 0.189757
H10   H     H_    0.166318 0.736175 0.294657 0.230626
H11   H     H_    0.201754 0.321293 0.721928 0.181105
H12   H     H_    0.205995 0.302123 0.279668 0.185089
H13   H     H_    0.757642 0.139017 0.688432 0.189740
H14   H     H_    0.666267 0.236231 0.294738 0.230494
H15   H     H_    0.701766 0.821306 0.721926 0.181100
H16   H     H_    0.705982 0.802112 0.279665 0.185094
H17   H     H_    0.116097 0.570218 0.095880 0.138601
H18   H     H_    0.097878 0.593698 0.871812 0.138391
H19   H     H_    0.885358 0.431514 0.129642 0.143339
H20   H     H_    0.902043 0.410079 0.899414 0.098247
H21   H     H_    0.616104 0.070202 0.095875 0.138667
H22   H     H_    0.597892 0.093681 0.871813 0.138420
H23   H     H_    0.385329 0.931557 0.129661 0.143381
H24   H     H_    0.402038 0.910083 0.899442 0.098199
H25   H     H_    0.122340 0.431497 0.128332 0.244412
H26   H     H_    0.131359 0.450990 0.887672 0.210012
H27   H     H_    0.025935 0.370508 0.115905 0.211715
H28   H     H_    0.047856 0.375186 0.874242 0.228399
H29   H     H_    0.622326 0.931475 0.128334 0.244428
H30   H     H_    0.631354 0.950978 0.887678 0.209996
H31   H     H_    0.525907 0.870505 0.115899 0.211669
H32   H     H_    0.547845 0.875182 0.874237 0.228393
N1    N     N_3   0.001260 0.500000 0.143650 -0.238562
N2    N     N_3   0.001260 0.500000 0.856350 -0.244614
N3    N     N_3   0.501260 0.000000 0.143650 -0.238570
N4    N     N_3   0.501260 0.000000 0.856350 -0.244615
O1    O     O_R   0.091250 0.408820 0.620260 -0.606888
O2    O     O_R   0.091250 0.408820 0.379740 -0.577337
O3    O     O_R   0.091250 0.591180 0.620260 -0.580647
O4    O     O_R   0.091250 0.591180 0.379740 -0.515786
O5    O     O_R   0.591250 0.908820 0.620260 -0.606902
O6    O     O_R   0.591250 0.908820 0.379740 -0.577327
O7    O     O_R   0.591250 0.091180 0.620260 -0.580622
O8    O     O_R   0.591250 0.091180 0.379740 -0.515744
O9    O     O_R   0.908940 0.408800 0.620260 -0.525411
O10   O     O_R   0.908940 0.408800 0.379740 -0.561238
O11   O     O_R   0.908940 0.591200 0.620260 -0.479426
O12   O     O_R   0.908940 0.591200 0.379740 -0.458712
O13   O     O_R   0.408940 0.908800 0.620260 -0.525388
O14   O     O_R   0.408940 0.908800 0.379740 -0.561274
O15   O     O_R   0.408940 0.091200 0.620260 -0.479419
O16   O     O_R   0.408940 0.091200 0.379740 -0.458720
O17   O     O_3   0.842111 0.266332 0.737207 -0.544565
C53   C     C_3   0.886326 0.209776 0.825405 -0.145060
H33   H     H_    0.838469 0.183221 0.900783 0.177897
H34   H     H_    0.937906 0.243132 0.883424 0.179179
H35   H     H_    0.917990 0.157417 0.771947 0.236973
O18   O     O_3   0.785064 0.333454 0.244035 -0.526783
C54   C     C_3   0.792274 0.301763 0.108664 -0.121616
H36   H     H_    0.782899 0.352506 0.032405 0.216230
H37   H     H_    0.738832 0.257783 0.084844 0.221453
H38   H     H_    0.858231 0.274700 0.091943 0.125362
O19   O     O_3   0.774019 0.684262 0.751062 -0.463913
C55   C     C_3   0.767538 0.723340 0.881006 0.011142
H39   H     H_    0.697674 0.736760 0.904822 0.160636
H40   H     H_    0.807457 0.780534 0.887119 0.104646
H41   H     H_    0.789525 0.680889 0.962857 0.268351
O20   O     O_3   0.845995 0.727668 0.252369 -0.496837
C56   C     C_3   0.873488 0.791395 0.159180 0.010998
H42   H     H_    0.816758 0.826904 0.119136 0.118058
H43   H     H_    0.902832 0.764789 0.066029 0.225808
H44   H     H_    0.924352 0.832227 0.204811 0.229246
O21   O     O_3   0.342101 0.766353 0.737226 -0.544580
C57   C     C_3   0.386348 0.709817 0.825425 -0.145127
H45   H     H_    0.338523 0.683273 0.900852 0.177825
H46   H     H_    0.437942 0.743185 0.883381 0.179164
H47   H     H_    0.417998 0.657449 0.771982 0.236999
O22   O     O_3   0.285066 0.833420 0.244025 -0.526680
C58   C     C_3   0.292459 0.801766 0.108661 -0.121952
H48   H     H_    0.282856 0.852457 0.032381 0.216449
H49   H     H_    0.239274 0.757551 0.084813 0.221246
H50   H     H_    0.358565 0.775027 0.091983 0.125086
O23   O     O_3   0.274017 0.184256 0.751067 -0.463922
C59   C     C_3   0.267537 0.223336 0.881010 0.011141
H51   H     H_    0.197676 0.236759 0.904826 0.160621
H52   H     H_    0.307460 0.280525 0.887129 0.104663
H53   H     H_    0.289517 0.180886 0.962858 0.268360
O24   O     O_3   0.346003 0.227672 0.252378 -0.496840
C60   C     C_3   0.373503 0.291399 0.159195 0.010961
H54   H     H_    0.316777 0.326914 0.119150 0.118086
H55   H     H_    0.402845 0.264793 0.066042 0.225822
H56   H     H_    0.424371 0.332226 0.204832 0.229205
Cl1   Cl    Cl    0.342173 0.580148 0.518416 -0.336729
Cl2   Cl    Cl    0.255491 0.622376 0.241752 -0.518803
Cl3   Cl    Cl    0.313022 0.405558 0.653033 -0.462177
Cl4   Cl    Cl    0.283536 0.423176 0.332669 -0.445735
Cl5   Cl    Cl    0.842207 0.080158 0.518245 -0.336670
Cl6   Cl    Cl    0.755433 0.122436 0.241658 -0.518920
Cl7   Cl    Cl    0.813031 0.905570 0.652988 -0.462233
Cl8   Cl    Cl    0.783516 0.923175 0.332629 -0.445784
Cl9   Cl    Cl    0.717194 0.398509 0.696445 -0.308259
Cl10  Cl    Cl    0.670199 0.411264 0.415775 -0.303043
Cl11  Cl    Cl    0.683175 0.572855 0.588719 -0.249154
Cl12  Cl    Cl    0.693074 0.614294 0.310347 -0.330036
Cl13  Cl    Cl    0.217191 0.898506 0.696420 -0.308253
Cl14  Cl    Cl    0.170245 0.911296 0.415733 -0.302933
Cl15  Cl    Cl    0.183171 0.072858 0.588721 -0.249171
Cl16  Cl    Cl    0.193081 0.114291 0.310343 -0.330024
Cl17  Cl    Cl    0.133366 0.743019 0.749192 -0.471196
Cl18  Cl    Cl    0.043354 0.780814 0.500626 -0.510608
Cl19  Cl    Cl    0.076518 0.217506 0.660116 -0.581001
Cl20  Cl    Cl    0.050775 0.229685 0.370691 -0.563466
Cl21  Cl    Cl    0.633484 0.242971 0.749314 -0.471391
Cl22  Cl    Cl    0.543331 0.280795 0.500868 -0.510615
Cl23  Cl    Cl    0.576529 0.717507 0.660136 -0.581009
Cl24  Cl    Cl    0.550767 0.729681 0.370718 -0.563497
Cl25  Cl    Cl    0.021908 0.668637 0.161024 -0.495445
Cl26  Cl    Cl    0.964583 0.663372 0.864094 -0.469600
Cl27  Cl    Cl    0.839513 0.564031 0.130123 -0.371969
Cl28  Cl    Cl    0.823592 0.523136 0.838762 -0.329314
Cl29  Cl    Cl    0.521927 0.168639 0.161015 -0.495567
Cl30  Cl    Cl    0.464607 0.163378 0.864076 -0.469549
Cl31  Cl    Cl    0.339536 0.064080 0.130095 -0.372036
Cl32  Cl    Cl    0.323590 0.023134 0.838754 -0.329310

loop_
_geom_bond_atom_site_label_1
_geom_bond_atom_site_label_2
_ccdc_geom_bond_type
C16   C28   S    
C58   H50   S    
Cu3   Cu4   S    
C22   Cl2   S    
C6    H26   S    
Cu1   O3    S    
C20   O24   S    
C19   C23   S    
C2    C37   S    
C59   H53   S    
Cu4   O6    S    
C13   C25   S    
C14   C33   S    
C44   Cl24  S    
C60   H54   S    
C43   Cl21  S    
C7    C8    S    
C45   C46   S    
C42   Cl19  S    
C30   Cl12  S    
Cu3   O13   S    
C32   C36   S    
Cu2   O12   S    
C10   O11   A    
C50   Cl30  S    
C59   H52   S    
C38   C42   S    
C19   C36   S    
C49   H21   S    
C51   H23   S    
C5    C6    S    
C5    H27   S    
C26   C39   S    
C13   H1    S    
C28   C40   S    
C54   H36   S    
C32   Cl15  S    
C29   C33   S    
C45   H17   S    
C16   H4    S    
C23   H11   S    
C48   H20   S    
C53   H33   S    
C22   H10   S    
C13   O17   S    
C24   Cl4   S    
C51   N3    S    
Cu4   N3    S    
Cu4   O16   S    
C20   C24   S    
C19   H7    S    
C1    O2    A    
C54   H37   S    
C41   Cl17  S    
C11   O13   A    
C56   H44   S    
C24   C38   S    
C46   Cl26  S    
C8    N4    S    
C21   Cl1   S    
C12   C36   S    
C45   N1    S    
C18   C35   S    
C15   C34   S    
Cu2   O4    S    
C55   H41   S    
C17   H5    S    
C31   Cl14  S    
C10   O12   A    
C48   N2    S    
C29   C43   S    
C9    C33   S    
C47   N1    S    
C30   C44   S    
C28   H16   S    
C49   N3    S    
C51   Cl31  S    
C50   H22   S    
C60   H55   S    
C43   Cl22  S    
C42   Cl20  S    
O18   C54   S    
C49   Cl29  S    
C27   Cl7   S    
C30   Cl11  S    
C14   H2    S    
C7    H31   S    
C6    H28   S    
C30   C34   S    
C25   Cl5   S    
C51   C52   S    
C47   Cl27  S    
C58   H48   S    
C59   H51   S    
Cu2   N1    S    
Cu1   O9    S    
C12   O16   A    
C9    O10   A    
C29   Cl9   S    
Cu1   Cu2   S    
C22   C37   S    
Cu1   O1    S    
C17   C21   S    
C17   O21   S    
Cu3   O15   S    
C8    H32   S    
C20   H8    S    
C57   H46   S    
C52   Cl32  S    
C13   C33   S    
Cu3   N4    S    
C45   Cl25  S    
C5    H25   S    
C3    O5    A    
C15   C27   S    
C47   C48   S    
C4    C39   S    
C27   C40   S    
O19   C55   S    
C54   H38   S    
C7    N3    S    
C41   Cl18  S    
Cu3   O5    S    
C11   O14   A    
C10   C34   S    
C14   C26   S    
C53   H35   S    
Cu4   O14   S    
C29   Cl10  S    
C1    C38   S    
C1    O1    A    
C3    C40   S    
C4    O8    A    
C56   H42   S    
C26   H14   S    
C31   C35   S    
C52   N4    S    
C57   H47   S    
C25   H13   S    
Cu4   O8    S    
C46   H18   S    
C60   H56   S    
C27   H15   S    
C55   H39   S    
C55   H40   S    
C28   Cl8   S    
O21   C57   S    
C50   N4    S    
C58   H49   S    
C23   Cl3   S    
C2    O3    A    
C31   C41   S    
C21   H9    S    
C18   C22   S    
C15   H3    S    
Cu2   O10   S    
C18   H6    S    
O24   C60   S    
C12   O15   A    
C39   C43   S    
O23   C59   S    
O22   C58   S    
C46   N2    S    
C14   O18   S    
C23   C38   S    
C31   Cl13  S    
C16   C34   S    
C2    O4    A    
C57   H45   S    
C16   O20   S    
C44   Cl23  S    
C47   H19   S    
C6    N2    S    
O17   C53   S    
C25   C39   S    
C3    O6    A    
C7    H29   S    
Cu1   O11   S    
C32   Cl16  S    
C11   C35   S    
C15   O19   S    
C18   O22   S    
C8    H30   S    
C37   C41   S    
C53   H34   S    
Cu2   O2    S    
C26   Cl6   S    
C24   H12   S    
C20   C36   S    
C40   C44   S    
C21   C37   S    
C9    O9    A    
C49   C50   S    
C4    O7    A    
Cu3   O7    S    
Cu1   N2    S    
C56   H43   S    
C32   C42   S    
C17   C35   S    
C52   H24   S    
C19   O23   S    
C5    N1    S    
O20   C56   S    
C48   Cl28  S    
