data_mof_unit_57775.cif
_audit_creation_date              2012-12-10T20:25:43-0500
_audit_creation_method            fapswitch 2.2
_symmetry_space_group_name_H-M    P1
_symmetry_Int_Tables_number       1
_space_group_crystal_system       triclinic
_cell_length_a                    8.604923
_cell_length_b                    10.662887
_cell_length_c                    9.878325
_cell_angle_alpha                 90.26693
_cell_angle_beta                  98.920351
_cell_angle_gamma                 90.05149
_cell_volume                      895.3955387

loop_
_atom_site_label
_atom_site_type_symbol
_atom_type_description
_atom_site_fract_x
_atom_site_fract_y
_atom_site_fract_z
_atom_type_partial_charge
C1    C     C_R   0.500438 0.260490 0.499596 0.864126
C2    C     C_R   0.465452 0.393143 0.923366 0.221825
C3    C     C_3   0.315430 0.321065 0.896681 -0.506036
C4    C     C_R   0.201295 0.492495 0.463908 0.924965
C5    C     C_3   0.316509 0.320101 0.050420 -0.470611
C6    C     C_R   0.493670 0.739499 0.499246 0.860353
C7    C     C_R   0.798510 0.493575 0.535672 0.951336
C8    C     C_2   0.038224 0.464098 0.446134 -0.189812
C9    C     C_2   0.964087 0.490190 0.553069 -0.490864
C10   C     C_R   0.608595 0.062892 0.587481 0.100822
C11   C     C_R   0.500876 0.128855 0.495987 -0.126699
C12   C     C_R   0.389981 0.936891 0.393069 -0.041698
C13   C     C_R   0.399350 0.067095 0.392822 -0.197349
C14   C     C_2   0.964875 0.394841 0.320502 0.457763
C15   C     C_2   0.267834 0.872817 0.293188 0.408459
C16   C     C_R   0.489330 0.871715 0.497059 -0.182793
C17   C     C_R   0.602787 0.935044 0.587878 0.130727
C18   C     C_3   0.638390 0.929575 0.740815 -0.469273
C19   C     C_3   0.646323 0.071612 0.739903 -0.455009
C20   C     C_R   0.466143 0.392893 0.065894 0.209240
C21   C     C_R   0.548675 0.602121 0.079039 -0.083414
C22   C     C_R   0.549065 0.601977 0.935301 -0.106677
H1    H     H_    0.586999 0.684798 0.887021 0.146642
H2    H     H_    0.551770 0.116833 0.787504 0.211939
H3    H     H_    0.766637 0.109026 0.774401 0.210523
H4    H     H_    0.585677 0.685370 0.138311 0.158301
H5    H     H_    0.876452 0.323408 0.327454 0.075969
H6    H     H_    0.236924 0.775664 0.307170 0.090772
H7    H     H_    0.217131 0.376543 0.839905 0.224614
H8    H     H_    0.331027 0.226422 0.853451 0.202909
H9    H     H_    0.218988 0.374920 0.082099 0.271093
H10   H     H_    0.333423 0.224963 0.095652 0.215623
H11   H     H_    0.024496 0.526612 0.650245 0.190372
H12   H     H_    0.320074 0.120827 0.318995 0.186941
H13   H     H_    0.538021 0.893343 0.787836 0.210648
H14   H     H_    0.753788 0.884704 0.777159 0.208751
N1    N     N_R   0.498950 0.499140 0.142680 -0.112295
N2    N     N_R   0.498950 0.499180 0.857030 -0.109697
O1    O     O_R   0.500020 0.316790 0.614690 -0.621608
O2    O     O_2   0.198467 0.928618 0.194176 -0.578923
O3    O     O_R   0.500000 0.316760 0.385350 -0.632136
O4    O     O_R   0.271760 0.500010 0.587850 -0.631028
O5    O     O_R   0.271740 0.499970 0.358500 -0.586450
O6    O     O_R   0.500000 0.683240 0.614650 -0.616415
O7    O     O_R   0.499980 0.683210 0.385310 -0.636907
O8    O     O_R   0.728260 0.500030 0.641500 -0.604931
O9    O     O_R   0.728240 0.499990 0.412150 -0.611072
O10   O     O_2   0.999729 0.418999 0.208488 -0.586061
Zn1   Zn    Zn3+2 0.500010 0.500020 0.653130 0.948272
Zn2   Zn    Zn3+2 0.499990 0.499980 0.346870 0.964773

loop_
_geom_bond_atom_site_label_1
_geom_bond_atom_site_label_2
_ccdc_geom_bond_type
O6    Zn1   S    
C3    H8    S    
C14   O10   D    
C21   H4    S    
O5    Zn2   S    
N1    Zn2   S    
C6    O7    A    
C14   H5    S    
C18   H13   S    
C2    N2    A    
C1    C11   S    
C12   C15   S    
C10   C19   S    
C4    C8    S    
C5    H10   S    
C17   C18   S    
C13   H12   S    
N2    Zn1   S    
C6    O6    A    
C21   C22   A    
C9    H11   S    
C20   N1    A    
C11   C13   A    
O8    Zn1   S    
C18   H14   S    
C15   H6    S    
C4    O4    A    
O7    Zn2   S    
C1    O3    A    
O1    Zn1   S    
C4    O5    A    
C19   H2    S    
O9    Zn2   S    
C2    C3    S    
C19   H3    S    
C5    C20   S    
C15   O2    D    
C10   C11   A    
C1    O1    A    
O4    Zn1   S    
C6    C16   S    
C22   N2    A    
C7    O8    A    
O3    Zn2   S    
C21   N1    A    
C12   C13   A    
C7    C9    S    
C18   C19   S    
C3    H7    S    
C22   H1    S    
C8    C9    D    
C8    C14   S    
C10   C17   A    
C3    C5    S    
C2    C20   A    
C12   C16   A    
C16   C17   A    
C5    H9    S    
C7    O9    A    
