data_mof_unit_25853.cif
_audit_creation_date              2012-12-11T15:55:41-0500
_audit_creation_method            fapswitch 2.2
_symmetry_space_group_name_H-M    P1
_symmetry_Int_Tables_number       1
_space_group_crystal_system       triclinic
_cell_length_a                    11.043206
_cell_length_b                    11.085185
_cell_length_c                    18.764122
_cell_angle_alpha                 90.655208
_cell_angle_beta                  90.914704
_cell_angle_gamma                 59.071755
_cell_volume                      1970.15264636

loop_
_atom_site_label
_atom_site_type_symbol
_atom_type_description
_atom_site_fract_x
_atom_site_fract_y
_atom_site_fract_z
_atom_type_partial_charge
C1    C     C_R   0.362201 0.761367 0.394300 0.540768
C2    C     C_R   0.639924 0.118797 0.170218 0.029060
C3    C     C_R   0.371100 0.330292 0.159666 0.004729
C4    C     C_R   0.482356 0.239666 0.273343 -0.151032
C5    C     C_R   0.493901 0.230070 0.199142 -0.021451
C6    C     C_R   0.055527 0.634674 0.353624 -0.088212
C7    C     C_R   0.919535 0.704283 0.380877 -0.121133
C8    C     C_R   0.668917 0.006180 0.122282 -0.081682
C9    C     C_R   0.806102 0.902192 0.104683 -0.136284
C10   C     C_R   0.258745 0.444398 0.195038 -0.163818
C11   C     C_R   0.243226 0.447138 0.269037 -0.041587
C12   C     C_R   0.384208 0.354746 0.387078 0.540291
C13   C     C_R   0.814008 0.694504 0.345558 -0.081244
C14   C     C_R   0.842103 0.625651 0.280297 -0.098144
C15   C     C_R   0.980990 0.544331 0.256988 -0.105064
C16   C     C_R   0.093746 0.540116 0.295832 0.004434
C17   C     C_R   0.361723 0.344024 0.309659 0.001024
C18   C     C_R   0.864999 0.332035 0.183467 0.023321
C19   C     C_R   0.959908 0.238090 0.233679 0.013465
C20   C     C_R   0.928976 0.250613 0.304418 -0.010356
C21   C     C_R   0.694791 0.440849 0.277471 -0.156761
C22   C     C_R   0.726503 0.427684 0.204507 -0.184313
C23   C     C_R   0.771914 0.381372 0.402060 0.549666
C24   C     C_3   0.112344 0.180215 0.247876 -0.276251
C25   C     C_3   0.077055 0.198186 0.327020 -0.292443
C26   C     C_R   0.802294 0.360268 0.327895 0.039555
C27   C     C_R   0.372172 0.815088 0.170346 0.002774
C28   C     C_R   0.457159 0.840081 0.217648 -0.010731
C29   C     C_R   0.448341 0.828739 0.290803 0.006973
C30   C     C_R   0.303083 0.730027 0.270728 -0.165565
C31   C     C_R   0.311280 0.741316 0.197331 -0.160736
C32   C     C_3   0.472314 0.964356 0.228955 -0.277054
C33   C     C_3   0.451900 0.958059 0.307610 -0.283818
C34   C     C_R   0.342803 0.771476 0.603623 0.549449
C35   C     C_R   0.361146 0.786061 0.318464 0.007744
C36   C     C_R   0.295782 0.303307 0.807173 0.014288
C37   C     C_R   0.403264 0.190988 0.769530 0.035881
C38   C     C_R   0.415270 0.196126 0.697506 0.022645
C39   C     C_R   0.195307 0.417833 0.693652 -0.166722
C40   C     C_R   0.183422 0.411473 0.767965 -0.165923
C41   C     C_3   0.558935 0.112225 0.782735 -0.258439
C42   C     C_3   0.573687 0.117254 0.703241 -0.263246
C43   C     C_R   0.320437 0.317093 0.659614 0.014548
C44   C     C_R   0.854791 0.315352 0.827590 0.005497
C45   C     C_R   0.368835 0.348886 0.594746 0.547676
C46   C     C_R   0.859370 0.421153 0.790653 0.047730
C47   C     C_R   0.852269 0.428773 0.718406 0.031155
C48   C     C_R   0.852914 0.210970 0.713109 -0.162672
C49   C     C_R   0.863491 0.202615 0.787967 -0.161402
C50   C     C_3   0.777617 0.576377 0.801494 -0.277219
C51   C     C_3   0.768443 0.586849 0.721267 -0.271031
C52   C     C_R   0.833978 0.332053 0.678621 0.014087
C53   C     C_R   0.293295 0.863025 0.821654 -0.017302
C54   C     C_R   0.184667 0.863590 0.783092 0.108841
C55   C     C_R   0.191748 0.850729 0.709877 -0.000629
C56   C     C_R   0.766710 0.375212 0.609181 0.545168
C57   C     C_R   0.401675 0.866004 0.709813 -0.169873
C58   C     C_R   0.397422 0.873580 0.783976 -0.166617
C59   C     C_3   0.128517 0.767595 0.790676 0.084432
C60   C     C_3   0.135775 0.753081 0.710331 -0.233026
C61   C     C_R   0.306422 0.840361 0.672740 0.003194
C62   C     C_R   0.910486 0.316192 0.111141 0.544337
C63   C     C_R   0.332597 0.295223 0.090667 0.540761
C64   C     C_R   0.310966 0.895540 0.104465 0.531852
C65   C     C_R   0.888233 0.306825 0.903029 0.542936
C66   C     C_R   0.291843 0.284634 0.883418 0.548477
C67   C     C_R   0.920220 0.898679 0.138287 -0.072613
C68   C     C_R   0.273610 0.898026 0.896836 0.541492
C69   C     C_R   0.897171 0.998859 0.189767 -0.078253
C70   C     C_R   0.759666 0.108134 0.204548 -0.105497
Cr1   Cr    Cr6+3 0.601740 0.606840 0.505840 0.998833
Cr2   Cr    Cr6+3 0.291500 0.601560 0.495070 0.986115
Cr3   Cr    Cr6+3 0.606780 0.291630 0.499130 1.004177
Cr4   Cr    Cr6+3 0.062440 0.063060 0.008240 1.044242
Cr5   Cr    Cr6+3 0.062950 0.375000 0.998920 1.001566
Cr6   Cr    Cr6+3 0.374550 0.061770 0.992470 0.994378
H1    H     H_    0.572192 0.160945 0.303595 0.145034
H2    H     H_    0.710842 0.741703 0.368384 0.139288
H3    H     H_    0.756358 0.634085 0.248372 0.133258
H4    H     H_    0.999441 0.486021 0.207960 0.138603
H5    H     H_    0.589827 0.517519 0.294821 0.137039
H6    H     H_    0.646508 0.494773 0.165987 0.126040
H7    H     H_    0.151539 0.247783 0.228314 0.138983
H8    H     H_    0.173702 0.068708 0.231145 0.152707
H9    H     H_    0.122368 0.096960 0.356114 0.138379
H10   H     H_    0.090983 0.280511 0.353629 0.154355
H11   H     H_    0.248340 0.680685 0.289757 0.140096
H12   H     H_    0.823611 0.818005 0.068511 0.104037
H13   H     H_    0.256139 0.706793 0.162436 0.123981
H14   H     H_    0.389459 0.060232 0.201722 0.157282
H15   H     H_    0.583170 0.932590 0.220907 0.145774
H16   H     H_    0.542870 0.943158 0.339991 0.130108
H17   H     H_    0.351186 0.045630 0.327427 0.143642
H18   H     H_    0.114243 0.507891 0.664672 0.123255
H19   H     H_    0.091497 0.493829 0.794686 0.123712
H20   H     H_    0.599825 0.004067 0.802831 0.144057
H21   H     H_    0.594952 0.174884 0.813318 0.144771
H22   H     H_    0.619331 0.182248 0.688962 0.166738
H23   H     H_    0.895348 0.768925 0.428283 0.096689
H24   H     H_    0.623135 0.012027 0.677316 0.129761
H25   H     H_    0.849999 0.128502 0.683146 0.135416
H26   H     H_    0.874330 0.111511 0.814522 0.199500
H27   H     H_    0.842292 0.616884 0.825760 0.134889
H28   H     H_    0.674097 0.613469 0.827103 0.135503
H29   H     H_    0.658950 0.630953 0.701136 0.169192
H30   H     H_    0.826852 0.634604 0.698931 0.127149
H31   H     H_    0.486841 0.866917 0.682506 0.125852
H32   H     H_    0.477512 0.884906 0.811766 0.142339
H33   H     H_    0.025724 0.814106 0.126764 0.114946
H34   H     H_    0.200399 0.669460 0.820637 0.114017
H35   H     H_    0.216656 0.645845 0.692821 0.131014
H36   H     H_    0.031136 0.798691 0.683172 0.149459
H37   H     H_    0.986364 0.989327 0.219375 0.128477
H38   H     H_    0.745827 0.180285 0.246716 0.128499
H39   H     H_    0.124827 0.663270 0.376544 0.184701
H40   H     H_    0.592266 0.979775 0.105390 0.170197
H41   H     H_    0.171170 0.523761 0.163607 0.123223
O1    O     O_R   0.748670 0.497520 0.427970 -0.518339
O2    O     O_R   0.300170 0.471020 0.567120 -0.509149
O3    O     O_R   0.491630 0.259030 0.574940 -0.522875
O4    O     O_R   0.718640 0.304340 0.577850 -0.511302
O5    O     O_3   0.500010 0.500010 0.500020 -0.249159
O6    O     O_R   0.186620 0.923750 0.087000 -0.526203
O7    O     O_R   0.957350 0.194160 0.084660 -0.485708
O8    O     O_R   0.935120 0.407280 0.085350 -0.534391
O9    O     O_R   0.203800 0.365060 0.067090 -0.508787
O10   O     O_R   0.417470 0.174910 0.067830 -0.538451
O11   O     O_R   0.375160 0.946380 0.070880 -0.517551
O12   O     O_R   0.476470 0.723930 0.429450 -0.503501
O13   O     O_R   0.160500 0.919670 0.926690 -0.479241
O14   O     O_R   0.933140 0.190380 0.936050 -0.494390
O15   O     O_R   0.909010 0.403210 0.925030 -0.522318
O16   O     O_R   0.179590 0.361290 0.918480 -0.506110
O17   O     O_R   0.391360 0.170840 0.907510 -0.519661
O18   O     O_R   0.350950 0.942600 0.922260 -0.517353
O19   O     O_3   0.166650 0.166610 0.999880 -0.253569
O20   O     O_R   0.264730 0.744140 0.416740 -0.554929
O21   O     O_R   0.309440 0.472410 0.418220 -0.522158
O22   O     O_R   0.501630 0.260530 0.414310 -0.527678
O23   O     O_R   0.727920 0.305730 0.428950 -0.505759
O24   O     O_R   0.738670 0.496020 0.588600 -0.522282
O25   O     O_R   0.467190 0.722540 0.578350 -0.508272
O26   O     O_R   0.254720 0.742640 0.577370 -0.522578
O27   O     O_3   0.989532 0.839842 0.815235 -0.709657
H42   H     H_    0.959332 0.769658 0.815948 0.309985

loop_
_geom_bond_atom_site_label_1
_geom_bond_atom_site_label_2
_ccdc_geom_bond_type
C44   C49   A    
Cr2   O26   S    
Cr4   O7    S    
C21   C26   A    
C50   H28   S    
C41   C42   S    
C54   C55   A    
Cr1   O5    S    
C19   C20   A    
C23   O1    A    
C62   O7    A    
Cr6   O19   S    
C53   C54   A    
C70   H38   S    
C69   H37   S    
C7    H23   S    
C30   C35   A    
C22   H6    S    
C21   C22   A    
C36   C37   A    
C24   H7    S    
C38   C42   S    
C1    O12   A    
C42   H22   S    
C9    H12   S    
C30   C31   A    
C36   C66   S    
C32   H15   S    
C20   C25   S    
C15   C16   A    
C29   C33   S    
C59   H34   S    
C18   C19   A    
C23   C26   S    
C4    H1    S    
C53   C68   S    
C36   C40   A    
C7    C13   A    
C66   O17   A    
C67   H33   S    
C32   H14   S    
C8    C9    A    
C31   H13   S    
Cr4   O19   S    
C12   C17   S    
C58   H32   S    
Cr1   O24   S    
C45   O2    A    
Cr2   O21   S    
Cr4   O6    S    
C59   C60   S    
Cr3   O3    S    
C13   C14   A    
C44   C65   S    
C65   O14   A    
Cr6   O18   S    
C44   C46   A    
C54   C59   S    
Cr4   O14   S    
C34   O26   A    
C27   C31   A    
C23   O23   A    
C28   C32   S    
C24   C25   S    
C10   C11   A    
C33   H16   S    
C49   H26   S    
Cr6   O17   S    
Cr5   O19   S    
C18   C62   S    
C39   C43   A    
Cr3   O22   S    
C64   O11   A    
C34   C61   S    
C33   H17   S    
Cr5   O8    S    
C9    C67   A    
C39   H18   S    
C37   C38   A    
C60   H36   S    
C42   H24   S    
Cr1   O12   S    
C66   O16   A    
C34   O25   A    
C11   C16   S    
C15   H4    S    
C48   C52   A    
C51   H29   S    
C25   H9    S    
C50   C51   S    
C12   O22   A    
C14   H3    S    
C68   O13   A    
C43   C45   S    
C47   C52   A    
Cr1   O25   S    
C56   O24   A    
C45   O3    A    
Cr2   O20   S    
C57   H31   S    
C21   H5    S    
C59   O27   S    
Cr3   O4    S    
Cr4   O13   S    
Cr6   O11   S    
C12   O21   A    
C2    C5    S    
C4    C17   A    
C40   H19   S    
C39   C40   A    
C65   O15   A    
C1    O20   A    
Cr5   O15   S    
C1    C35   S    
C46   C50   S    
C46   C47   A    
C28   C29   A    
Cr1   O1    S    
Cr2   O5    S    
C18   C22   A    
C68   O18   A    
C2    C8    A    
C4    C5    A    
C3    C5    A    
C11   C17   A    
C62   O8    A    
C47   C51   S    
C53   C58   A    
Cr5   O16   S    
C57   C61   A    
C6    C7    A    
Cr3   O23   S    
C3    C63   S    
C64   O6    A    
C29   C35   A    
C8    H40   S    
C10   H41   S    
O27   H42   S    
Cr5   O9    S    
C32   C33   S    
C19   C24   S    
C24   H8    S    
C38   C43   A    
C60   H35   S    
C2    C70   A    
C56   O4    A    
C57   C58   A    
C20   C26   A    
C51   H30   S    
C48   C49   A    
C48   H25   S    
C55   C61   A    
Cr2   O2    S    
C25   H10   S    
C41   H21   S    
C37   C41   S    
C69   C70   A    
C6    H39   S    
C63   O9    A    
C27   C64   S    
C13   H2    S    
C6    C16   A    
C41   H20   S    
C50   H27   S    
Cr3   O5    S    
C27   C28   A    
C3    C10   A    
Cr6   O10   S    
C14   C15   A    
C67   C69   A    
C30   H11   S    
C55   C60   S    
C63   O10   A    
C52   C56   S    
