data_mof_unit_53013.cif
_audit_creation_date              2012-12-10T17:47:43-0500
_audit_creation_method            fapswitch 2.2
_symmetry_space_group_name_H-M    P1
_symmetry_Int_Tables_number       1
_space_group_crystal_system       triclinic
_cell_length_a                    10.650365
_cell_length_b                    10.71881
_cell_length_c                    9.916866
_cell_angle_alpha                 89.885422
_cell_angle_beta                  90.130006
_cell_angle_gamma                 93.050963
_cell_volume                      1130.49230856

loop_
_atom_site_label
_atom_site_type_symbol
_atom_type_description
_atom_site_fract_x
_atom_site_fract_y
_atom_site_fract_z
_atom_type_partial_charge
C1    C     C_R   0.509137 0.260452 0.501232 0.944401
C2    C     C_3   0.878574 0.503140 0.502158 -0.028317
C3    C     C_3   0.933690 0.619778 0.424674 0.494082
C4    C     C_3   0.921362 0.382884 0.434169 -0.603641
C5    C     C_R   0.546457 0.113230 0.756780 -0.146664
C6    C     C_R   0.512815 0.052187 0.876710 -0.151270
C7    C     C_R   0.444669 0.938125 0.872444 -0.143768
C8    C     C_R   0.421707 0.879712 0.748768 -0.119614
C9    C     C_R   0.466711 0.935751 0.627246 0.116361
C10   C     C_R   0.511006 0.060633 0.630060 0.132158
C11   C     C_R   0.516216 0.126840 0.505613 -0.125658
C12   C     C_R   0.257932 0.502536 0.500472 0.953493
C13   C     C_R   0.506047 0.063499 0.382770 -0.156901
C14   C     C_R   0.489264 0.936146 0.381661 -0.185451
C15   C     C_R   0.473168 0.871301 0.503108 -0.130322
C16   C     C_R   0.333333 0.324720 0.132699 0.627977
C17   C     C_R   0.258939 0.239845 0.057652 -0.369296
C18   C     C_R   0.261788 0.241528 0.918743 -0.118961
C19   C     C_R   0.339437 0.331282 0.854452 -0.118163
C20   C     C_R   0.420197 0.416092 0.926095 0.087522
C21   C     C_R   0.419137 0.414845 0.070795 0.028243
C22   C     C_R   0.576000 0.580511 0.071582 -0.120385
C23   C     C_R   0.487827 0.738763 0.500480 0.880365
C24   C     C_R   0.575928 0.580456 0.928597 -0.094682
C25   C     C_R   0.742157 0.501555 0.500439 0.920959
C26   C     C_3   0.071003 0.510980 0.651880 -0.117160
C27   C     C_3   0.927581 0.506635 0.649927 -0.413372
C28   C     C_3   0.078016 0.618287 0.421099 -0.598073
C29   C     C_3   0.065439 0.383539 0.434613 0.529040
C30   C     C_3   0.121313 0.504746 0.502975 -0.129273
H1    H     H_    0.886610 0.377049 0.328248 0.154591
H2    H     H_    0.109136 0.611594 0.314347 0.169153
H3    H     H_    0.897502 0.619286 0.319248 0.094554
H4    H     H_    0.511869 0.112028 0.286814 0.167061
H5    H     H_    0.602690 0.199719 0.765469 0.156469
H6    H     H_    0.536892 0.094991 0.972801 0.132981
H7    H     H_    0.412836 0.893162 0.965008 0.146412
H8    H     H_    0.367540 0.791565 0.749422 0.182696
H9    H     H_    0.490595 0.888632 0.285347 0.164936
H10   H     H_    0.638197 0.646331 0.125288 0.145340
H11   H     H_    0.100005 0.426550 0.707408 0.217628
H12   H     H_    0.197224 0.171996 0.109685 0.190581
H13   H     H_    0.333874 0.332154 0.748025 0.256539
H14   H     H_    0.638073 0.646328 0.874905 0.149529
H15   H     H_    0.891268 0.421573 0.705209 0.180018
H16   H     H_    0.890881 0.588337 0.703800 0.212696
H17   H     H_    0.121553 0.707314 0.460993 0.218277
H18   H     H_    0.097886 0.379225 0.328279 0.138451
H19   H     H_    0.881161 0.298934 0.488415 0.232153
N1    N     N_R   0.498810 0.498800 0.142780 -0.107491
N2    N     N_R   0.498760 0.498720 0.857170 -0.107287
O1    O     O_R   0.500000 0.316780 0.614690 -0.668112
O2    O     O_R   0.499990 0.316750 0.385360 -0.552832
O3    O     O_R   0.314800 0.499990 0.614670 -0.632046
O4    O     O_R   0.314790 0.499970 0.385330 -0.562387
O5    O     O_R   0.500010 0.683250 0.614640 -0.625794
O6    O     O_R   0.500000 0.683220 0.385310 -0.621938
O7    O     O_R   0.685210 0.500030 0.614670 -0.631040
O8    O     O_R   0.685200 0.500010 0.385330 -0.644405
Zn1   Zn    Zn3+2 0.500010 0.500020 0.653130 0.963059
Zn2   Zn    Zn3+2 0.499990 0.499980 0.346870 0.999938
C31   C     C_2   0.120762 0.625325 0.729268 0.385937
H20   H     H_    0.102804 0.718484 0.693757 0.116204
O9    O     O_2   0.179518 0.613569 0.833998 -0.587100
F1    F     F_    0.313377 0.312945 0.264624 -0.635130
C32   C     C_2   0.183289 0.148021 0.842181 0.464460
H21   H     H_    0.117905 0.084127 0.895063 0.055172
O10   O     O_2   0.191995 0.139562 0.719861 -0.496655
F2    F     F_    0.897761 0.728527 0.485864 -0.663606
F3    F     F_    0.104626 0.278367 0.500739 -0.602640

loop_
_geom_bond_atom_site_label_1
_geom_bond_atom_site_label_2
_ccdc_geom_bond_type
C4    C29   S    
C32   O10   D    
C28   H17   S    
O6    Zn2   S    
C29   C30   S    
N2    Zn1   S    
C18   C32   S    
O1    Zn1   S    
C9    C10   A    
C2    C4    S    
C19   C20   A    
C1    C11   S    
C28   H2    S    
C4    H19   S    
C22   N1    A    
C22   H10   S    
C27   H15   S    
C24   N2    A    
C15   C23   S    
C17   C18   A    
C26   C31   S    
C23   O5    A    
O3    Zn1   S    
C13   C14   A    
C11   C13   A    
C26   C27   S    
C2    C27   S    
C8    H8    S    
O4    Zn2   S    
C27   H16   S    
C28   C30   S    
C21   N1    A    
C3    F2    S    
C6    H6    S    
C26   C30   S    
C6    C7    A    
C2    C3    S    
C7    H7    S    
C5    C6    A    
C24   H14   S    
C1    O1    A    
C22   C24   A    
O8    Zn2   S    
C4    H1    S    
C7    C8    A    
C25   O7    A    
C3    H3    S    
C29   H18   S    
O7    Zn1   S    
C12   O4    A    
C16   C17   A    
C5    H5    S    
C2    C25   S    
C5    C10   A    
C32   H21   S    
C20   C21   A    
C3    C28   S    
C31   O9    D    
C29   F3    S    
C10   C11   A    
C17   H12   S    
C23   O6    A    
N1    Zn2   S    
C1    O2    A    
C20   N2    A    
C18   C19   A    
C13   H4    S    
C16   F1    S    
C25   O8    A    
C12   C30   S    
C14   H9    S    
C14   C15   A    
C16   C21   A    
O2    Zn2   S    
C12   O3    A    
C31   H20   S    
O5    Zn1   S    
C26   H11   S    
C19   H13   S    
C8    C9    A    
C9    C15   A    
