data_mof_unit_44043.cif
_audit_creation_date              2012-12-10T17:22:09-0500
_audit_creation_method            fapswitch 2.2
_symmetry_space_group_name_H-M    P1
_symmetry_Int_Tables_number       1
_space_group_crystal_system       triclinic
_cell_length_a                    15.88269
_cell_length_b                    10.77858
_cell_length_c                    9.613675
_cell_angle_alpha                 90.056274
_cell_angle_beta                  90.087286
_cell_angle_gamma                 92.482454
_cell_volume                      1644.24503654

loop_
_atom_site_label
_atom_site_type_symbol
_atom_type_description
_atom_site_fract_x
_atom_site_fract_y
_atom_site_fract_z
_atom_type_partial_charge
C1    C     C_R   0.497139 0.262621 0.499968 0.786309
C2    C     C_3   0.946802 0.400987 0.602535 -0.387008
C3    C     C_3   0.917112 0.500645 0.499283 0.210767
C4    C     C_3   0.955366 0.628445 0.547918 -0.402825
C5    C     C_3   0.052811 0.629524 0.542720 -0.373087
C6    C     C_1   0.824802 0.501087 0.500066 -0.072325
C7    C     C_1   0.175230 0.499802 0.500764 -0.088970
C8    C     C_1   0.250762 0.499868 0.500015 -0.189030
C9    C     C_R   0.362266 0.120781 0.643836 -0.187815
C10   C     C_R   0.299327 0.051889 0.713902 -0.145624
C11   C     C_R   0.299470 0.922860 0.714194 -0.139126
C12   C     C_R   0.340383 0.499697 0.499980 0.804095
C13   C     C_R   0.362567 0.861906 0.644456 -0.172276
C14   C     C_R   0.427839 0.929822 0.574386 0.099510
C15   C     C_R   0.427687 0.061073 0.574132 0.097859
C16   C     C_R   0.491427 0.128443 0.499744 -0.099692
C17   C     C_R   0.551223 0.067284 0.422287 -0.193500
C18   C     C_R   0.551365 0.939288 0.422468 -0.210446
C19   C     C_R   0.491706 0.870531 0.500107 -0.086318
C20   C     C_R   0.611944 0.665047 0.144195 -0.120504
C21   C     C_R   0.666632 0.745694 0.072305 -0.183754
C22   C     C_R   0.666592 0.745750 0.928987 -0.190977
C23   C     C_R   0.497497 0.737087 0.500063 0.760368
C24   C     C_R   0.611870 0.665146 0.856624 -0.129433
C25   C     C_R   0.554919 0.581209 0.925458 0.208250
C26   C     C_R   0.554932 0.581154 0.074936 0.211204
C27   C     C_R   0.447748 0.422737 0.073611 -0.053907
C28   C     C_R   0.447760 0.422767 0.925832 -0.053971
C29   C     C_R   0.659622 0.500461 0.500048 0.804220
C30   C     C_3   0.044858 0.398650 0.604477 0.031477
C31   C     C_3   0.048972 0.468898 0.354080 -0.504371
C32   C     C_3   0.950931 0.468444 0.351612 -0.118985
C33   C     C_1   0.749267 0.500950 0.500234 -0.152021
C34   C     C_3   0.082924 0.499273 0.502297 0.310372
Cu1   Cu    Cu3+1 0.499990 0.499990 0.640660 0.930365
Cu2   Cu    Cu3+1 0.500010 0.500010 0.359340 0.942163
H1    H     H_    0.920118 0.307755 0.571651 0.137767
H2    H     H_    0.921513 0.420184 0.708066 0.200838
H3    H     H_    0.932166 0.704577 0.482097 0.150377
H4    H     H_    0.599281 0.119159 0.363883 0.153974
H5    H     H_    0.357881 0.220566 0.642727 0.136080
H6    H     H_    0.249597 0.098822 0.766635 0.130085
H7    H     H_    0.249841 0.869652 0.767151 0.130945
H8    H     H_    0.358420 0.761602 0.644007 0.152893
H9    H     H_    0.599534 0.893617 0.364181 0.134732
H10   H     H_    0.404888 0.359313 0.128449 0.137379
H11   H     H_    0.062951 0.305883 0.566248 0.142655
H12   H     H_    0.617381 0.672804 0.253810 0.187100
H13   H     H_    0.709424 0.808647 0.128567 0.141654
H14   H     H_    0.709369 0.808740 0.873108 0.146118
H15   H     H_    0.617240 0.672885 0.747006 0.194111
H16   H     H_    0.404907 0.359358 0.870597 0.133048
H17   H     H_    0.076937 0.537340 0.278561 0.172774
H18   H     H_    0.069788 0.376124 0.320810 0.160672
H19   H     H_    0.926964 0.372637 0.324642 0.158525
H20   H     H_    0.079503 0.659743 0.644817 0.169187
H21   H     H_    0.075990 0.699341 0.464900 0.158244
H22   H     H_    0.934903 0.647525 0.656268 0.180884
N1    N     N_R   0.500800 0.501210 0.147910 -0.198551
N2    N     N_R   0.500820 0.501290 0.852040 -0.197811
O1    O     O_R   0.499990 0.319640 0.618810 -0.575726
O2    O     O_R   0.500000 0.319660 0.381240 -0.573755
O3    O     O_R   0.379430 0.499990 0.618840 -0.588827
O4    O     O_R   0.379440 0.500020 0.381260 -0.569652
O5    O     O_R   0.500000 0.680340 0.618760 -0.603329
O6    O     O_R   0.500010 0.680360 0.381190 -0.592236
O7    O     O_R   0.620560 0.499980 0.618740 -0.587502
O8    O     O_R   0.620570 0.500010 0.381160 -0.581987
C35   C     C_3   0.078920 0.410962 0.754333 -0.884280
H23   H     H_    0.060791 0.499273 0.803006 0.248733
H24   H     H_    0.052534 0.332991 0.818528 0.235220
H25   H     H_    0.148591 0.406368 0.756311 0.235742
C36   C     C_2   0.920544 0.555172 0.240472 0.364785
H26   H     H_    0.940424 0.652744 0.241684 0.064617
O9    O     O_2   0.873877 0.516098 0.147813 -0.546481

loop_
_geom_bond_atom_site_label_1
_geom_bond_atom_site_label_2
_ccdc_geom_bond_type
C10   H6    S    
C11   C13   A    
C36   H26   S    
C5    H20   S    
Cu2   O4    S    
Cu1   Cu2   S    
C3    C6    S    
C1    O2    A    
C21   H13   S    
C7    C8    T    
C23   O6    A    
C12   O4    A    
Cu2   O6    S    
Cu1   O5    S    
C15   C16   A    
C29   C33   S    
C18   C19   A    
C35   H24   S    
C29   O7    A    
C16   C17   A    
C11   H7    S    
C25   N2    A    
C9    C10   A    
C32   H19   S    
C22   H14   S    
Cu2   N1    S    
C24   H15   S    
C13   C14   A    
C36   O9    D    
C3    C32   S    
Cu2   O2    S    
C28   N2    A    
C30   C34   S    
C30   H11   S    
C24   C25   A    
C32   C36   S    
C12   O3    A    
C25   C26   A    
Cu1   N2    S    
C17   H4    S    
C35   H25   S    
C19   C23   S    
C29   O8    A    
C2    H2    S    
C31   C32   S    
C4    H3    S    
Cu1   O7    S    
C8    C12   S    
C5    C34   S    
C17   C18   A    
C31   C34   S    
Cu1   O1    S    
C1    C16   S    
C31   H17   S    
C20   H12   S    
C27   H10   S    
C7    C34   S    
C22   C24   A    
C3    C4    S    
C18   H9    S    
C30   C35   S    
C26   N1    A    
C14   C19   A    
C4    C5    S    
C1    O1    A    
Cu2   O8    S    
C9    H5    S    
C6    C33   T    
C5    H21   S    
C2    C30   S    
C23   O5    A    
C2    C3    S    
C9    C15   A    
C27   N1    A    
C28   H16   S    
C2    H1    S    
C20   C26   A    
C31   H18   S    
C35   H23   S    
C10   C11   A    
C20   C21   A    
C4    H22   S    
C27   C28   A    
C14   C15   A    
Cu1   O3    S    
C21   C22   A    
C13   H8    S    
