data_mof_unit_55267.cif
_audit_creation_date              2012-10-26T20:40:19-0400
_audit_creation_method            fapswitch 2.2
_symmetry_space_group_name_H-M    P1
_symmetry_Int_Tables_number       1
_space_group_crystal_system       triclinic
_cell_length_a                    15.077675
_cell_length_b                    10.8521
_cell_length_c                    9.608266
_cell_angle_alpha                 91.121733
_cell_angle_beta                  90.349668
_cell_angle_gamma                 94.045513
_cell_volume                      1567.88514829

loop_
_atom_site_label
_atom_site_type_symbol
_atom_type_description
_atom_site_fract_x
_atom_site_fract_y
_atom_site_fract_z
_atom_type_partial_charge
C1    C     C_R   0.506195 0.263716 0.498816 0.534348
C2    C     C_R   0.184637 0.497507 0.372957 -0.138415
C3    C     C_R   0.231669 0.498509 0.499512 -0.012184
C4    C     C_R   0.328700 0.499372 0.499718 0.545447
C5    C     C_R   0.185756 0.498290 0.626239 -0.136143
C6    C     C_R   0.606009 0.141552 0.713898 -0.085424
C7    C     C_R   0.627966 0.088174 0.838704 -0.117247
C8    C     C_R   0.595853 0.968213 0.865624 -0.127044
C9    C     C_R   0.548443 0.898148 0.763123 -0.115144
C10   C     C_R   0.533762 0.945890 0.628965 0.030769
C11   C     C_R   0.552644 0.074014 0.612786 0.033834
C12   C     C_R   0.907347 0.494840 0.627818 0.013384
C13   C     C_R   0.516422 0.131409 0.496997 -0.004403
C14   C     C_R   0.480394 0.060403 0.385004 -0.151750
C15   C     C_R   0.475897 0.933089 0.389709 -0.127163
C16   C     C_R   0.499040 0.738178 0.502900 0.585337
C17   C     C_R   0.500819 0.873705 0.510510 0.015860
C18   C     C_R   0.648993 0.629875 0.137801 0.253842
C19   C     C_R   0.724185 0.659038 0.057430 -0.134345
C20   C     C_R   0.715172 0.669914 0.916330 -0.217610
C21   C     C_R   0.634363 0.635866 0.854452 -0.109306
C22   C     C_R   0.567169 0.566727 0.925688 0.109305
C23   C     C_R   0.952235 0.494165 0.246464 -0.130592
C24   C     C_R   0.569831 0.566214 0.075408 0.157020
C25   C     C_R   0.435352 0.437140 0.071905 -0.017776
C26   C     C_R   0.435768 0.436457 0.924224 -0.004022
C27   C     C_R   0.671178 0.498156 0.500312 0.574458
C28   C     C_R   0.814902 0.494360 0.627039 -0.148182
C29   C     C_R   0.767989 0.495332 0.500589 0.002094
C30   C     C_R   0.813849 0.493616 0.373985 -0.111840
C31   C     C_R   0.906198 0.494136 0.372824 0.012877
C32   C     C_R   0.953246 0.495074 0.500210 0.063293
C33   C     C_R   0.044756 0.495273 0.246195 -0.130002
C34   C     C_R   0.092133 0.496318 0.372281 0.013408
C35   C     C_R   0.046266 0.496130 0.499955 0.062691
C36   C     C_R   0.093314 0.497063 0.627368 0.012884
C37   C     C_R   0.047183 0.496747 0.753694 -0.130956
C38   C     C_R   0.954649 0.495594 0.753919 -0.131241
Cl1   Cl    Cl    0.657671 0.732991 0.281282 -0.618785
Cu1   Cu    Cu3+1 0.499990 0.499990 0.640660 0.920886
Cu2   Cu    Cu3+1 0.500010 0.500010 0.359340 0.987961
H1    H     H_    0.779693 0.493218 0.724941 0.130592
H2    H     H_    0.626854 0.666428 0.750734 0.198952
H3    H     H_    0.777900 0.491885 0.276010 0.135178
H4    H     H_    0.383175 0.383787 0.867624 0.117525
H5    H     H_    0.916710 0.493584 0.148025 0.101180
H6    H     H_    0.079232 0.495357 0.147548 0.101336
H7    H     H_    0.219842 0.497571 0.274851 0.121856
H8    H     H_    0.221795 0.499001 0.724283 0.123827
H9    H     H_    0.082656 0.497494 0.852175 0.101271
H10   H     H_    0.920113 0.495622 0.852544 0.103845
H11   H     H_    0.454139 0.103381 0.294146 0.133967
H12   H     H_    0.631851 0.235552 0.696976 0.140615
H13   H     H_    0.667185 0.141442 0.916494 0.120220
H14   H     H_    0.607764 0.928950 0.966238 0.148067
H15   H     H_    0.519833 0.810687 0.796555 0.149075
H16   H     H_    0.449786 0.880786 0.299451 0.145183
H17   H     H_    0.382458 0.385144 0.125251 0.109194
H18   H     H_    0.785684 0.697666 0.105064 0.160536
H19   H     H_    0.768814 0.713523 0.856298 0.137826
N1    N     N_R   0.500860 0.501210 0.147910 -0.241051
N2    N     N_R   0.500890 0.501290 0.852040 -0.247397
O1    O     O_R   0.499990 0.319640 0.618810 -0.506713
O2    O     O_R   0.500000 0.319660 0.381240 -0.509221
O3    O     O_R   0.370250 0.499960 0.618800 -0.509433
O4    O     O_R   0.370260 0.499980 0.381230 -0.515862
O5    O     O_R   0.500000 0.680340 0.618760 -0.544189
O6    O     O_R   0.500010 0.680360 0.381190 -0.434874
O7    O     O_R   0.629740 0.500020 0.618770 -0.537826
O8    O     O_R   0.629750 0.500040 0.381200 -0.463805

loop_
_geom_bond_atom_site_label_1
_geom_bond_atom_site_label_2
_ccdc_geom_bond_type
C18   Cl1   S    
C5    C36   A    
C14   H11   S    
C24   N1    A    
C16   O6    A    
C22   N2    A    
C11   C13   A    
C9    C10   A    
C19   C20   A    
C31   C32   A    
Cu2   O2    S    
Cu2   N1    S    
C30   C31   A    
C25   C26   A    
C30   H3    S    
Cu1   O7    S    
C2    C34   A    
C26   H4    S    
C14   C15   A    
C33   C34   A    
C26   N2    A    
Cu1   N2    S    
C7    C8    A    
C9    H15   S    
C25   N1    A    
C13   C14   A    
C12   C32   A    
C4    O4    A    
C37   H9    S    
C15   H16   S    
C5    H8    S    
C29   C30   A    
C27   O8    A    
C12   C28   A    
C18   C24   A    
C1    O1    A    
C8    H14   S    
C28   H1    S    
C36   C37   A    
C2    H7    S    
C37   C38   A    
C23   H5    S    
C2    C3    A    
C6    C7    A    
Cu1   O1    S    
Cu1   O3    S    
C12   C38   A    
C4    O3    A    
C33   H6    S    
C22   C24   A    
C6    H12   S    
C27   C29   S    
C25   H17   S    
C10   C17   A    
C16   O5    A    
C3    C4    S    
C28   C29   A    
C1    O2    A    
C3    C5    A    
C1    C13   S    
C20   C21   A    
C34   C35   A    
C10   C11   A    
C6    C11   A    
C15   C17   A    
C18   C19   A    
Cu2   O6    S    
Cu1   Cu2   S    
C38   H10   S    
Cu2   O4    S    
C7    H13   S    
C19   H18   S    
C20   H19   S    
C21   C22   A    
Cu2   O8    S    
C21   H2    S    
C32   C35   A    
C35   C36   A    
C16   C17   S    
C23   C31   A    
C8    C9    A    
C23   C33   A    
Cu1   O5    S    
C27   O7    A    
