data_mof_unit_23111.cif
_audit_creation_date              2012-12-10T18:02:05-0500
_audit_creation_method            fapswitch 2.2
_symmetry_space_group_name_H-M    P1
_symmetry_Int_Tables_number       1
_space_group_crystal_system       triclinic
_cell_length_a                    10.8199
_cell_length_b                    9.603893
_cell_length_c                    23.550289
_cell_angle_alpha                 90.392071
_cell_angle_beta                  92.357327
_cell_angle_gamma                 90.823856
_cell_volume                      2444.79358375

loop_
_atom_site_label
_atom_site_type_symbol
_atom_type_description
_atom_site_fract_x
_atom_site_fract_y
_atom_site_fract_z
_atom_type_partial_charge
C1    C     C_R   0.262780 0.498949 0.500328 0.848651
C2    C     C_R   0.737665 0.501106 0.499227 0.904481
C3    C     C_R   0.555731 0.381602 0.242022 0.491111
C4    C     C_R   0.451736 0.367261 0.757345 0.487305
C5    C     C_R   0.561645 0.393155 0.301292 -0.350285
C6    C     C_R   0.452870 0.376781 0.698135 -0.339489
C7    C     C_R   0.493312 0.494491 0.328838 -0.192162
C8    C     C_R   0.500379 0.496387 0.671903 -0.207624
C9    C     C_R   0.415667 0.583037 0.296415 0.428803
C10   C     C_R   0.548575 0.606660 0.706634 0.443197
C11   C     C_R   0.417991 0.579007 0.237133 -0.274756
C12   C     C_R   0.533253 0.603104 0.765226 -0.266016
C13   C     C_R   0.487541 0.478756 0.209629 0.190018
C14   C     C_R   0.487986 0.483304 0.791184 0.174782
C15   C     C_R   0.061722 0.403332 0.465204 0.274369
C16   C     C_R   0.941316 0.602962 0.530040 0.293517
C17   C     C_R   0.931480 0.401642 0.465728 0.264770
C18   C     C_R   0.068632 0.593102 0.535513 0.335658
C19   C     C_R   0.872013 0.503599 0.497500 -0.267015
C20   C     C_R   0.129171 0.496348 0.501458 -0.301776
C21   C     C_R   0.432106 0.074932 0.459705 0.443346
C22   C     C_R   0.567773 0.929885 0.540486 0.324536
C23   C     C_R   0.568514 0.078527 0.540018 0.447792
C24   C     C_R   0.432911 0.926133 0.459123 0.325408
C25   C     C_R   0.497659 0.499111 0.391196 0.852687
C26   C     C_R   0.501658 0.499951 0.609093 0.809731
C27   C     C_R   0.598521 0.489566 0.882950 0.516283
C28   C     C_R   0.377923 0.448268 0.118177 0.536906
C29   C     C_R   0.379241 0.455845 0.878617 0.630931
C30   C     C_R   0.595606 0.494482 0.121997 0.622641
C31   C     C_R   0.377832 0.447729 0.938022 -0.115106
C32   C     C_R   0.598591 0.487426 0.062701 -0.112372
C33   C     C_R   0.489540 0.463253 0.970387 -0.065854
C34   C     C_R   0.487919 0.462829 0.030449 -0.064933
C35   C     C_R   0.602431 0.481361 0.942838 -0.106401
C36   C     C_R   0.375675 0.440207 0.058116 -0.109144
C37   C     C_R   0.267095 0.423732 0.965469 -0.149166
C38   C     C_R   0.710363 0.503293 0.035313 -0.150091
C39   C     C_R   0.265418 0.414257 0.024514 0.413915
C40   C     C_R   0.714318 0.494680 0.976363 0.412557
Cu1   Cu    Cu3+1 0.500000 0.640660 0.500000 0.981555
Cu2   Cu    Cu3+1 0.500000 0.359340 0.500000 1.066983
H1    H     H_    0.180916 0.407813 0.941031 0.214429
H2    H     H_    0.796729 0.518013 0.059724 0.221264
H3    H     H_    0.618914 0.321769 0.325782 0.205151
H4    H     H_    0.418856 0.288632 0.672812 0.209984
H5    H     H_    0.362679 0.651508 0.212332 0.188359
H6    H     H_    0.565535 0.690417 0.791244 0.189802
N1    N     N_R   0.488364 0.476083 0.852304 -0.440668
N2    N     N_R   0.486863 0.473697 0.148524 -0.437202
N3    N     N_R   0.500000 0.852070 0.500000 -0.283103
N4    N     N_R   0.500000 0.147930 0.500000 -0.244912
O1    O     O_R   0.319640 0.618740 0.500000 -0.619448
O2    O     O_R   0.680360 0.381260 0.500000 -0.496589
O3    O     O_R   0.680360 0.618740 0.500000 -0.633298
O4    O     O_R   0.319640 0.381260 0.500000 -0.494710
O5    O     O_R   0.499960 0.618810 0.417880 -0.554598
O6    O     O_R   0.500040 0.381190 0.582120 -0.545955
O7    O     O_R   0.500040 0.618810 0.582120 -0.554996
O8    O     O_R   0.499960 0.381190 0.417880 -0.530397
O9    O     O_2   0.703372 0.512584 0.855295 -0.555577
O10   O     O_2   0.272535 0.433032 0.146266 -0.538272
O11   O     O_2   0.272066 0.445564 0.847359 -0.511454
O12   O     O_2   0.700586 0.523697 0.153043 -0.521091
O13   O     O_3   0.154349 0.379238 0.047422 -0.670226
H7    H     H_    0.170622 0.300785 0.073670 0.352092
O14   O     O_3   0.829237 0.499295 0.953459 -0.664802
H8    H     H_    0.833129 0.418309 0.927313 0.354909
O15   O     O_3   0.621064 0.279039 0.215432 -0.576733
C41   C     C_3   0.551965 0.153302 0.216631 0.036383
H9    H     H_    0.458325 0.166457 0.195858 0.150929
H10   H     H_    0.542054 0.118267 0.261271 0.160897
C42   C     C_3   0.619535 0.041019 0.184252 -0.302272
H11   H     H_    0.627872 0.073456 0.139320 0.227953
H12   H     H_    0.714173 0.028846 0.203631 0.238851
C43   C     C_3   0.550907 0.901124 0.185649 -0.881662
H13   H     H_    0.544135 0.865288 0.230195 0.272092
H14   H     H_    0.601960 0.822135 0.161585 0.274556
H15   H     H_    0.456376 0.910145 0.165864 0.253335
O16   O     O_3   0.412269 0.245057 0.781892 -0.574292
C44   C     C_3   0.517105 0.164201 0.795910 0.045094
H16   H     H_    0.587328 0.224943 0.822163 0.150192
H17   H     H_    0.560170 0.127177 0.756468 0.161531
C45   C     C_3   0.477249 0.037922 0.830159 -0.307386
H18   H     H_    0.424610 0.073332 0.867037 0.233712
H19   H     H_    0.415908 0.969027 0.802934 0.236638
C46   C     C_3   0.588927 0.955720 0.852037 -0.888784
H20   H     H_    0.645289 0.922544 0.816106 0.261732
H21   H     H_    0.557011 0.861790 0.874812 0.261391
H22   H     H_    0.647454 0.020603 0.882032 0.262097
O17   O     O_3   0.334732 0.671421 0.322074 -0.571454
C47   C     C_3   0.225192 0.596716 0.334732 0.064880
H23   H     H_    0.192904 0.636557 0.375830 0.164836
H24   H     H_    0.238661 0.482457 0.340589 0.145019
C48   C     C_3   0.123563 0.621664 0.288915 -0.358695
H25   H     H_    0.109540 0.735473 0.284118 0.238202
H26   H     H_    0.151968 0.578696 0.247615 0.249600
C49   C     C_3   0.001574 0.552387 0.304229 -0.818473
H27   H     H_    0.012401 0.437817 0.307132 0.259621
H28   H     H_    0.929264 0.574534 0.270810 0.282934
H29   H     H_    0.970829 0.593266 0.345503 0.245626
O18   O     O_3   0.615089 0.716803 0.685120 -0.569003
C50   C     C_3   0.738833 0.675876 0.676955 0.088934
H30   H     H_    0.785272 0.762655 0.655079 0.248085
H31   H     H_    0.742578 0.582665 0.648686 0.137093
C51   C     C_3   0.813510 0.651842 0.732909 -0.419061
H32   H     H_    0.799891 0.740044 0.762698 0.246254
H33   H     H_    0.781489 0.553876 0.752642 0.255026
C52   C     C_3   0.951286 0.638658 0.722609 -0.756614
H34   H     H_    0.966834 0.551176 0.692740 0.261396
H35   H     H_    0.002387 0.617960 0.763469 0.274480
H36   H     H_    0.988240 0.736647 0.704593 0.271946
O19   O     O_3   0.125299 0.319623 0.428734 -0.697317
H37   H     H_    0.071518 0.297337 0.394778 0.325279
O20   O     O_3   0.885569 0.705429 0.560164 -0.714838
H38   H     H_    0.856356 0.773619 0.531358 0.342153
O21   O     O_3   0.860509 0.304580 0.434876 -0.716998
H39   H     H_    0.907858 0.217456 0.432104 0.339548
O22   O     O_3   0.130481 0.681141 0.574080 -0.658285
H40   H     H_    0.207429 0.635913 0.588101 0.323528
O23   O     O_3   0.362098 0.149675 0.420519 -0.648575
H41   H     H_    0.313500 0.086143 0.394704 0.358128
O24   O     O_3   0.636637 0.868131 0.583014 -0.722112
H42   H     H_    0.657185 0.774934 0.570220 0.391891
O25   O     O_3   0.639643 0.156780 0.578846 -0.682159
H43   H     H_    0.686756 0.095718 0.605240 0.354091
O26   O     O_3   0.367009 0.860468 0.415466 -0.703683
H44   H     H_    0.335418 0.772233 0.429706 0.384028

loop_
_geom_bond_atom_site_label_1
_geom_bond_atom_site_label_2
_ccdc_geom_bond_type
C38   C40   A    
C46   H20   S    
C29   O11   S    
C30   O12   S    
C8    C26   S    
C42   H11   S    
C11   H5    S    
C48   H25   S    
C45   C46   S    
C12   H6    S    
C9    O17   S    
C44   H16   S    
C48   C49   S    
C22   O24   S    
C29   N1    A    
C3    O15   S    
C1    O4    A    
C43   H14   S    
C4    O16   S    
C2    O3    A    
C52   H35   S    
C33   C35   A    
C14   N1    S    
C51   H32   S    
O20   H38   S    
C15   C17   A    
Cu1   Cu2   S    
C1    O1    A    
Cu1   O3    S    
C27   O9    S    
Cu2   O4    S    
C28   N2    A    
C40   O14   S    
C24   O26   S    
C15   O19   S    
C41   H9    S    
C25   O8    A    
C32   C38   A    
C26   O7    A    
C18   C20   A    
C3    C13   A    
C17   O21   S    
C23   O25   S    
O24   H42   S    
C24   N3    A    
C30   N2    A    
C4    C14   A    
C39   O13   S    
Cu2   O6    S    
O18   C50   S    
C25   O5    A    
C44   H17   S    
C15   C20   A    
C31   C33   A    
O14   H8    S    
C10   O18   S    
C45   H18   S    
Cu1   O7    S    
C4    C6    A    
C2    O2    A    
C52   H36   S    
Cu2   O8    S    
O17   C47   S    
C5    C7    A    
C6    C8    A    
C27   C35   A    
C5    H3    S    
C47   C48   S    
C31   C37   A    
C32   C34   A    
C37   H1    S    
C38   H2    S    
C9    C11   A    
C29   C31   A    
C41   C42   S    
C47   H24   S    
C33   C34   A    
C50   H31   S    
C43   H13   S    
C26   O6    A    
Cu1   O1    S    
O23   H41   S    
C10   C12   A    
C16   C18   A    
C12   C14   A    
C49   H27   S    
C49   H28   S    
C46   H21   S    
O25   H43   S    
C42   C43   S    
C46   H22   S    
C42   H12   S    
O26   H44   S    
C16   O20   S    
C44   C45   S    
O19   H37   S    
C7    C9    A    
C1    C20   S    
C6    H4    S    
C2    C19   S    
C36   C39   A    
C45   H19   S    
O16   C44   S    
C3    C5    A    
O22   H40   S    
C48   H26   S    
C49   H29   S    
C7    C25   S    
C35   C40   A    
Cu1   O5    S    
C37   C39   A    
O21   H39   S    
Cu2   O2    S    
C30   C32   A    
C11   C13   A    
C23   N4    A    
C51   H33   S    
C16   C19   A    
C47   H23   S    
C17   C19   A    
C50   C51   S    
C34   C36   A    
C21   O23   S    
O15   C41   S    
C13   N2    S    
C43   H15   S    
C28   C36   A    
C8    C10   A    
O13   H7    S    
C21   C24   A    
C50   H30   S    
C22   C23   A    
C41   H10   S    
C52   H34   S    
C18   O22   S    
Cu1   N3    S    
C21   N4    A    
C27   N1    A    
Cu2   N4    S    
C22   N3    A    
C51   C52   S    
C28   O10   S    
