data_mof_unit_55212.cif
_audit_creation_date              2012-12-10T18:31:53-0500
_audit_creation_method            fapswitch 2.2
_symmetry_space_group_name_H-M    P1
_symmetry_Int_Tables_number       1
_space_group_crystal_system       triclinic
_cell_length_a                    10.695195
_cell_length_b                    14.98097
_cell_length_c                    15.493441
_cell_angle_alpha                 81.472302
_cell_angle_beta                  90.191312
_cell_angle_gamma                 103.634191
_cell_volume                      2384.51082975

loop_
_atom_site_label
_atom_site_type_symbol
_atom_type_description
_atom_site_fract_x
_atom_site_fract_y
_atom_site_fract_z
_atom_type_partial_charge
C1    C     C_R   0.483270 0.441067 0.662352 0.884629
C2    C     C_3   0.121438 0.500364 0.499507 0.078667
C3    C     C_3   0.068642 0.500553 0.404374 -0.110093
C4    C     C_3   0.102797 0.591418 0.531212 -0.119852
C5    C     C_R   0.489674 0.404643 0.755788 -0.169554
C6    C     C_R   0.542085 0.595427 0.245140 -0.057282
C7    C     C_R   0.560162 0.300032 0.871496 0.010061
C8    C     C_R   0.527445 0.320684 0.784427 0.059021
C9    C     C_R   0.476617 0.462618 0.816644 -0.095955
C10   C     C_R   0.534027 0.452114 0.898271 0.034454
C11   C     C_R   0.567288 0.366553 0.928116 0.057879
C12   C     C_R   0.741735 0.500627 0.500042 0.849601
C13   C     C_R   0.556096 0.522844 0.952246 0.085297
C14   C     C_R   0.579072 0.499257 0.041418 0.072022
C15   C     C_R   0.609190 0.413251 0.070328 -0.220591
C16   C     C_R   0.606805 0.349357 0.014036 -0.197767
C17   C     C_R   0.562804 0.617236 0.919286 -0.212204
C18   C     C_R   0.571236 0.683034 0.975057 -0.234258
C19   C     C_R   0.569290 0.655724 0.065137 0.171487
C20   C     C_R   0.571917 0.563017 0.098743 0.090005
C21   C     C_R   0.561719 0.718864 0.122316 -0.191905
C22   C     C_R   0.548302 0.688801 0.212246 -0.190964
C23   C     C_R   0.520282 0.558675 0.337966 0.846322
C24   C     C_R   0.556556 0.534277 0.188630 -0.264390
C25   C     C_R   0.675270 0.835984 0.647509 -0.355849
C26   C     C_R   0.655889 0.750645 0.618166 0.288998
C27   C     C_R   0.511138 0.794115 0.512783 -0.097567
C28   C     C_R   0.520003 0.879546 0.542995 -0.017432
C29   C     C_R   0.608236 0.901481 0.610165 0.107746
C30   C     C_R   0.449301 0.945300 0.506508 0.038842
C31   C     C_R   0.491370 0.038204 0.523586 0.032043
C32   C     C_R   0.570194 0.055260 0.595073 -0.279902
C33   C     C_R   0.627353 0.988283 0.638601 0.015776
C34   C     C_R   0.258245 0.500054 0.499390 0.852507
C35   C     C_R   0.334213 0.922642 0.458662 0.074101
C36   C     C_R   0.276615 0.992570 0.420919 -0.178088
C37   C     C_R   0.328940 0.085116 0.428394 0.104621
C38   C     C_R   0.441468 0.109790 0.475885 -0.025913
C39   C     C_R   0.266367 0.153102 0.392014 -0.307737
C40   C     C_R   0.314170 0.244211 0.405491 -0.012514
C41   C     C_R   0.497002 0.205988 0.474582 0.196382
C42   C     C_3   0.901798 0.418778 0.567248 -0.171221
C43   C     C_3   0.044375 0.415051 0.562685 -0.414933
C44   C     C_3   0.922092 0.490423 0.408218 -0.397120
C45   C     C_3   0.960973 0.596256 0.525154 -0.188396
C46   C     C_3   0.879008 0.502345 0.500496 0.018812
H1    H     H_    0.844122 0.352717 0.549402 0.149375
H2    H     H_    0.162705 0.650405 0.486029 0.154533
H3    H     H_    0.895793 0.542862 0.357192 0.161455
H4    H     H_    0.112818 0.569422 0.365112 0.144531
H5    H     H_    0.633960 0.285475 0.039251 0.155649
H6    H     H_    0.548128 0.462408 0.215482 0.165181
H7    H     H_    0.538914 0.737547 0.255522 0.155876
H8    H     H_    0.573785 0.754409 0.947779 0.157168
H9    H     H_    0.641415 0.395532 0.135361 0.147911
H10   H     H_    0.564947 0.641865 0.850113 0.155802
H11   H     H_    0.562051 0.790441 0.097371 0.144201
H12   H     H_    0.262179 0.296210 0.382426 0.137807
H13   H     H_    0.186996 0.973591 0.387608 0.162963
H14   H     H_    0.742416 0.850102 0.699058 0.156470
H15   H     H_    0.457486 0.776037 0.456722 0.130883
H16   H     H_    0.087454 0.412241 0.628281 0.175902
H17   H     H_    0.582364 0.119424 0.621170 0.155500
H18   H     H_    0.178167 0.135308 0.357080 0.151932
H19   H     H_    0.051228 0.349248 0.540269 0.168933
H20   H     H_    0.870584 0.420932 0.393238 0.205939
H21   H     H_    0.925167 0.606537 0.589358 0.155209
N1    N     N_R   0.573860 0.731700 0.552730 -0.093440
N2    N     N_R   0.426060 0.268290 0.447230 -0.096967
O1    O     O_R   0.462770 0.383110 0.605620 -0.628352
O2    O     O_R   0.510160 0.531900 0.639510 -0.579953
O3    O     O_R   0.661510 0.425600 0.483070 -0.614503
O4    O     O_R   0.708900 0.574390 0.516960 -0.597444
O5    O     O_R   0.489840 0.468100 0.360490 -0.619327
O6    O     O_R   0.537230 0.616890 0.394380 -0.619156
O7    O     O_R   0.291100 0.425610 0.483040 -0.641863
O8    O     O_R   0.338490 0.574400 0.516930 -0.606366
Zn1   Zn    Zn3+2 0.468350 0.400660 0.477370 0.932245
Zn2   Zn    Zn3+2 0.531650 0.599340 0.522630 0.972843
C47   C     C_1   0.593464 0.212082 0.900023 0.193402
N3    N     N_1   0.620020 0.141901 0.922633 -0.194637
N4    N     N_3   0.537085 0.256349 0.726339 -0.453762
H22   H     H_    0.447770 0.234106 0.698985 0.209379
H23   H     H_    0.606704 0.289976 0.677940 0.195863
C48   C     C_1   0.387611 0.522529 0.799240 0.190962
N5    N     N_1   0.316528 0.570060 0.785463 -0.198285
C49   C     C_1   0.860935 0.422689 0.657432 0.115561
N6    N     N_1   0.829434 0.426109 0.728011 -0.203591
C50   C     C_1   0.707307 0.011877 0.711319 0.152179
N7    N     N_1   0.771158 0.030872 0.769462 -0.190341
N8    N     N_3   0.631706 0.240951 0.485819 -0.436963
H24   H     H_    0.645614 0.255658 0.549060 0.168652
H25   H     H_    0.684444 0.193428 0.473454 0.172320
N9    N     N_3   0.722942 0.683219 0.656010 -0.394797
H26   H     H_    0.821574 0.713785 0.649168 0.154445
H27   H     H_    0.699228 0.667336 0.722741 0.164529
N10   N     N_3   0.256990 0.830116 0.462448 -0.470433
H28   H     H_    0.279980 0.801392 0.408912 0.171407
H29   H     H_    0.266585 0.790297 0.522235 0.193057
N11   N     N_3   0.098034 0.429355 0.357407 -0.455281
H30   H     H_    0.078223 0.364562 0.396832 0.200619
H31   H     H_    0.195075 0.447977 0.337215 0.196524
C51   C     C_1   0.949599 0.678563 0.461989 0.181308
N12   N     N_1   0.940658 0.742729 0.412813 -0.198259
N13   N     N_3   0.149708 0.600053 0.619782 -0.419967
H32   H     H_    0.086629 0.554228 0.666599 0.211164
H33   H     H_    0.151190 0.667041 0.632131 0.186219

loop_
_geom_bond_atom_site_label_1
_geom_bond_atom_site_label_2
_ccdc_geom_bond_type
C44   H3    S    
C24   H6    S    
C49   N6    T    
C26   N9    S    
O1    Zn1   S    
N13   H32   S    
C44   H20   S    
C19   C20   A    
C16   H5    S    
C36   H13   S    
O2    Zn2   S    
N10   H28   S    
C7    C8    A    
C48   N5    T    
C7    C11   A    
C39   H18   S    
N13   H33   S    
C1    O2    A    
C30   C35   A    
C8    N4    S    
C36   C37   A    
C19   C21   A    
O7    Zn1   S    
C34   O8    A    
C30   C31   A    
C15   C16   A    
C6    C22   A    
C29   C33   A    
C18   C19   A    
C42   C46   S    
O3    Zn1   S    
C27   N1    A    
C45   C51   S    
C9    C48   S    
C3    N11   S    
C20   C24   A    
C45   H21   S    
C25   H14   S    
C13   C14   A    
C27   H15   S    
C9    C10   A    
C2    C34   S    
N1    Zn2   S    
C12   O3    A    
C21   C22   A    
N2    Zn1   S    
N10   H29   S    
C3    H4    S    
C44   C46   S    
C22   H7    S    
C4    C45   S    
O8    Zn2   S    
C25   C29   A    
C3    C44   S    
C40   H12   S    
C40   N2    A    
C14   C20   A    
C38   C41   A    
C12   C46   S    
C39   C40   A    
C25   C26   A    
C45   C46   S    
C35   C36   A    
C15   H9    S    
C2    C4    S    
C5    C9    A    
C37   C38   A    
C33   C50   S    
N8    H25   S    
C11   C16   A    
C31   C32   A    
C2    C43   S    
C43   H19   S    
C6    C24   A    
N11   H31   S    
C17   C18   A    
O4    Zn2   S    
N9    H27   S    
C17   H10   S    
C41   N8    S    
N4    H23   S    
C1    C5    S    
C42   C43   S    
C23   O5    A    
N8    H24   S    
C41   N2    A    
C4    H2    S    
C4    N13   S    
C28   C29   A    
C32   H17   S    
C23   O6    A    
C47   N3    T    
C10   C13   A    
C5    C8    A    
C21   H11   S    
C1    O1    A    
C31   C38   A    
C13   C17   A    
C26   N1    A    
C32   C33   A    
C28   C30   A    
C2    C3    S    
C37   C39   A    
C35   N10   S    
C6    C23   S    
N11   H30   S    
C42   H1    S    
N9    H26   S    
C10   C11   A    
C18   H8    S    
N4    H22   S    
O5    Zn1   S    
C51   N12   T    
C14   C15   A    
C42   C49   S    
C50   N7    T    
C12   O4    A    
O6    Zn2   S    
C43   H16   S    
C34   O7    A    
C7    C47   S    
C27   C28   A    
