data_mof_unit_11407.cif
_audit_creation_date              2013-03-05T16:48:17-0500
_audit_creation_method            fapswitch 2.2
_symmetry_space_group_name_H-M    P1
_symmetry_Int_Tables_number       1
_space_group_crystal_system       monoclinic
_cell_length_a                    23.445503
_cell_length_b                    8.925699
_cell_length_c                    8.098857
_cell_angle_alpha                 89.974643
_cell_angle_beta                  90.0
_cell_angle_gamma                 90.0
_cell_volume                      1694.82741299

loop_
_atom_site_label
_atom_site_type_symbol
_atom_site_description
_atom_site_fract_x
_atom_site_fract_y
_atom_site_fract_z
_atom_type_partial_charge
O1    O     O_R   0.500000 0.285350 0.636850 -0.613129
O2    O     O_R   0.500000 0.714650 0.363150 -0.613129
O3    O     O_R   0.500000 0.714650 0.636850 -0.613427
O4    O     O_R   0.500000 0.285350 0.363150 -0.613427
C1    C     C_R   0.500000 0.217978 0.500023 0.946008
C2    C     C_R   0.500000 0.782022 0.499977 0.946008
O5    O     O_R   0.416160 0.500000 0.636910 -0.623278
O6    O     O_R   0.583840 0.500000 0.363090 -0.623282
O7    O     O_R   0.583840 0.500000 0.636910 -0.623282
O8    O     O_R   0.416160 0.500000 0.363090 -0.623278
C3    C     C_R   0.208168 0.500000 0.500000 0.319395
C4    C     C_R   0.791830 0.500000 0.500000 0.320118
C5    C     C_R   0.388974 0.500000 0.500000 0.872411
C6    C     C_R   0.611027 0.500000 0.500000 0.872402
Zn1   Zn    Zn3+2 0.500000 0.500000 0.682780 0.995975
Zn2   Zn    Zn3+2 0.500000 0.500000 0.317220 0.995976
C7    C     C_R   0.296832 0.507360 0.649917 -0.205985
C8    C     C_R   0.703174 0.505194 0.650058 -0.205721
C9    C     C_R   0.296832 0.492640 0.350083 -0.205985
C10   C     C_R   0.703174 0.494806 0.349942 -0.205721
C11   C     C_R   0.326780 0.500000 0.500000 -0.041415
C12   C     C_R   0.673223 0.500000 0.500000 -0.041432
C13   C     C_R   0.880600 0.631340 0.529591 0.505324
C14   C     C_R   0.119380 0.368646 0.470479 0.505238
C15   C     C_R   0.880600 0.368659 0.470409 0.505324
C16   C     C_R   0.119380 0.631354 0.529520 0.505238
N1    N     N_R   0.852445 0.500000 0.500000 -0.363441
N2    N     N_R   0.147543 0.500000 0.500000 -0.363321
C17   C     C_R   0.940146 0.365791 0.469725 -0.013110
C18   C     C_R   0.059834 0.634211 0.530248 -0.013042
C19   C     C_R   0.940146 0.634209 0.530275 -0.013110
C20   C     C_R   0.059834 0.365789 0.469752 -0.013042
C21   C     C_R   0.970033 0.500000 0.500000 -0.021075
C22   C     C_R   0.029947 0.500000 0.500000 -0.021079
C23   C     C_R   0.970305 0.232656 0.439862 -0.163056
C24   C     C_R   0.029674 0.767346 0.560116 -0.163032
C25   C     C_R   0.970305 0.767344 0.560138 -0.163056
C26   C     C_R   0.029674 0.232654 0.439883 -0.163032
C27   C     C_1   0.500000 0.065200 0.500033 -0.182455
C28   C     C_1   0.500000 0.934800 0.499967 -0.182455
C29   C     C_R   0.237630 0.507527 0.649669 -0.095612
C30   C     C_R   0.762376 0.505352 0.649810 -0.095908
C31   C     C_R   0.237630 0.492473 0.350331 -0.095612
C32   C     C_R   0.762376 0.494647 0.350190 -0.095908
N3    N     N_1   0.500000 0.500000 0.073640 -0.034935
N4    N     N_1   0.500000 0.500000 0.926360 -0.034935
O9    O     O_2   0.850913 0.758443 0.557367 -0.531488
O10   O     O_2   0.149059 0.241502 0.442857 -0.531639
O11   O     O_2   0.850913 0.241557 0.442633 -0.531488
O12   O     O_2   0.149059 0.758498 0.557142 -0.531639
H1    H     H_    0.948186 0.128299 0.416272 0.192468
H2    H     H_    0.051793 0.871706 0.583690 0.192487
H3    H     H_    0.948186 0.871701 0.583727 0.192468
H4    H     H_    0.051793 0.128294 0.416309 0.192487
H5    H     H_    0.214558 0.513161 0.765354 0.138519
H6    H     H_    0.785454 0.509291 0.765592 0.138124
H7    H     H_    0.214558 0.486839 0.234645 0.138519
H8    H     H_    0.785454 0.490708 0.234407 0.138124
H9    H     H_    0.319044 0.513206 0.766999 0.164362
H10   H     H_    0.680965 0.509280 0.767259 0.164314
H11   H     H_    0.319044 0.486794 0.233001 0.164362
H12   H     H_    0.680965 0.490720 0.232741 0.164314

loop_
_geom_bond_atom_site_label_1
_geom_bond_atom_site_label_2
_geom_bond_distance
_ccdc_geom_bond_type
Zn2   N3    1.972720 S    
O4    Zn2   1.951517 S    
C32   H8    1.083198 S    
C4    C30   1.396880 A    
O7    C6    1.278973 A    
C19   C21   1.409387 A    
C3    C31   1.396797 A    
O1    Zn1   1.951840 S    
C13   N1    1.366644 A    
C15   N1    1.366644 A    
O2    Zn2   1.951839 S    
C17   C23   1.403867 A    
C16   N2    1.366734 A    
C24   H2    1.083150 S    
C18   C24   1.403885 A    
O3    C2    1.260885 A    
C25   H3    1.083151 S    
C6    C12   1.458221 S    
C16   O12   1.349939 S    
C14   C20   1.396343 A    
C21   C22   1.404716 A    
O7    Zn1   2.000468 S    
C5    C11   1.458165 S    
C4    C32   1.396880 A    
O8    Zn2   2.000470 S    
N3    N4    1.192799 T    
C10   H12   1.083266 S    
O2    C2    1.261024 A    
C3    N2    1.421374 S    
C7    H9    1.083109 S    
O1    C1    1.261024 A    
O5    Zn1   2.000470 S    
C24   C25   1.391931 A    
C10   C32   1.388030 A    
C9    H11   1.083109 S    
C16   C18   1.396343 A    
C7    C29   1.388021 A    
C20   C26   1.403885 A    
C8    C30   1.388028 A    
C23   H1    1.083151 S    
C14   N2    1.366734 A    
C15   O11   1.349935 S    
C13   O9    1.349935 S    
C18   C22   1.409361 A    
C4    N1    1.421154 S    
C13   C19   1.396339 A    
C14   O10   1.349939 S    
C17   C21   1.409387 A    
O5    C5    1.278957 A    
C2    C28   1.363645 S    
O3    Zn1   1.951516 S    
C15   C17   1.396339 A    
O6    Zn2   2.000468 S    
C3    C29   1.396797 A    
C8    H10   1.083267 S    
C27   C28   1.163920 T    
C1    C27   1.363645 S    
C31   H7    1.083049 S    
C23   C26   1.391931 A    
C29   H5    1.083049 S    
O6    C6    1.278974 A    
C9    C31   1.388021 A    
Zn1   N4    1.972720 S    
C30   H6    1.083198 S    
C20   C22   1.409360 A    
C8    C12   1.404364 A    
C7    C11   1.404127 A    
C19   C25   1.403867 A    
C10   C12   1.404363 A    
O4    C1    1.260885 A    
C9    C11   1.404127 A    
O8    C5    1.278957 A    
C26   H4    1.083150 S    
