data_mof_unit_50021.cif
_audit_creation_date              2013-03-05T15:46:17-0500
_audit_creation_method            fapswitch 2.2
_symmetry_space_group_name_H-M    P1
_symmetry_Int_Tables_number       1
_space_group_crystal_system       triclinic
_cell_length_a                    17.552175
_cell_length_b                    24.5304
_cell_length_c                    14.992787
_cell_angle_alpha                 89.759557
_cell_angle_beta                  126.498653
_cell_angle_gamma                 90.631872
_cell_volume                      5188.9075365

loop_
_atom_site_label
_atom_site_type_symbol
_atom_site_description
_atom_site_fract_x
_atom_site_fract_y
_atom_site_fract_z
_atom_type_partial_charge
C1    C     C_R   0.845849 0.650289 0.907520 -0.044910
C2    C     C_R   0.153434 0.349326 0.091363 -0.094085
C3    C     C_R   0.152384 0.651632 0.093357 -0.055934
C4    C     C_R   0.851351 0.347568 0.907714 -0.093169
C5    C     C_R   0.313718 0.129774 0.905938 0.004098
C6    C     C_R   0.665423 0.854469 0.091167 -0.103909
C7    C     C_R   0.668557 0.144597 0.091430 0.028786
C8    C     C_R   0.311047 0.871736 0.905955 -0.069603
H1    H     H_    0.796874 0.662971 0.822048 0.141528
H2    H     H_    0.197715 0.334645 0.175870 0.108370
H3    H     H_    0.196765 0.663150 0.179490 0.128967
H4    H     H_    0.802494 0.334760 0.822071 0.111440
H5    H     H_    0.258541 0.140238 0.820671 0.127021
H6    H     H_    0.713103 0.839611 0.175171 0.110569
H7    H     H_    0.716956 0.159748 0.175299 0.126690
H8    H     H_    0.256762 0.862071 0.820259 0.119267
N1    N     N_R   0.892620 0.603790 0.941800 -0.052889
N2    N     N_R   0.107380 0.396210 0.058200 -0.042177
N3    N     N_R   0.107380 0.603790 0.058200 -0.055071
N4    N     N_R   0.892620 0.396210 0.941800 -0.039912
N5    N     N_R   0.392620 0.103790 0.941800 -0.039976
N6    N     N_R   0.607380 0.896210 0.058200 -0.046174
N7    N     N_R   0.607380 0.103790 0.058200 -0.057217
N8    N     N_R   0.392620 0.896210 0.941800 -0.055602
C9    C     C_R   0.951815 0.347589 0.091297 -0.125185
C10   C     C_R   0.056901 0.651528 0.909244 -0.079845
C11   C     C_R   0.060818 0.351956 0.905795 -0.140913
C12   C     C_R   0.944239 0.650212 0.092422 -0.135841
C13   C     C_R   0.402295 0.876181 0.091396 -0.141256
C14   C     C_R   0.576720 0.140179 0.904919 -0.055026
C15   C     C_R   0.573584 0.858500 0.904741 -0.136668
C16   C     C_R   0.409375 0.129477 0.093204 -0.002346
H9    H     H_    0.001315 0.331734 0.173620 0.110919
H10   H     H_    0.011528 0.665660 0.825217 0.148869
H11   H     H_    0.022404 0.338933 0.820775 0.110395
H12   H     H_    0.989014 0.666076 0.175472 0.188475
H13   H     H_    0.427378 0.872615 0.176166 0.093251
H14   H     H_    0.545304 0.150201 0.819775 0.138532
H15   H     H_    0.540544 0.847609 0.819583 0.110975
H16   H     H_    0.438872 0.139640 0.177878 0.127416
N9    N     N_R   0.952210 0.397600 0.057910 -0.049305
N10   N     N_R   0.047790 0.602400 0.942090 -0.044997
N11   N     N_R   0.047790 0.397600 0.942090 -0.047090
N12   N     N_R   0.952210 0.602400 0.057910 -0.056533
N13   N     N_R   0.452210 0.897600 0.057910 -0.054912
N14   N     N_R   0.547790 0.102400 0.942090 -0.044133
N15   N     N_R   0.547790 0.897600 0.942090 -0.050212
N16   N     N_R   0.452210 0.102400 0.057910 -0.032544
C17   C     C_R   0.992647 0.545864 0.261248 -0.050878
C18   C     C_R   0.949305 0.454143 0.695293 -0.062386
C19   C     C_R   0.949987 0.545625 0.695109 -0.049357
C20   C     C_R   0.989419 0.453772 0.258022 -0.030163
C21   C     C_R   0.550582 0.045347 0.305471 -0.096114
C22   C     C_R   0.453023 0.954462 0.696372 -0.042623
C23   C     C_R   0.452288 0.045592 0.696023 -0.081472
C24   C     C_R   0.550793 0.954451 0.305318 -0.077591
N17   N     N_R   0.026300 0.529110 0.206760 -0.040313
N18   N     N_R   0.973700 0.470890 0.793240 -0.084433
N19   N     N_R   0.973700 0.529110 0.793240 -0.044035
N20   N     N_R   0.026300 0.470890 0.206760 -0.088317
N21   N     N_R   0.526300 0.029110 0.206760 -0.048342
N22   N     N_R   0.473700 0.970890 0.793240 -0.088909
N23   N     N_R   0.473700 0.029110 0.793240 -0.048095
N24   N     N_R   0.526300 0.970890 0.206760 -0.086177
C25   C     C_R   0.732038 0.454043 0.714273 -0.101929
C26   C     C_R   0.267853 0.545694 0.245830 -0.088380
C27   C     C_R   0.267385 0.455109 0.245103 -0.112545
C28   C     C_R   0.732343 0.545310 0.714646 -0.041562
C29   C     C_R   0.237751 0.954028 0.702117 -0.094418
C30   C     C_R   0.767589 0.046030 0.245651 -0.100153
C31   C     C_R   0.767607 0.955862 0.243294 -0.099112
C32   C     C_R   0.237323 0.044584 0.701451 -0.047766
H17   H     H_    0.713969 0.412254 0.685733 0.143943
H18   H     H_    0.291298 0.587629 0.265982 0.147999
H19   H     H_    0.290252 0.413309 0.264609 0.152961
H20   H     H_    0.714646 0.587011 0.686412 0.161245
H21   H     H_    0.225137 0.912659 0.672289 0.150957
H22   H     H_    0.792360 0.087365 0.270562 0.152047
H23   H     H_    0.792732 0.914618 0.264457 0.149673
H24   H     H_    0.222371 0.086009 0.671102 0.160803
N25   N     N_R   0.818530 0.472270 0.792960 -0.071524
N26   N     N_R   0.181470 0.527730 0.207040 -0.054843
N27   N     N_R   0.181470 0.472270 0.207040 -0.068363
N28   N     N_R   0.818530 0.527730 0.792960 -0.053651
N29   N     N_R   0.318530 0.972270 0.792960 -0.069047
N30   N     N_R   0.681470 0.027730 0.207040 -0.053298
N31   N     N_R   0.681470 0.972270 0.207040 -0.072166
N32   N     N_R   0.318530 0.027730 0.792960 -0.057856
C33   C     C_R   0.877892 0.679587 0.001255 0.104668
C34   C     C_R   0.124845 0.321597 0.997110 0.024625
C35   C     C_R   0.119409 0.684004 0.001916 0.040027
C36   C     C_R   0.888616 0.316573 0.000660 -0.016890
C37   C     C_R   0.324054 0.146936 0.999762 -0.017049
C38   C     C_R   0.646807 0.832095 0.996350 0.042225
C39   C     C_R   0.651691 0.166067 0.996726 0.045750
C40   C     C_R   0.312380 0.860839 0.997943 0.081276
C41   C     C_R   0.963220 0.499754 0.286872 -0.072177
C42   C     C_R   0.935713 0.499871 0.634709 -0.087065
C43   C     C_R   0.562720 0.999778 0.366353 -0.044424
C44   C     C_R   0.442798 0.000263 0.636589 -0.077583
C45   C     C_R   0.676772 0.499480 0.665913 0.167915
C46   C     C_R   0.323075 0.500666 0.268781 0.216763
C47   C     C_R   0.185036 0.998730 0.645390 0.156825
C48   C     C_R   0.821868 0.001738 0.263675 0.205613
Ni1   Ni    Ni4+2 0.934150 0.565840 0.869060 0.288016
Ni2   Ni    Ni4+2 0.065850 0.434160 0.130940 0.205659
Ni3   Ni    Ni4+2 0.065850 0.565840 0.130940 0.290147
Ni4   Ni    Ni4+2 0.934150 0.434160 0.869060 0.206810
Ni5   Ni    Ni4+2 0.434150 0.065840 0.869060 0.307060
Ni6   Ni    Ni4+2 0.565850 0.934160 0.130940 0.208591
Ni7   Ni    Ni4+2 0.565850 0.065840 0.130940 0.315637
Ni8   Ni    Ni4+2 0.434150 0.934160 0.869060 0.205279
C49   C     C_3   0.511083 0.455168 0.513201 0.295620
C50   C     C_3   0.498869 0.545176 0.406391 0.304032
C51   C     C_3   0.497434 0.456489 0.402656 0.300096
C52   C     C_3   0.512474 0.543615 0.516872 0.294936
C53   C     C_3   0.018828 0.953209 0.490913 0.330853
C54   C     C_3   0.998880 0.047651 0.392240 0.306921
C55   C     C_3   0.997507 0.959658 0.376950 0.293807
C56   C     C_3   0.020339 0.041163 0.506317 0.275604
C57   C     C_3   0.435927 0.499182 0.473919 -0.404252
C58   C     C_3   0.575629 0.501046 0.447323 -0.379915
C59   C     C_3   0.945109 0.996196 0.463467 -0.390726
C60   C     C_3   0.075275 0.004819 0.421978 -0.368505
H25   H     H_    0.379132 0.498460 0.485738 0.206749
H26   H     H_    0.634255 0.501760 0.438724 0.195636
H27   H     H_    0.892898 0.993237 0.482514 0.217913
H28   H     H_    0.129496 0.008063 0.406261 0.198392
C61   C     C_3   0.422175 0.500669 0.360856 -0.182548
C62   C     C_3   0.587249 0.499552 0.558322 -0.177610
C63   C     C_3   0.923082 0.002493 0.346883 -0.184623
C64   C     C_3   0.094972 0.998078 0.537111 -0.187549
C65   C     C_R   0.813270 0.226208 0.944777 -0.067540
C66   C     C_R   0.204692 0.772617 0.100743 -0.068197
C67   C     C_R   0.170007 0.224962 0.042222 -0.077374
C68   C     C_R   0.809000 0.771127 0.948947 -0.052382
C69   C     C_R   0.151729 0.814802 0.898791 -0.117439
C70   C     C_R   0.731161 0.254543 0.054356 -0.079465
C71   C     C_R   0.719034 0.742358 0.050099 -0.069450
C72   C     C_R   0.274216 0.241922 0.955115 -0.071357
C73   C     C_R   0.108909 0.767238 0.900751 -0.218834
C74   C     C_R   0.797775 0.287721 0.061870 -0.167993
C75   C     C_R   0.783198 0.707862 0.056402 -0.143556
C76   C     C_R   0.218438 0.282473 0.949376 -0.178986
C77   C     C_R   0.748391 0.191657 0.940204 -0.119086
C78   C     C_R   0.257538 0.814850 0.098937 -0.253060
C79   C     C_R   0.223085 0.182940 0.043798 -0.122415
C80   C     C_R   0.745210 0.805920 0.943429 -0.175918
H29   H     H_    0.050298 0.749967 0.822811 0.128396
H30   H     H_    0.814490 0.326424 0.105047 0.150097
H31   H     H_    0.796179 0.668510 0.096259 0.155971
H32   H     H_    0.217987 0.321939 0.915858 0.132680
H33   H     H_    0.729918 0.153099 0.896295 0.155103
H34   H     H_    0.313819 0.833706 0.176473 0.128500
H35   H     H_    0.224974 0.143525 0.078113 0.165202
H36   H     H_    0.731224 0.845095 0.902672 0.133352
C81   C     C_R   0.141849 0.742370 0.001923 0.213501
C82   C     C_R   0.837112 0.274162 0.006598 0.071028
C83   C     C_R   0.826731 0.721894 0.005810 0.084007
C84   C     C_R   0.168717 0.274477 0.993933 0.057127
C85   C     C_R   0.708353 0.205936 0.994346 0.085433
C86   C     C_R   0.237738 0.832300 0.997991 0.155827
C87   C     C_R   0.273733 0.191449 0.000167 0.085593
C88   C     C_R   0.701764 0.791648 0.993941 0.063529
C89   C     C_R   0.025596 0.488676 0.565098 -0.105140
C90   C     C_R   0.864976 0.511284 0.350086 -0.115037
C91   C     C_R   0.032955 0.488854 0.479577 -0.128467
C92   C     C_R   0.857684 0.511475 0.436802 -0.125073
C93   C     C_R   0.567243 0.012669 0.613938 -0.164269
C94   C     C_R   0.437886 0.988524 0.388638 -0.160140
C95   C     C_R   0.598489 0.011828 0.548672 -0.121360
C96   C     C_R   0.406542 0.989690 0.453748 -0.069573
H37   H     H_    0.087681 0.480300 0.648588 0.130869
H38   H     H_    0.803739 0.520146 0.266478 0.147317
H39   H     H_    0.100793 0.480743 0.495847 0.126009
H40   H     H_    0.790730 0.520418 0.422053 0.138277
H41   H     H_    0.617189 0.021594 0.701766 0.143212
H42   H     H_    0.387928 0.979540 0.300832 0.132213
H43   H     H_    0.672137 0.020608 0.584576 0.147795
H44   H     H_    0.332783 0.981168 0.417703 0.147096
C97   C     C_R   0.952514 0.499487 0.372938 0.137807
C98   C     C_R   0.938288 0.499809 0.542885 0.152273
C99   C     C_R   0.533663 0.999365 0.436834 0.154725
C100  C     C_R   0.471635 0.001409 0.565902 0.133649
C101  C     C_2   0.019184 0.597781 0.322357 0.464519
H45   H     H_    0.976521 0.613668 0.346647 0.034892
O1    O     O_2   0.092287 0.621497 0.351896 -0.546085
C102  C     C_2   0.906082 0.400445 0.646711 0.563044
H46   H     H_    0.883736 0.374421 0.686017 -0.020553
O2    O     O_2   0.892303 0.385371 0.560679 -0.517841
C103  C     C_2   0.907773 0.598647 0.644177 0.464837
H47   H     H_    0.908440 0.613549 0.576412 0.040419
O3    O     O_2   0.866432 0.624496 0.672524 -0.584525
C104  C     C_2   0.003785 0.399222 0.306654 0.510543
H48   H     H_    0.064987 0.375776 0.329723 0.003112
O4    O     O_2   0.949079 0.380738 0.324338 -0.538558
C105  C     C_2   0.593473 0.098808 0.356195 0.495581
H49   H     H_    0.608331 0.109623 0.435260 0.037718
O5    O     O_2   0.615955 0.130468 0.312293 -0.557727
C106  C     C_2   0.410810 0.900754 0.646646 0.539043
H50   H     H_    0.389744 0.873708 0.686024 -0.002092
O6    O     O_2   0.397420 0.886456 0.560454 -0.544977
C107  C     C_2   0.407967 0.097990 0.642839 0.474658
H51   H     H_    0.398635 0.109623 0.567013 0.044236
O7    O     O_2   0.377379 0.127445 0.680038 -0.572912
C108  C     C_2   0.589715 0.900201 0.352457 0.555811
H52   H     H_    0.595531 0.870171 0.303919 0.001631
O8    O     O_2   0.616770 0.888715 0.446327 -0.536750
N33   N     N_R   0.517451 0.406859 0.574149 0.241388
O9    O     O_R   0.507988 0.358420 0.533646 -0.352405
O10   O     O_R   0.528761 0.412211 0.667628 -0.361656
N34   N     N_R   0.495423 0.594015 0.348429 0.262011
O11   O     O_R   0.567465 0.627512 0.397348 -0.324626
O12   O     O_R   0.427162 0.600480 0.243701 -0.392727
N35   N     N_R   0.492290 0.409270 0.340500 0.264368
O13   O     O_R   0.563318 0.376009 0.386284 -0.324196
O14   O     O_R   0.423266 0.404081 0.235547 -0.383789
N36   N     N_R   0.520194 0.590286 0.581763 0.242174
O15   O     O_R   0.512090 0.639630 0.545296 -0.345585
O16   O     O_R   0.531305 0.582519 0.674693 -0.364490
N37   N     N_R   0.022216 0.900529 0.538230 0.249391
O17   O     O_R   0.076248 0.862308 0.545227 -0.393341
O18   O     O_R   0.956657 0.887946 0.550303 -0.386221
N38   N     N_R   0.990573 0.099005 0.337938 0.266802
O19   O     O_R   0.061961 0.132958 0.385889 -0.320452
O20   O     O_R   0.918275 0.107561 0.235810 -0.398106
N39   N     N_R   0.986784 0.915182 0.305943 0.261034
O21   O     O_R   0.057252 0.882644 0.340609 -0.311582
O22   O     O_R   0.910931 0.911052 0.204258 -0.392543
N40   N     N_R   0.030623 0.084980 0.578356 0.240606
O23   O     O_R   0.020638 0.135557 0.547272 -0.343033
O24   O     O_R   0.045119 0.073318 0.672011 -0.365493
C109  C     C_2   0.855565 0.212120 0.886584 0.593358
H53   H     H_    0.908043 0.238759 0.892253 -0.026294
O25   O     O_2   0.832414 0.170402 0.831590 -0.554153
C110  C     C_2   0.212478 0.765022 0.203730 0.546188
H54   H     H_    0.278393 0.774894 0.283548 0.056980
O26   O     O_2   0.143471 0.751246 0.199857 -0.530520
C111  C     C_2   0.115568 0.216639 0.088246 0.563328
H55   H     H_    0.071098 0.248657 0.083290 -0.020791
O27   O     O_2   0.119379 0.173648 0.132051 -0.535990
C112  C     C_2   0.855797 0.788300 0.896973 0.579337
H56   H     H_    0.830953 0.824174 0.844455 0.032241
O28   O     O_2   0.923373 0.763885 0.913682 -0.576112
C113  C     C_2   0.101843 0.845547 0.793961 0.568851
H57   H     H_    0.054330 0.824195 0.715833 0.091349
O29   O     O_2   0.109119 0.895140 0.794301 -0.530742
C114  C     C_2   0.685466 0.273729 0.105977 0.562998
H58   H     H_    0.719604 0.305443 0.168987 0.060665
O30   O     O_2   0.608192 0.256404 0.076203 -0.504166
C115  C     C_2   0.668089 0.725556 0.097440 0.555808
H59   H     H_    0.608595 0.748850 0.080327 0.014271
O31   O     O_2   0.691531 0.685059 0.155632 -0.555151
C116  C     C_2   0.333886 0.255562 0.917668 0.594121
H60   H     H_    0.313196 0.288536 0.859072 0.019343
O32   O     O_2   0.408531 0.232533 0.955334 -0.509418

loop_
_geom_bond_atom_site_label_1
_geom_bond_atom_site_label_2
_geom_bond_distance
_ccdc_geom_bond_type
C104  O4    1.220715 D    
C31   C48   1.378378 A    
C49   C57   1.534478 S    
C27   N27   1.328591 A    
C94   C99   1.402008 A    
C2    N2    1.326990 A    
C17   C101  1.472179 S    
C16   N16   1.331795 A    
C26   C46   1.378971 A    
C29   H21   1.076995 S    
C111  H55   1.084280 S    
C8    C40   1.390229 A    
C46   C61   1.440404 S    
C25   C45   1.374546 A    
C107  H51   1.085105 S    
N29   Ni8   1.890121 S    
C18   C102  1.473041 S    
N38   O19   1.300373 A    
C31   H23   1.076767 S    
N4    N9    1.399740 A    
N36   O15   1.299998 A    
C28   N28   1.322954 A    
C55   N39   1.458061 S    
C115  H59   1.084432 S    
N31   Ni6   1.872637 S    
C55   C60   1.556578 S    
C21   C43   1.376034 A    
C72   C87   1.410251 A    
C107  O7    1.220465 D    
C14   H14   1.075665 S    
C53   N37   1.456224 S    
N19   Ni1   1.883359 S    
C77   C85   1.400672 A    
C94   H42   1.084186 S    
N8    N13   1.399740 A    
C95   C99   1.388048 A    
C71   C88   1.399526 A    
C53   C55   1.524074 S    
C56   C64   1.534008 S    
C69   C86   1.412566 A    
C108  O8    1.220720 D    
C101  O1    1.220929 D    
C30   H22   1.075611 S    
C76   C84   1.391049 A    
C37   C87   1.414280 S    
C89   H37   1.084744 S    
N15   Ni8   1.847933 S    
C6    N6    1.323019 A    
C20   C41   1.386705 A    
C17   N17   1.329434 A    
C110  H54   1.085576 S    
C60   C64   1.554169 S    
C11   C34   1.368017 A    
C3    C35   1.379196 A    
C65   C82   1.398163 A    
C22   C106  1.473133 S    
C50   N34   1.457565 S    
C105  O5    1.220670 D    
C53   C64   1.532998 S    
C36   C82   1.407739 S    
C116  O32   1.219863 D    
C54   C63   1.535275 S    
C20   N20   1.330126 A    
N33   O10   1.300342 A    
C68   C83   1.402223 A    
C71   C75   1.373711 A    
C10   H10   1.072568 S    
C102  O2    1.220604 D    
C67   C111  1.486496 S    
C106  H50   1.084639 S    
C6    C38   1.370711 A    
C48   C63   1.440730 S    
C23   N23   1.332633 A    
C23   C44   1.373264 A    
C55   C63   1.529559 S    
C24   N24   1.331926 A    
C3    N3    1.329852 A    
C12   C33   1.363946 A    
N11   Ni4   1.847933 S    
C4    H4    1.081843 S    
C79   H35   1.084819 S    
C109  H53   1.084765 S    
C43   C99   1.420494 S    
N3    N10   1.399740 A    
C60   H28   1.110202 S    
N5    N16   1.399946 A    
C77   H33   1.085190 S    
C45   C62   1.433838 S    
C96   H44   1.083743 S    
C19   C42   1.369285 A    
C7    H7    1.080341 S    
N6    N15   1.399946 A    
C30   N30   1.329566 A    
N25   Ni4   1.890121 S    
C8    H8    1.075226 S    
N7    N14   1.399740 A    
C15   N15   1.324455 A    
C113  H57   1.084123 S    
C90   C92   1.380119 A    
C93   C95   1.377508 A    
C22   C44   1.379319 A    
N40   O23   1.299985 A    
C90   C97   1.394507 A    
C21   N21   1.334701 A    
C4    N4    1.324877 A    
C74   C82   1.400738 A    
C5    C37   1.374257 A    
C93   H41   1.084119 S    
C32   N32   1.329203 A    
C114  O30   1.219890 D    
C33   C83   1.407916 S    
C19   N19   1.331243 A    
C29   C47   1.363921 A    
C34   C84   1.412451 S    
C66   C78   1.393834 A    
C90   H38   1.083478 S    
N18   Ni4   1.871432 S    
C18   C42   1.371045 A    
C49   C62   1.525933 S    
C54   N38   1.457826 S    
C103  H47   1.084872 S    
C80   C88   1.398750 A    
C1    H1    1.081659 S    
C28   C45   1.372587 A    
N33   O9    1.299985 A    
C52   C57   1.533670 S    
C25   H17   1.081462 S    
C56   N40   1.458745 S    
C112  O28   1.220343 D    
N13   Ni6   1.830965 S    
N17   N20   1.428157 A    
C54   C60   1.554566 S    
C22   N22   1.333419 A    
C51   N35   1.457724 S    
C11   H11   1.075982 S    
N18   N19   1.428157 A    
C72   C116  1.488030 S    
C59   C63   1.556817 S    
C12   N12   1.325792 A    
C32   C47   1.371677 A    
C13   N13   1.344082 A    
C102  H46   1.083943 S    
C5    N5    1.320656 A    
C18   N18   1.327314 A    
C58   H26   1.110502 S    
N21   N24   1.428157 A    
N35   O13   1.300329 A    
C103  O3    1.220032 D    
C93   C100  1.401721 A    
C57   H25   1.111399 S    
C14   C39   1.365170 A    
C29   N29   1.326426 A    
N1    Ni1   1.885877 S    
C26   N26   1.330323 A    
N37   O17   1.299952 A    
N6    Ni6   1.885877 S    
C96   C100  1.388099 A    
C65   C77   1.380649 A    
N24   Ni6   1.883360 S    
N39   O21   1.300226 A    
C78   H34   1.081443 S    
C23   C107  1.472624 S    
N12   Ni3   1.847934 S    
N22   N23   1.428157 A    
C112  H56   1.085704 S    
C24   C108  1.474776 S    
C111  O27   1.221249 D    
C65   C109  1.486756 S    
N26   Ni3   1.890120 S    
N34   O11   1.300341 A    
N40   O24   1.300549 A    
C109  O25   1.221297 D    
C68   C80   1.378106 A    
C40   C86   1.478998 S    
C78   C86   1.402406 A    
C31   N31   1.333128 A    
N32   Ni5   1.872638 S    
C73   C81   1.401419 A    
N17   Ni3   1.871433 S    
C115  O31   1.221500 D    
N34   O12   1.300091 A    
C67   C79   1.387775 A    
C113  O29   1.221526 D    
C4    C36   1.365857 A    
C70   C74   1.365744 A    
C50   C61   1.533219 S    
N9    Ni2   1.830965 S    
C58   C62   1.551879 S    
C27   H19   1.079318 S    
C89   C98   1.391129 A    
C70   C114  1.487805 S    
C9    N9    1.324554 A    
C20   C104  1.471848 S    
C2    H2    1.081636 S    
C52   C62   1.527224 S    
C38   C88   1.406790 S    
C59   H27   1.111907 S    
N25   N28   1.360458 A    
C19   C103  1.470936 S    
C114  H58   1.085916 S    
N30   N31   1.360458 A    
C91   H39   1.084500 S    
C51   C61   1.534021 S    
N29   N32   1.360458 A    
N5    Ni5   1.885877 S    
C92   H40   1.083623 S    
C69   C73   1.390586 A    
C9    C36   1.361176 A    
C1    C33   1.366426 A    
C67   C84   1.404887 A    
C26   H18   1.078955 S    
C47   C64   1.442721 S    
C108  H52   1.084976 S    
C5    H5    1.080737 S    
C14   N14   1.322563 A    
C71   C115  1.489180 S    
C72   C76   1.369662 A    
C57   C61   1.563954 S    
C2    C34   1.366887 A    
N38   O20   1.300229 A    
C13   C40   1.398673 A    
C50   C52   1.526878 S    
C7    C39   1.370476 A    
C56   C59   1.528976 S    
C41   C97   1.410238 S    
N20   Ni2   1.883360 S    
C42   C98   1.404062 S    
C28   H20   1.081238 S    
C15   C38   1.367026 A    
N7    Ni7   1.873381 S    
N16   Ni7   1.847934 S    
C73   H29   1.080638 S    
C92   C98   1.393341 A    
N27   Ni2   1.872637 S    
C68   C112  1.486738 S    
N36   O16   1.300348 A    
N37   O18   1.300622 A    
C21   C105  1.473234 S    
C95   H43   1.083610 S    
C116  H60   1.085800 S    
C39   C85   1.402627 S    
N30   Ni7   1.890120 S    
C10   C35   1.394790 A    
N1    N12   1.399946 A    
C49   N33   1.457437 S    
C6    H6    1.080952 S    
C32   H24   1.080956 S    
N39   O22   1.300304 A    
C79   C87   1.395822 A    
N2    N11   1.399946 A    
C104  H48   1.083680 S    
C74   H30   1.086085 S    
C101  H45   1.085030 S    
C91   C97   1.391745 A    
C94   C96   1.376909 A    
N2    Ni2   1.885877 S    
N21   Ni7   1.871433 S    
C7    N7    1.321877 A    
N28   Ni1   1.872638 S    
C75   H31   1.085753 S    
C8    N8    1.329525 A    
C110  O26   1.221523 D    
C16   C37   1.379158 A    
C70   C85   1.400502 A    
C30   C48   1.369400 A    
C75   C83   1.399700 A    
C16   H16   1.076924 S    
C10   N10   1.343455 A    
C53   C59   1.532507 S    
C105  H49   1.084865 S    
C44   C100  1.420465 S    
N10   Ni1   1.830964 S    
C54   C56   1.524837 S    
N8    Ni8   1.873381 S    
C35   C81   1.480731 S    
N35   O14   1.300162 A    
C3    H3    1.075084 S    
C17   C41   1.383230 A    
C50   C58   1.551356 S    
C11   N11   1.326970 A    
C66   C81   1.417522 A    
N22   Ni8   1.871432 S    
C1    N1    1.323991 A    
C12   H12   1.073632 S    
C89   C91   1.362971 A    
N26   N27   1.360458 A    
N14   Ni5   1.830964 S    
C13   H13   1.072875 S    
C15   H15   1.075368 S    
C66   C110  1.478058 S    
C25   N25   1.324870 A    
C80   H36   1.085805 S    
C24   C43   1.375873 A    
C49   C51   1.527312 S    
C69   C113  1.474176 S    
C52   N36   1.457643 S    
C51   C58   1.551280 S    
C106  O6    1.220198 D    
C76   H32   1.086811 S    
C27   C46   1.377251 A    
C9    H9    1.075751 S    
N23   Ni5   1.883359 S    
N4    Ni4   1.873381 S    
N3    Ni3   1.873381 S    
