data_mof_unit_67103.cif
_audit_creation_date              2012-12-11T17:44:24-0500
_audit_creation_method            fapswitch 2.2
_symmetry_space_group_name_H-M    P1
_symmetry_Int_Tables_number       1
_space_group_crystal_system       triclinic
_cell_length_a                    8.201915
_cell_length_b                    12.694297
_cell_length_c                    14.930023
_cell_angle_alpha                 96.525298
_cell_angle_beta                  97.460409
_cell_angle_gamma                 98.971622
_cell_volume                      1508.16816482

loop_
_atom_site_label
_atom_site_type_symbol
_atom_type_description
_atom_site_fract_x
_atom_site_fract_y
_atom_site_fract_z
_atom_type_partial_charge
Ba1   Ba    Ba6+2 0.843760 0.550230 0.455610 1.668821
Ba2   Ba    Ba6+2 0.346080 0.449860 0.544400 1.651850
C1    C     C_3   0.569172 0.916558 0.173766 -0.410886
C2    C     C_R   0.110745 0.468011 0.206796 0.071731
C3    C     C_R   0.918207 0.482406 0.768198 -0.257595
C4    C     C_3   0.159471 0.884451 0.225162 0.308692
C5    C     C_R   0.820967 0.438902 0.828976 0.016224
C6    C     C_R   0.886738 0.444797 0.920799 -0.161124
C7    C     C_R   0.053701 0.495170 0.954210 0.009950
C8    C     C_R   0.150723 0.542761 0.891153 -0.019186
C9    C     C_R   0.126021 0.502172 0.048447 0.013955
C10   C     C_R   0.293994 0.556325 0.077466 -0.021760
C11   C     C_R   0.383916 0.602822 0.014022 -0.108558
C12   C     C_3   0.589768 0.827076 0.231818 0.391244
C13   C     C_R   0.312874 0.597956 0.923869 -0.051855
C14   C     C_R   0.038208 0.456284 0.114926 -0.120939
C15   C     C_R   0.272895 0.522851 0.233448 -0.279859
C16   C     C_3   0.129690 0.974635 0.169232 -0.367852
C17   C     C_R   0.081294 0.535530 0.797200 -0.003203
C18   C     C_R   0.773597 0.182312 0.537436 -0.275423
C19   C     C_R   0.416090 0.811289 0.471133 -0.261277
C20   C     C_R   0.385397 0.989392 0.439451 -0.102707
C21   C     C_R   0.319459 0.881240 0.434452 -0.030391
C22   C     C_R   0.577893 0.849445 0.516781 0.014167
C23   C     C_3   0.419784 0.285162 0.266352 0.303337
C24   C     C_R   0.645966 0.961070 0.524895 -0.074216
C25   C     C_R   0.548245 0.031061 0.483772 -0.042246
C26   C     C_R   0.615051 0.141301 0.488801 0.041488
C27   C     C_R   0.872718 0.114482 0.575835 -0.000351
C28   C     C_3   0.145833 0.787230 0.679884 0.220332
C29   C     C_R   0.808342 0.004998 0.571282 -0.106794
C30   C     C_3   0.176839 0.906048 0.720881 0.267026
C31   C     C_3   0.920773 0.220432 0.349082 0.277031
C32   C     C_3   0.911585 0.099077 0.333841 -0.352939
C33   C     C_3   0.638917 0.844306 0.725463 0.317195
C34   C     C_3   0.400745 0.259381 0.163049 -0.397148
C35   C     C_3   0.627278 0.834423 0.825228 -0.315010
C36   C     C_3   0.099635 0.916888 0.867690 0.310528
C37   C     C_3   0.055127 0.799127 0.883451 -0.240817
C38   C     C_3   0.029338 0.787856 0.981015 -0.492672
C39   C     C_3   0.130865 0.240422 0.798182 0.399097
C40   C     C_3   0.175782 0.221595 0.896644 -0.351888
C41   C     C_3   0.629985 0.174849 0.778254 0.341537
C42   C     C_3   0.723655 0.130102 0.855878 -0.437360
C43   C     C_R   0.367298 0.563984 0.170015 -0.021495
H1    H     H_    0.677118 0.860501 0.295551 0.072852
H2    H     H_    0.701165 0.926855 0.720487 0.002637
H3    H     H_    0.537561 0.986796 0.215181 0.097551
H4    H     H_    0.744008 0.875808 0.868951 0.091854
H5    H     H_    0.523652 0.872670 0.847147 0.063888
H6    H     H_    0.465725 0.795877 0.250045 -0.116664
H7    H     H_    0.467927 0.886897 0.115280 0.095262
H8    H     H_    0.298508 0.300178 0.285608 0.016905
H9    H     H_    0.515230 0.359186 0.287139 0.065912
H10   H     H_    0.300633 0.188902 0.138161 0.112970
H11   H     H_    0.367453 0.329199 0.130738 0.062103
H12   H     H_    0.306697 0.933709 0.756764 0.012047
H13   H     H_    0.520031 0.241540 0.142492 0.131073
H14   H     H_    0.686436 0.942399 0.146530 0.128303
H15   H     H_    0.217995 0.981646 0.119029 0.066848
H16   H     H_    0.217162 0.312285 0.786907 0.097311
H17   H     H_    0.001266 0.256601 0.787975 -0.089228
H18   H     H_    0.302307 0.200450 0.908116 0.154417
H19   H     H_    0.173590 0.295466 0.943554 0.066631
H20   H     H_    0.085215 0.155068 0.913074 0.093894
H21   H     H_    0.719440 0.207319 0.734036 -0.047130
H22   H     H_    0.540963 0.107639 0.735133 0.041966
H23   H     H_    0.166798 0.953476 0.663268 0.059017
H24   H     H_    0.800876 0.197153 0.904957 0.112272
H25   H     H_    0.806512 0.077204 0.828772 0.107101
H26   H     H_    0.162866 0.809625 0.179752 0.030534
H27   H     H_    0.633794 0.083070 0.892177 0.114870
H28   H     H_    0.328782 0.529188 0.304014 0.067197
H29   H     H_    0.510682 0.645022 0.033160 0.105713
H30   H     H_    0.913741 0.410514 0.097809 0.078787
H31   H     H_    0.864213 0.477301 0.697423 0.077890
H32   H     H_    0.803805 0.410048 0.964024 0.075340
H33   H     H_    0.387658 0.639330 0.880334 0.099756
H34   H     H_    0.798700 0.238913 0.361443 0.013670
H35   H     H_    0.306256 0.039492 0.408356 0.090995
H36   H     H_    0.886854 0.955617 0.603682 0.111523
H37   H     H_    0.824003 0.266928 0.540764 0.059426
H38   H     H_    0.283333 0.911325 0.266743 -0.044534
H39   H     H_    0.362699 0.727030 0.466863 0.074242
H40   H     H_    0.999653 0.959598 0.133060 0.122209
H41   H     H_    0.151492 0.052441 0.214546 0.124913
H42   H     H_    0.163605 0.780689 0.606993 0.013256
H43   H     H_    0.017373 0.750538 0.686068 0.091878
H44   H     H_    0.027724 0.966328 0.908246 0.058376
H45   H     H_    0.015824 0.253187 0.409852 0.070966
H46   H     H_    0.233585 0.949557 0.893863 0.017996
H47   H     H_    0.940756 0.757844 0.837150 0.141411
H48   H     H_    0.159520 0.758162 0.869318 0.110770
H49   H     H_    0.150382 0.814740 0.026114 0.128065
H50   H     H_    0.984396 0.702362 0.987012 0.157161
H51   H     H_    0.934130 0.834951 0.001734 0.141763
H52   H     H_    0.605385 0.748480 0.835332 0.126086
H53   H     H_    0.854350 0.066183 0.262959 0.130666
H54   H     H_    0.835903 0.059582 0.380737 0.070855
H55   H     H_    0.038892 0.079768 0.346796 0.120444
H56   H     H_    0.510463 0.831971 0.687803 -0.007510
O1    O     O_2   0.827930 0.435360 0.277760 -0.459532
O2    O     O_2   0.214803 0.120097 0.572656 -0.488761
O3    O     O_3   0.146971 0.149496 0.739012 -0.578884
O4    O     O_3   0.100310 0.439010 0.391180 -0.499008
O5    O     O_3   0.587770 0.631830 0.546230 -0.452320
O6    O     O_2   0.332600 0.233710 0.456170 -0.467730
O7    O     O_3   0.468361 0.197763 0.306412 -0.653808
O8    O     O_2   0.483915 0.446173 0.824139 -0.492599
O9    O     O_3   0.538231 0.249528 0.815352 -0.591871
O10   O     O_3   0.625610 0.634200 0.333270 -0.480307
O11   O     O_2   0.705171 0.550640 0.175467 -0.471192
O12   O     O_3   0.731315 0.768794 0.690538 -0.616425
O13   O     O_3   0.959906 0.262790 0.270485 -0.643029
O14   O     O_3   0.657256 0.748019 0.182252 -0.577941
O15   O     O_2   0.857120 0.766320 0.543890 -0.480467
O16   O     O_3   0.056570 0.691100 0.379020 -0.460212
O17   O     O_2   0.988091 0.879422 0.444363 -0.485446
O18   O     O_3   0.053413 0.928573 0.775013 -0.647821
O19   O     O_3   0.028464 0.864406 0.276266 -0.570853
O20   O     O_2   0.361790 0.564680 0.722290 -0.429718
O21   O     O_3   0.089410 0.561080 0.608830 -0.489582
O22   O     O_3   0.564100 0.365890 0.666740 -0.460143
O23   O     O_3   0.260796 0.735238 0.726313 -0.676147
O24   O     O_3   0.601940 0.368260 0.453780 -0.480542
O25   O     O_3   0.133140 0.308990 0.620990 -0.493089
P1    P     P_3+3 0.998770 0.403620 0.291990 0.979183
P2    P     P_3+3 0.687370 0.751000 0.571300 0.998749
P3    P     P_3+3 0.101935 0.830521 0.382953 0.971262
P4    P     P_3+3 0.190950 0.596470 0.708020 0.966049
P5    P     P_3+3 0.090785 0.171245 0.626065 0.960403
P6    P     P_3+3 0.588079 0.622413 0.214235 0.977993
P7    P     P_3+3 0.507544 0.233103 0.425150 0.927799
P8    P     P_3+3 0.603656 0.376841 0.785326 0.972827

loop_
_geom_bond_atom_site_label_1
_geom_bond_atom_site_label_2
_ccdc_geom_bond_type
O13   P1    S    
C18   H37   S    
C14   H30   S    
C39   C40   S    
Ba2   O6    S    
Ba1   P2    S    
C39   H16   S    
O20   P4    D    
C33   H2    S    
C35   H52   S    
C5    C6    A    
C12   H1    S    
O12   P2    S    
Ba2   O22   S    
C36   H44   S    
C24   C25   A    
C16   H41   S    
C30   H12   S    
C33   C35   S    
C15   C43   A    
C34   H13   S    
C8    C13   A    
C34   H10   S    
C36   C37   S    
C13   H33   S    
C12   O14   S    
O5    P2    S    
C1    H3    S    
C21   P3    S    
Ba1   Ba2   S    
Ba1   O21   S    
C37   H48   S    
Ba2   P4    S    
C6    C7    A    
O3    P5    S    
C40   H20   S    
C32   H55   S    
C42   H25   S    
Ba1   O15   S    
O16   P3    S    
C7    C8    A    
Ba1   O5    S    
O14   P6    S    
C17   P4    S    
C24   C29   A    
C23   H8    S    
C15   H28   S    
C39   H17   S    
C38   H51   S    
C4    O19   S    
C31   C32   S    
C18   C27   A    
Ba2   O21   S    
C4    H26   S    
C4    C16   S    
C16   H40   S    
O4    P1    S    
O22   P8    S    
C26   P7    S    
C23   H9    S    
C5    P8    S    
O1    P1    D    
C37   C38   S    
C3    C5    A    
C31   H34   S    
C18   C26   A    
C33   O12   S    
C36   H46   S    
Ba2   O5    S    
O19   P3    S    
C2    C14   A    
C41   C42   S    
C41   H22   S    
C34   H11   S    
C35   H4    S    
C9    C14   A    
C12   H6    S    
C19   H39   S    
C8    C17   A    
C1    H7    S    
C32   H54   S    
C31   O13   S    
O23   P4    S    
C42   H24   S    
Ba1   O16   S    
O11   P6    D    
C7    C9    A    
C1    C12   S    
C2    C15   A    
Ba2   O25   S    
C16   H15   S    
C41   O9    S    
C28   O23   S    
C20   C25   A    
C11   C13   A    
C6    H32   S    
O9    P8    S    
C36   O18   S    
C30   O18   S    
C28   H43   S    
C40   H19   S    
C37   H47   S    
Ba2   O20   S    
O24   P7    S    
C4    H38   S    
C2    P1    S    
O8    P8    D    
Ba1   P1    S    
C38   H49   S    
C10   C43   A    
C33   H56   S    
C9    C10   A    
C3    C17   A    
Ba2   O4    S    
C29   H36   S    
C39   O3    S    
C30   H23   S    
Ba1   O24   S    
C3    H31   S    
C19   C21   A    
C20   H35   S    
O7    P7    S    
C27   C29   A    
O17   P3    D    
C31   H45   S    
Ba1   O10   S    
C28   C30   S    
C35   H5    S    
C22   C24   A    
C27   P5    S    
O25   P5    S    
C41   H21   S    
C40   H18   S    
C32   H53   S    
C42   H27   S    
C23   C34   S    
Ba2   O24   S    
O10   P6    S    
C10   C11   A    
C43   P6    S    
O6    P7    D    
O15   P2    D    
C19   C22   A    
C25   C26   A    
C22   P2    S    
C20   C21   A    
C38   H50   S    
C28   H42   S    
O2    P5    D    
Ba1   O1    S    
O21   P4    S    
C23   O7    S    
Ba1   O4    S    
C11   H29   S    
C1    H14   S    
