data_mof_unit_31868.cif
_audit_creation_date              2012-12-10T17:30:19-0500
_audit_creation_method            fapswitch 2.2
_symmetry_space_group_name_H-M    P1
_symmetry_Int_Tables_number       1
_space_group_crystal_system       triclinic
_cell_length_a                    12.13773
_cell_length_b                    12.970212
_cell_length_c                    14.932922
_cell_angle_alpha                 91.302865
_cell_angle_beta                  87.774003
_cell_angle_gamma                 94.489147
_cell_volume                      2341.43551075

loop_
_atom_site_label
_atom_site_type_symbol
_atom_type_description
_atom_site_fract_x
_atom_site_fract_y
_atom_site_fract_z
_atom_type_partial_charge
C1    C     C_R   0.522728 0.700053 0.497429 0.913493
C2    C     C_R   0.368488 0.135943 0.467063 -0.004424
C3    C     C_R   0.454005 0.867217 0.461741 0.076684
C4    C     C_R   0.545980 0.132868 0.538720 0.076778
C5    C     C_R   0.453536 0.973652 0.479667 0.076029
C6    C     C_R   0.546312 0.026339 0.521121 0.076054
C7    C     C_R   0.947081 0.392464 0.423903 0.367636
C8    C     C_R   0.052914 0.607546 0.576051 0.367758
C9    C     C_R   0.834042 0.408944 0.426033 0.378977
C10   C     C_R   0.165952 0.591086 0.573931 0.379055
C11   C     C_R   0.860576 0.539994 0.538073 0.493047
C12   C     C_R   0.477271 0.299948 0.502627 0.913400
C13   C     C_R   0.139440 0.459958 0.461950 0.493009
C14   C     C_R   0.977936 0.537980 0.528964 -0.260112
C15   C     C_R   0.022073 0.461999 0.471014 -0.260133
C16   C     C_R   0.501027 0.500269 0.672387 0.916605
C17   C     C_R   0.498968 0.499696 0.327612 0.916754
C18   C     C_R   0.457202 0.411515 0.186284 0.089565
C19   C     C_R   0.542810 0.588391 0.813729 0.089709
C20   C     C_R   0.498442 0.500273 0.232091 -0.181626
C21   C     C_R   0.501556 0.499654 0.767909 -0.181579
C22   C     C_R   0.547803 0.586287 0.187373 0.378359
C23   C     C_R   0.626753 0.656895 0.951720 0.350439
C24   C     C_R   0.452230 0.413612 0.812613 0.378301
C25   C     C_R   0.560806 0.581457 0.093559 -0.090882
C26   C     C_R   0.439254 0.418408 0.906434 -0.090822
C27   C     C_R   0.500881 0.499649 0.046849 -0.091011
C28   C     C_R   0.499172 0.500217 0.953148 -0.091051
C29   C     C_R   0.443890 0.416449 0.094009 0.002814
C30   C     C_R   0.556156 0.583426 0.905994 0.002800
C31   C     C_R   0.631483 0.654022 0.044952 0.373520
C32   C     C_R   0.368611 0.345816 0.955043 0.373475
C33   C     C_R   0.373323 0.342958 0.048279 0.350392
C34   C     C_R   0.462196 0.187975 0.504173 -0.087599
C35   C     C_R   0.537773 0.812032 0.496190 -0.087499
C36   C     C_R   0.638065 0.971523 0.542658 0.101137
C37   C     C_R   0.361618 0.028362 0.458404 0.101227
C38   C     C_R   0.631257 0.863956 0.533719 -0.004830
Cl1   Cl    Cl    0.984878 0.274832 0.372924 -0.427993
Cl2   Cl    Cl    0.798470 0.603623 0.628987 -0.501615
Cl3   Cl    Cl    0.254574 0.667996 0.643661 -0.487381
Cl4   Cl    Cl    0.745408 0.332066 0.356288 -0.487387
Cl5   Cl    Cl    0.015081 0.725211 0.626948 -0.428381
Cl6   Cl    Cl    0.580949 0.700936 0.251231 -0.544440
Cl7   Cl    Cl    0.419115 0.298981 0.748726 -0.544549
Cl8   Cl    Cl    0.741000 0.730014 0.095710 -0.347260
Cl9   Cl    Cl    0.259163 0.269749 0.904280 -0.347386
Cl10  Cl    Cl    0.722052 0.744888 0.893338 -0.396575
Cl11  Cl    Cl    0.278020 0.254951 0.106661 -0.396205
Cl12  Cl    Cl    0.201615 0.396132 0.371181 -0.501632
H1    H     H_    0.381314 0.321987 0.284330 0.248702
H2    H     H_    0.270279 0.176353 0.368562 0.241200
H3    H     H_    0.792113 0.829398 0.528575 0.240250
H4    H     H_    0.728934 0.823170 0.632444 0.240991
H5    H     H_    0.755954 0.000106 0.635697 0.228583
H6    H     H_    0.803893 0.008129 0.526919 0.220944
H7    H     H_    0.195881 0.991731 0.475259 0.221235
H8    H     H_    0.242750 0.999388 0.366159 0.228320
H9    H     H_    0.513685 0.297491 0.258757 0.219821
H10   H     H_    0.618662 0.677903 0.715674 0.248508
H11   H     H_    0.486313 0.702458 0.741312 0.219809
H12   H     H_    0.690363 0.222473 0.556333 0.247915
H13   H     H_    0.591738 0.235125 0.640388 0.241147
H14   H     H_    0.408797 0.765521 0.359545 0.241120
H15   H     H_    0.309852 0.777495 0.443425 0.248030
H16   H     H_    0.207650 0.170527 0.472651 0.239839
N1    N     N_R   0.207800 0.519350 0.516680 -0.200569
N2    N     N_3   0.260209 0.975002 0.429961 -0.410618
N3    N     N_R   0.792200 0.480650 0.483320 -0.200552
N4    N     N_3   0.439264 0.314756 0.231721 -0.370107
N5    N     N_3   0.560750 0.685161 0.768312 -0.370352
N6    N     N_3   0.627779 0.183671 0.595525 -0.388995
N7    N     N_3   0.372487 0.816658 0.404543 -0.389250
N8    N     N_3   0.280854 0.192802 0.436658 -0.372049
N9    N     N_3   0.718728 0.806980 0.564265 -0.372296
N10   N     N_3   0.739167 0.024719 0.571838 -0.410551
O1    O     O_R   0.421700 0.658830 0.504450 -0.620245
O2    O     O_R   0.578300 0.341170 0.495550 -0.620374
O3    O     O_R   0.609310 0.646410 0.493750 -0.556694
O4    O     O_R   0.390690 0.353590 0.506250 -0.556659
O5    O     O_R   0.406180 0.506230 0.637500 -0.552598
O6    O     O_R   0.593820 0.493770 0.362500 -0.552525
O7    O     O_R   0.593800 0.493820 0.626800 -0.582411
O8    O     O_R   0.406200 0.506180 0.373200 -0.582365
Zn1   Zn    Zn3+2 0.374730 0.508290 0.507150 1.069093
Zn2   Zn    Zn3+2 0.625270 0.491710 0.492850 1.069063

loop_
_geom_bond_atom_site_label_1
_geom_bond_atom_site_label_2
_ccdc_geom_bond_type
C25   C31   A    
C26   C32   A    
C16   C21   S    
H6    N10   S    
C5    C37   A    
C27   C29   A    
C1    O1    A    
C19   N5    S    
C8    Cl5   S    
C10   N1    A    
C9    Cl4   S    
C24   Cl7   S    
C19   C21   A    
C9    N3    A    
H2    N8    S    
C5    C6    A    
C11   C14   A    
C33   Cl11  S    
H16   N8    S    
C37   N2    S    
C29   C33   A    
C17   C20   S    
H15   N7    S    
C17   O6    A    
C36   N10   S    
C22   Cl6   S    
C22   C25   A    
C12   O2    A    
H14   N7    S    
H1    N4    S    
C2    N8    S    
O2    Zn2   S    
C7    C15   A    
O1    Zn1   S    
C10   Cl3   S    
H11   N5    S    
H3    N9    S    
C38   N9    S    
C4    C34   A    
N1    Zn1   S    
C23   C30   A    
C35   C38   A    
O8    Zn1   S    
C4    C6    A    
H10   N5    S    
O6    Zn2   S    
C31   Cl8   S    
C16   O7    A    
C13   Cl12  S    
C23   C31   A    
O4    Zn1   S    
C3    C35   A    
H12   N6    S    
C18   C29   A    
H5    N10   S    
H8    N2    S    
C20   C22   A    
C13   C15   A    
C1    O3    A    
C32   Cl9   S    
H7    N2    S    
C12   C34   S    
C4    N6    S    
C1    C35   S    
C13   N1    A    
C7    C9    A    
C8    C14   A    
C23   Cl10  S    
C24   C26   A    
C3    C5    A    
C11   N3    A    
C25   C27   A    
C26   C28   A    
C18   N4    S    
C17   O8    A    
C32   C33   A    
C28   C30   A    
C2    C37   A    
C2    C34   A    
C12   O4    A    
C36   C38   A    
C16   O5    A    
C6    C36   A    
C18   C20   A    
C11   Cl2   S    
C3    N7    S    
H9    N4    S    
H4    N9    S    
O7    Zn2   S    
H13   N6    S    
C8    C10   A    
C21   C24   A    
C27   C28   A    
C7    Cl1   S    
C14   C15   A    
C19   C30   A    
O3    Zn2   S    
O5    Zn1   S    
N3    Zn2   S    
