data_mof_unit_34909.cif
_audit_creation_date              2013-03-05T15:39:50-0500
_audit_creation_method            fapswitch 2.2
_symmetry_space_group_name_H-M    P1
_symmetry_Int_Tables_number       1
_space_group_crystal_system       triclinic
_cell_length_a                    8.315847
_cell_length_b                    15.240245
_cell_length_c                    18.970481
_cell_angle_alpha                 94.947879
_cell_angle_beta                  93.169063
_cell_angle_gamma                 100.743196
_cell_volume                      2347.029652

loop_
_atom_site_label
_atom_site_type_symbol
_atom_site_description
_atom_site_fract_x
_atom_site_fract_y
_atom_site_fract_z
_atom_type_partial_charge
P1    P     P_3+3 0.028530 0.430100 0.340790 0.504546
O1    O     O_2   0.860810 0.457220 0.330270 -0.318806
O2    O     O_3   0.115570 0.454630 0.416610 -0.414751
O3    O     O_3   0.655480 0.619980 0.374380 -0.361014
O4    O     O_2   0.758509 0.560854 0.254061 -0.329871
O5    O     O_3   0.979218 0.312863 0.325035 -0.548349
O6    O     O_3   0.722128 0.725637 0.262168 -0.517272
H1    H     H_    0.551359 0.787932 0.311928 0.067777
C1    C     C_3   0.685679 0.873618 0.238887 -0.076305
H2    H     H_    0.747033 0.860820 0.189540 0.176195
P2    P     P_3+3 0.683360 0.705380 0.556640 0.595634
P3    P     P_3+3 0.139201 0.779833 0.407103 0.453380
O7    O     O_2   0.857830 0.719490 0.535920 -0.300144
O8    O     O_3   0.080900 0.665060 0.409740 -0.393086
O9    O     O_2   0.000519 0.819974 0.439746 -0.326630
O10   O     O_3   0.740784 0.721147 0.648226 -0.493539
O11   O     O_3   0.124527 0.800916 0.317701 -0.558620
C2    C     C_3   0.154949 0.726028 0.275275 0.425380
H3    H     H_    0.054573 0.667072 0.277078 0.154409
H4    H     H_    0.272332 0.708639 0.294646 -0.012161
C3    C     C_3   0.170803 0.747854 0.198170 -0.699242
H5    H     H_    0.231527 0.818696 0.198518 0.237466
C4    C     C_3   0.206814 0.732238 0.616716 0.370180
H6    H     H_    0.327459 0.738473 0.595142 -0.005409
H7    H     H_    0.115237 0.698104 0.574476 0.170718
C5    C     C_3   0.174331 0.826121 0.635587 -0.777308
H8    H     H_    0.266705 0.863432 0.677195 0.228568
H9    H     H_    0.181290 0.863616 0.587935 0.246134
H10   H     H_    0.050559 0.822071 0.655617 0.299055
Ba1   Ba    Ba6+2 0.852120 0.544010 0.466690 1.644693
C6    C     C_3   0.943544 0.276139 0.388849 0.493823
H11   H     H_    0.836005 0.299514 0.409515 0.107618
H12   H     H_    0.048924 0.295078 0.429011 0.138978
C7    C     C_3   0.906722 0.174542 0.375356 -1.049007
H13   H     H_    0.792312 0.152185 0.340347 0.275621
H14   H     H_    0.891084 0.143767 0.425923 0.229866
H15   H     H_    0.011185 0.151746 0.350352 0.274311
C8    C     C_3   0.608030 0.727646 0.688956 0.346652
H16   H     H_    0.629946 0.698441 0.739439 0.103448
H17   H     H_    0.494054 0.687500 0.663493 0.126832
C9    C     C_3   0.596439 0.825451 0.707000 -0.894399
H18   H     H_    0.716372 0.864067 0.731037 0.306798
H19   H     H_    0.502181 0.829750 0.745691 0.229965
H20   H     H_    0.561753 0.855545 0.658681 0.244438
P4    P     P_3+3 0.161190 0.569970 0.659220 0.540211
O12   O     O_2   0.328890 0.542810 0.669780 -0.366168
O13   O     O_3   0.074140 0.545440 0.583400 -0.325698
O14   O     O_3   0.534240 0.380100 0.625630 -0.292653
O15   O     O_3   0.207080 0.687390 0.678398 -0.576461
P5    P     P_3+3 0.052296 0.219462 0.597098 0.550254
O16   O     O_3   0.605420 0.392640 0.463580 -0.300026
O17   O     O_3   0.108810 0.335010 0.590270 -0.337517
O18   O     O_2   0.161750 0.173096 0.548403 -0.368090
O19   O     O_3   0.108785 0.197889 0.682944 -0.480700
Ba2   Ba    Ba6+2 0.337720 0.456070 0.533320 1.654991
P6    P     P_3+3 0.635862 0.617668 0.282189 0.517494
C10   C     C_3   0.603766 0.780274 0.259519 0.186771
H21   H     H_    0.506094 0.749915 0.217976 0.069873
O20   O     O_3   0.584290 0.607440 0.536430 -0.328469
C11   C     C_3   0.442171 0.327547 0.317798 0.310625
H22   H     H_    0.321484 0.337205 0.336055 0.024554
H23   H     H_    0.533934 0.390790 0.330833 0.120533
C12   C     C_3   0.423088 0.306016 0.237564 0.020645
H24   H     H_    0.337529 0.240918 0.223815 0.114008
H25   H     H_    0.372141 0.359034 0.212593 0.078039
P7    P     P_3+3 0.510167 0.279940 0.441102 0.493846
O21   O     O_2   0.331880 0.280530 0.464130 -0.378926
O22   O     O_3   0.492510 0.255769 0.348859 -0.562367
H26   H     H_    0.248031 0.704951 0.171820 0.181428
C13   C     C_3   0.066051 0.263937 0.730733 0.369020
H27   H     H_    0.143030 0.330340 0.724795 0.072831
H28   H     H_    0.934324 0.268244 0.722059 0.043078
C14   C     C_3   0.098414 0.241628 0.806267 0.034118
H29   H     H_    0.094244 0.300801 0.843596 0.055905
H30   H     H_    0.222061 0.224895 0.813683 0.168739
P8    P     P_3+3 0.553650 0.384370 0.719226 0.509165
C15   C     C_3   0.510110 0.212758 0.692115 0.397878
H31   H     H_    0.641765 0.220758 0.681537 0.067465
O23   O     O_2   0.428760 0.438768 0.748803 -0.391927
O24   O     O_3   0.488017 0.277320 0.746194 -0.549503
H32   H     H_    0.435601 0.218018 0.642744 0.143576
H33   H     H_    0.451491 0.067920 0.670305 0.231188
C16   C     C_3   0.453044 0.119578 0.715442 -0.775102
H34   H     H_    0.327051 0.112506 0.733422 0.278250
H35   H     H_    0.536983 0.107888 0.759766 0.282357
C17   C     C_R   0.314502 0.532177 0.295384 -0.583669
C18   C     C_R   0.157142 0.484929 0.273572 0.299569
C19   C     C_R   0.106105 0.472799 0.200710 -0.347546
C20   C     C_R   0.216354 0.501529 0.149037 -0.121400
C21   C     C_R   0.379353 0.545605 0.172798 0.349836
C22   C     C_R   0.425671 0.563110 0.246209 0.138000
C23   C     C_R   0.184804 0.563483 0.031667 -0.123694
C24   C     C_R   0.134068 0.557038 0.959442 -0.175162
C25   C     C_R   0.047986 0.475896 0.924134 0.162339
C26   C     C_R   0.015643 0.401052 0.963328 -0.237104
C27   C     C_R   0.077930 0.404536 0.034876 0.147728
C28   C     C_R   0.158980 0.488447 0.071080 0.188566
C29   C     C_R   0.826059 0.429638 0.823718 -0.340092
C30   C     C_R   0.763636 0.438694 0.754919 0.148676
C31   C     C_R   0.031730 0.515983 0.726997 0.199095
C32   C     C_R   0.093746 0.510353 0.796963 -0.362524
C33   C     C_R   0.989272 0.470860 0.847224 0.034913
C34   C     C_R   0.863226 0.489551 0.710599 0.194752
H36   H     H_    0.221237 0.538633 0.812727 0.188169
H37   H     H_    0.158367 0.616653 0.931528 0.132835
H38   H     H_    0.247131 0.627975 0.056899 0.141987
H39   H     H_    0.981801 0.438737 0.184141 0.215497
H40   H     H_    0.946178 0.338312 0.937391 0.157020
H41   H     H_    0.745648 0.394728 0.859541 0.185978
H42   H     H_    0.353130 0.541942 0.351361 0.186760
C35   C     C_R   0.745597 0.236340 0.537253 0.013793
C36   C     C_R   0.831602 0.178410 0.568788 0.019342
C37   C     C_R   0.752880 0.089260 0.571682 0.407365
C38   C     C_R   0.622067 0.049532 0.520147 -0.018299
C39   C     C_R   0.553530 0.108961 0.478777 -0.394625
C40   C     C_R   0.606728 0.202263 0.491317 0.198016
C41   C     C_R   0.399128 0.915325 0.473996 -0.336902
C42   C     C_R   0.341994 0.823399 0.455304 0.239776
C43   C     C_R   0.589279 0.791122 0.513122 0.143974
C44   C     C_R   0.657671 0.883979 0.522612 0.369958
C45   C     C_R   0.559398 0.948602 0.506789 0.007894
C46   C     C_R   0.437308 0.762161 0.475073 -0.537324
H43   H     H_    0.316336 0.959865 0.462471 0.184114
H44   H     H_    0.458327 0.084386 0.436952 0.180461
H45   H     H_    0.388408 0.690984 0.464364 0.173321
C47   C     C_3   0.818328 0.923411 0.297048 -0.280001
C48   C     C_3   0.978761 0.967906 0.267005 -0.248329
C49   C     C_3   0.956726 0.036461 0.214737 -0.913021
H46   H     H_    0.882827 0.084618 0.236032 0.289252
H47   H     H_    0.079063 0.074664 0.204653 0.249585
H48   H     H_    0.896698 0.002318 0.163394 0.257840
H49   H     H_    0.065699 0.001674 0.312056 0.205521
H50   H     H_    0.036261 0.915717 0.239770 0.222011
H51   H     H_    0.770314 0.974261 0.331192 0.174234
H52   H     H_    0.851379 0.875560 0.333605 0.240916
C50   C     C_3   0.557471 0.932594 0.222477 -0.432716
C51   C     C_3   0.499593 0.921952 0.143262 -0.278016
C52   C     C_3   0.376672 0.982162 0.128046 -0.888177
H53   H     H_    0.269728 0.967247 0.160456 0.252676
H54   H     H_    0.435736 0.053917 0.140314 0.287257
H55   H     H_    0.332459 0.970579 0.071094 0.252676
H56   H     H_    0.606613 0.940990 0.111381 0.210540
H57   H     H_    0.443223 0.850957 0.125768 0.196766
H58   H     H_    0.451733 0.916948 0.255636 0.190746
H59   H     H_    0.611030 0.004754 0.236788 0.235692
Cl1   Cl    Cl    0.616388 0.299678 0.203217 -0.588835
Cl2   Cl    Cl    0.947990 0.149534 0.826619 -0.579344
C53   C     C_3   0.061790 0.316607 0.068320 -0.433841
C54   C     C_3   0.158129 0.252673 0.029535 -0.236565
C55   C     C_3   0.138780 0.163201 0.061615 -0.829211
H60   H     H_    0.190542 0.173682 0.117491 0.247637
H61   H     H_    0.007076 0.130644 0.059591 0.269422
H62   H     H_    0.205891 0.117799 0.031172 0.258223
H63   H     H_    0.114078 0.238896 0.972607 0.229243
H64   H     H_    0.290594 0.284265 0.033023 0.226547
H65   H     H_    0.108869 0.326409 0.124670 0.202638
H66   H     H_    0.929648 0.284835 0.066161 0.229842
Cl3   Cl    Cl    0.529056 0.573735 0.111658 -0.681204
Cl4   Cl    Cl    0.770329 0.536254 0.642274 -0.468480
Cl5   Cl    Cl    0.780062 0.044874 0.653670 -0.575121
Cl6   Cl    Cl    0.870308 0.915247 0.544835 -0.575451
Cl7   Cl    Cl    0.810772 0.351695 0.558705 -0.550991
C56   C     C_3   0.006281 0.732137 0.154491 -0.195560
C57   C     C_3   0.022371 0.772074 0.083154 -0.367651
C58   C     C_3   0.862259 0.745348 0.036487 -0.800222
H67   H     H_    0.831463 0.671300 0.024032 0.288922
H68   H     H_    0.760494 0.768364 0.063777 0.259765
H69   H     H_    0.875906 0.776853 0.985975 0.243134
H70   H     H_    0.053337 0.846475 0.092606 0.214361
H71   H     H_    0.122085 0.749205 0.054542 0.214485
H72   H     H_    0.955050 0.658872 0.146099 0.236410
H73   H     H_    0.922053 0.766018 0.184036 0.245194

loop_
_geom_bond_atom_site_label_1
_geom_bond_atom_site_label_2
_geom_bond_distance
_ccdc_geom_bond_type
P1    C18   1.862670 S    
O14   Ba2   2.795805 S    
P7    O22   1.749176 S    
C51   H56   1.111538 S    
C12   H25   1.108255 S    
C9    H18   1.110665 S    
C47   C48   1.542091 S    
C3    C56   1.527756 S    
P4    Ba2   3.390444 S    
Ba2   O20   2.780162 S    
C2    C3    1.535076 S    
C9    H19   1.109904 S    
C14   H29   1.104600 S    
O14   P8    1.768445 S    
O4    P6    1.544141 D    
C57   H71   1.108402 S    
C56   C57   1.533469 S    
P8    O23   1.544637 D    
Ba1   O16   2.780791 S    
P2    C43   1.870025 S    
C49   H46   1.106314 S    
C38   C39   1.423614 A    
C21   C22   1.413259 A    
C58   H67   1.111074 S    
P4    O12   1.534569 D    
P8    C30   1.851151 S    
C5    H8    1.108669 S    
P5    O19   1.745348 S    
P7    C40   1.848779 S    
C14   Cl2   1.782153 S    
C11   C12   1.522263 S    
C23   C24   1.400862 A    
C57   C58   1.525691 S    
C17   H42   1.081745 S    
C2    H3    1.110879 S    
C17   C22   1.398523 A    
C8    H16   1.110376 S    
C4    O15   1.405218 S    
C15   C16   1.522522 S    
C39   C40   1.403464 A    
C7    H15   1.109049 S    
C2    H4    1.109817 S    
C11   H23   1.111877 S    
C7    H13   1.110228 S    
C42   C46   1.393984 A    
C4    C5    1.521425 S    
C41   C45   1.422117 A    
C48   H49   1.111325 S    
C31   C32   1.412629 A    
C24   H37   1.083083 S    
C38   C45   1.523539 S    
O2    Ba2   2.799913 S    
P6    C22   1.854940 S    
C35   C36   1.388543 A    
P2    Ba1   3.428863 S    
C55   H62   1.111043 S    
O12   Ba2   2.814469 S    
P5    O17   1.753917 S    
C4    H6    1.095278 S    
C6    H12   1.107097 S    
C13   H27   1.110292 S    
C15   H32   1.111244 S    
C56   H72   1.112684 S    
C1    H2    1.110459 S    
C12   Cl1   1.783433 S    
O16   Ba2   2.923678 S    
C50   H59   1.110863 S    
O17   Ba2   2.730687 S    
P7    O21   1.570014 D    
C51   H57   1.110103 S    
C58   H68   1.111305 S    
C29   H41   1.082602 S    
C3    H5    1.102650 S    
O3    P6    1.744187 S    
C14   H30   1.109077 S    
C57   H70   1.111357 S    
C35   Cl7   1.745570 S    
O6    P6    1.750529 S    
O8    Ba1   2.729958 S    
P2    O20   1.568941 S    
C36   C37   1.401001 A    
C23   C28   1.409450 A    
P4    O13   1.556869 S    
C27   C53   1.518330 S    
P5    O18   1.549607 D    
P1    O5    1.752428 S    
C32   C33   1.421901 A    
C48   H50   1.107431 S    
O7    Ba1   2.866909 S    
C53   C54   1.537893 S    
C8    C9    1.522326 S    
C30   C34   1.394129 A    
C26   H40   1.082375 S    
C19   H39   1.082905 S    
C17   C18   1.392676 A    
C15   H31   1.110182 S    
C52   H55   1.110222 S    
C31   C34   1.393666 A    
C20   C28   1.513327 S    
C11   H22   1.110665 S    
P1    O2    1.556840 S    
O16   P7    1.757389 S    
C21   Cl3   1.767844 S    
O2    Ba1   2.945710 S    
C54   H63   1.110427 S    
H1    C10   1.113060 S    
P2    O10   1.760093 S    
Ba1   O13   2.799275 S    
C6    H11   1.101718 S    
O19   C13   1.404616 S    
P3    O9    1.537652 D    
P4    O15   1.760133 S    
C27   C28   1.427348 A    
C13   C14   1.522093 S    
P5    C36   1.858232 S    
O11   C2    1.409288 S    
C6    C7    1.517529 S    
C24   C25   1.401561 A    
C56   H73   1.095303 S    
C11   O22   1.404899 S    
C35   C40   1.396345 A    
C52   H54   1.111085 S    
C44   Cl6   1.760770 S    
C5    H10   1.109587 S    
P3    C42   1.851555 S    
C23   H38   1.079486 S    
C16   H35   1.110545 S    
P3    O8    1.731698 S    
C47   H52   1.108688 S    
H33   C16   1.109901 S    
C32   H36   1.082385 S    
C9    H20   1.107406 S    
C55   H61   1.112050 S    
C16   H34   1.108814 S    
C48   C49   1.529164 S    
C49   H48   1.109327 S    
C44   C45   1.432429 A    
O13   Ba2   2.946539 S    
C37   C38   1.428454 A    
Ba1   Ba2   4.631020 S    
C15   O24   1.403029 S    
C39   H44   1.079508 S    
P8    O24   1.750477 S    
C50   C51   1.537873 S    
P4    C31   1.869340 S    
C49   H47   1.109254 S    
Ba2   O21   2.867242 S    
C43   C44   1.415359 A    
C58   H69   1.110282 S    
C51   C52   1.527412 S    
C5    H9    1.108880 S    
C1    C47   1.555306 S    
O1    Ba1   2.813911 S    
C46   H45   1.082463 S    
C54   H64   1.112807 S    
C50   H58   1.111122 S    
C29   C33   1.415108 A    
C41   C42   1.400614 A    
P3    O11   1.755065 S    
C8    H17   1.090055 S    
P2    O7    1.505681 D    
C34   Cl4   1.742658 S    
C10   H21   1.105021 S    
P1    O1    1.534375 D    
P1    Ba1   3.389963 S    
C43   C46   1.396118 A    
C7    H14   1.107147 S    
O5    C6    1.400530 S    
C1    C10   1.550867 S    
C53   H66   1.112154 S    
C4    H7    1.097997 S    
C37   Cl5   1.768455 S    
C41   H43   1.079709 S    
C25   C26   1.407217 A    
C52   H53   1.108971 S    
C12   H24   1.109163 S    
C1    C50   1.552510 S    
C19   C20   1.420182 A    
C47   H51   1.112161 S    
C18   C19   1.409499 A    
C29   C30   1.405275 A    
C3    H26   1.107020 S    
C26   C27   1.418796 A    
Ba1   O20   2.924595 S    
C55   H60   1.108643 S    
C13   H28   1.113590 S    
C53   H65   1.105752 S    
C20   C21   1.425647 A    
C54   C55   1.525699 S    
O6    C10   1.404276 S    
O3    Ba1   2.796433 S    
C25   C33   1.503658 S    
O10   C8    1.395501 S    
