data_mof_unit_25658.cif
_audit_creation_date              2012-12-11T14:02:44-0500
_audit_creation_method            fapswitch 2.2
_symmetry_space_group_name_H-M    P1
_symmetry_Int_Tables_number       1
_space_group_crystal_system       triclinic
_cell_length_a                    7.16724
_cell_length_b                    11.68714
_cell_length_c                    12.889132
_cell_angle_alpha                 89.999975
_cell_angle_beta                  89.999967
_cell_angle_gamma                 89.999559
_cell_volume                      1079.65217806

loop_
_atom_site_label
_atom_site_type_symbol
_atom_type_description
_atom_site_fract_x
_atom_site_fract_y
_atom_site_fract_z
_atom_type_partial_charge
O1    O     O_R   0.563540 0.856420 0.141290 -0.536201
O2    O     O_R   0.436460 0.143580 0.858710 -0.536201
O3    O     O_R   0.436460 0.143580 0.641290 -0.536201
O4    O     O_R   0.563540 0.856420 0.358710 -0.536201
O5    O     O_R   0.063540 0.643580 0.358710 -0.536201
O6    O     O_R   0.936460 0.356420 0.641290 -0.536201
O7    O     O_R   0.936460 0.356420 0.858710 -0.536201
O8    O     O_R   0.063540 0.643580 0.141290 -0.536201
O9    O     O_R   0.233730 0.870400 0.357990 -0.535447
O10   O     O_R   0.766270 0.129600 0.642010 -0.535447
O11   O     O_R   0.766270 0.129600 0.857990 -0.535447
O12   O     O_R   0.233730 0.870400 0.142010 -0.535447
O13   O     O_R   0.733730 0.629600 0.142010 -0.535448
O14   O     O_R   0.266270 0.370400 0.857990 -0.535448
O15   O     O_R   0.266270 0.370400 0.642010 -0.535448
O16   O     O_R   0.733730 0.629600 0.357990 -0.535448
C1    C     C_R   0.404212 0.898016 0.392069 0.724245
C2    C     C_R   0.595788 0.101984 0.607931 0.724245
C3    C     C_R   0.595788 0.101984 0.892069 0.724246
C4    C     C_R   0.404212 0.898016 0.107931 0.724246
C5    C     C_R   0.904213 0.601985 0.107930 0.724247
C6    C     C_R   0.095787 0.398015 0.892070 0.724247
C7    C     C_R   0.095787 0.398015 0.607930 0.724247
C8    C     C_R   0.904213 0.601985 0.392070 0.724247
O17   O     O_3   0.396920 0.675570 0.250000 -0.375899
O18   O     O_3   0.603080 0.324430 0.750000 -0.375899
O19   O     O_3   0.896920 0.824430 0.250000 -0.375895
O20   O     O_3   0.103080 0.175570 0.750000 -0.375895
V1    V     V_3+5 0.122110 0.763800 0.250000 1.539905
V2    V     V_3+5 0.877890 0.236200 0.750000 1.539904
V3    V     V_3+5 0.622110 0.736200 0.250000 1.539901
V4    V     V_3+5 0.377890 0.263800 0.750000 1.539901
C9    C     C_2   0.920577 0.509024 0.470526 -0.262077
C10   C     C_2   0.079423 0.490976 0.529474 -0.262077
C11   C     C_2   0.079423 0.490976 0.970526 -0.262076
C12   C     C_2   0.920577 0.509024 0.029474 -0.262076
C13   C     C_2   0.420576 0.990974 0.029471 -0.262081
C14   C     C_2   0.579424 0.009026 0.970529 -0.262081
C15   C     C_2   0.579424 0.009026 0.529471 -0.262082
C16   C     C_2   0.420576 0.990973 0.470529 -0.262082
C17   C     C_1   0.761765 0.432011 0.475006 0.378407
N1    N     N_1   0.634818 0.370852 0.478062 -0.350939
C18   C     C_1   0.238235 0.567989 0.524994 0.378407
N2    N     N_1   0.365182 0.629148 0.521938 -0.350939
C19   C     C_1   0.238235 0.567989 0.975006 0.378407
N3    N     N_1   0.365182 0.629148 0.978062 -0.350939
C20   C     C_1   0.761765 0.432011 0.024994 0.378407
N4    N     N_1   0.634818 0.370852 0.021938 -0.350939
C21   C     C_1   0.261763 0.067977 0.024981 0.378423
N5    N     N_1   0.134814 0.129130 0.021916 -0.350933
C22   C     C_1   0.738237 0.932023 0.975019 0.378423
N6    N     N_1   0.865186 0.870870 0.978084 -0.350933
C23   C     C_1   0.738238 0.932023 0.524980 0.378423
N7    N     N_1   0.865186 0.870871 0.521914 -0.350932
C24   C     C_1   0.261762 0.067977 0.475020 0.378424
N8    N     N_1   0.134814 0.129129 0.478086 -0.350932

loop_
_geom_bond_atom_site_label_1
_geom_bond_atom_site_label_2
_ccdc_geom_bond_type
O17   V3    S    
C24   N8    T    
O18   V4    S    
C13   C14   D    
C6    C11   S    
C3    C14   S    
O12   V1    S    
O19   V1    S    
O7    C6    A    
C13   C21   S    
C17   N1    T    
O10   V2    S    
O6    C7    A    
C8    C9    S    
C1    C16   S    
O9    V1    S    
C2    C15   S    
C7    C10   S    
C9    C17   S    
C16   C24   S    
O15   C7    A    
C9    C10   D    
O13   C5    A    
O15   V4    S    
O16   C8    A    
O7    V2    S    
C23   N7    T    
O16   V3    S    
C4    C13   S    
O14   C6    A    
C15   C23   S    
O5    C8    A    
O12   C4    A    
O10   C2    A    
O8    V1    S    
O9    C1    A    
O6    V2    S    
O8    C5    A    
O5    V1    S    
C18   N2    T    
O3    V4    S    
C12   C20   S    
O4    V3    S    
O4    C1    A    
C22   N6    T    
C11   C19   S    
O1    V3    S    
O3    C2    A    
O2    V4    S    
C21   N5    T    
C15   C16   D    
C5    C12   S    
O11   C3    A    
O1    C4    A    
C14   C22   S    
O2    C3    A    
C19   N3    T    
O13   V3    S    
C10   C18   S    
C20   N4    T    
O11   V2    S    
O14   V4    S    
O20   V2    S    
C11   C12   D    
