data_mof_unit_30990.cif
_audit_creation_date              2012-12-10T17:03:38-0500
_audit_creation_method            fapswitch 2.2
_symmetry_space_group_name_H-M    P1
_symmetry_Int_Tables_number       1
_space_group_crystal_system       triclinic
_cell_length_a                    10.079041
_cell_length_b                    10.641018
_cell_length_c                    13.113545
_cell_angle_alpha                 90.914076
_cell_angle_beta                  69.229876
_cell_angle_gamma                 90.94618
_cell_volume                      1314.78437996

loop_
_atom_site_label
_atom_site_type_symbol
_atom_type_description
_atom_site_fract_x
_atom_site_fract_y
_atom_site_fract_z
_atom_type_partial_charge
C1    C     C_R   0.496923 0.737225 0.509729 0.969068
C2    C     C_R   0.367553 0.498673 0.823355 -0.102329
C3    C     C_2   0.560186 0.074818 0.569117 -0.252193
C4    C     C_R   0.420204 0.497406 0.704416 0.847031
C5    C     C_2   0.496881 0.129958 0.507923 -0.433499
C6    C     C_2   0.579672 0.939677 0.563398 0.526824
C7    C     C_2   0.484011 0.868202 0.537629 -0.515758
C8    C     C_2   0.086395 0.404618 0.467724 -0.005566
C9    C     C_2   0.930856 0.400639 0.483007 -0.176254
C10   C     C_R   0.498082 0.262628 0.502756 0.946457
C11   C     C_R   0.579361 0.495219 0.295539 0.856242
C12   C     C_R   0.433306 0.491950 0.984323 0.090925
C13   C     C_R   0.744561 0.339589 0.019894 -0.239552
C14   C     C_R   0.626758 0.470466 0.178224 -0.100262
C15   C     C_R   0.248136 0.570132 0.880603 -0.185125
C16   C     C_R   0.217985 0.598837 0.990223 -0.154194
C17   C     C_R   0.311005 0.563038 0.041452 -0.201171
C18   C     C_R   0.817387 0.316467 0.177278 0.134147
C19   C     C_R   0.965373 0.331663 0.137585 -0.152733
C20   C     C_R   0.049060 0.253156 0.173441 -0.148525
C21   C     C_R   0.985376 0.159567 0.249521 -0.115025
C22   C     C_R   0.838020 0.144556 0.289939 -0.124387
C23   C     C_R   0.451276 0.448026 0.878271 0.090314
C24   C     C_R   0.754175 0.221882 0.253003 -0.118477
C25   C     C_R   0.167333 0.291825 0.416398 0.205916
C26   C     C_R   0.134817 0.175616 0.469551 -0.146770
C27   C     C_R   0.205442 0.067050 0.418321 -0.147322
C28   C     C_R   0.309523 0.073955 0.314123 -0.165876
C29   C     C_R   0.341378 0.189054 0.260416 -0.205923
C30   C     C_R   0.268501 0.297128 0.310509 -0.091077
C31   C     C_R   0.538179 0.462149 0.028572 0.077060
C32   C     C_R   0.645921 0.375275 0.973648 0.141335
C33   C     C_R   0.650815 0.320944 0.875176 -0.219810
C34   C     C_R   0.554580 0.356603 0.828048 -0.184238
C35   C     C_R   0.539334 0.516442 0.125779 -0.279754
C36   C     C_R   0.732211 0.381865 0.124209 -0.014549
H1    H     H_    0.454287 0.079003 0.454437 0.167990
H2    H     H_    0.282872 0.589657 0.126135 0.134063
H3    H     H_    0.125204 0.653468 0.034593 0.153362
H4    H     H_    0.561128 0.311299 0.751985 0.154733
H5    H     H_    0.607963 0.131187 0.617089 0.208747
H6    H     H_    0.015846 0.400801 0.075799 0.146314
H7    H     H_    0.163323 0.263004 0.139883 0.144993
H8    H     H_    0.049967 0.096915 0.275618 0.172994
H9    H     H_    0.789313 0.070633 0.347345 0.173389
H10   H     H_    0.640819 0.205055 0.279767 0.111596
H11   H     H_    0.892762 0.963090 0.642623 0.371440
H12   H     H_    0.384709 0.908278 0.539576 0.139384
H13   H     H_    0.054631 0.169228 0.550304 0.146425
H14   H     H_    0.180092 0.977745 0.459580 0.156555
H15   H     H_    0.364835 0.990050 0.274879 0.146282
H16   H     H_    0.420196 0.194118 0.179042 0.151034
H17   H     H_    0.287745 0.383936 0.265510 0.139318
H18   H     H_    0.084902 0.571061 0.540647 0.170594
H19   H     H_    0.884231 0.310621 0.473499 0.189666
H20   H     H_    0.900466 0.584676 0.498561 0.217375
H21   H     H_    0.729953 0.251489 0.833943 0.168214
H22   H     H_    0.824406 0.270580 0.978482 0.149010
H23   H     H_    0.466012 0.589692 0.166551 0.152580
H24   H     H_    0.181796 0.608218 0.839492 0.160910
N1    N     N_2   0.148270 0.498670 0.498870 -0.209425
N2    N     N_2   0.852610 0.498640 0.498840 -0.173386
O1    O     O_R   0.386950 0.680940 0.500020 -0.626564
O2    O     O_2   0.838945 0.839447 0.480508 -0.343414
O3    O     O_3   0.804869 0.999381 0.638681 -0.606810
O4    O     O_R   0.613110 0.680900 0.499980 -0.516447
O5    O     O_R   0.330780 0.500000 0.653640 -0.619680
O6    O     O_R   0.556930 0.499960 0.653610 -0.573634
O7    O     O_R   0.386890 0.319100 0.500020 -0.596162
O8    O     O_R   0.613050 0.319060 0.499980 -0.620892
O9    O     O_R   0.443070 0.500040 0.346390 -0.618422
O10   O     O_R   0.669220 0.500000 0.346360 -0.595936
O11   O     O_2   0.689870 0.776549 0.665898 -0.289071
S1    S     S_3+6 0.731482 0.883508 0.586785 -0.000777
Zn1   Zn    Zn3+2 0.349000 0.500030 0.500020 0.940477
Zn2   Zn    Zn3+2 0.651000 0.499970 0.499980 1.018226

loop_
_geom_bond_atom_site_label_1
_geom_bond_atom_site_label_2
_ccdc_geom_bond_type
C5    H1    S    
O11   S1    D    
C13   C32   A    
C19   C20   A    
O10   Zn2   S    
C3    C6    S    
N1    Zn1   S    
C12   C23   A    
C26   C27   A    
C34   H4    S    
C28   C29   A    
C14   C36   A    
C28   H15   S    
C11   O9    A    
C15   C16   A    
C35   H23   S    
C18   C19   A    
C15   H24   S    
C8    C9    S    
C12   C17   A    
C9    H19   S    
C27   H14   S    
C8    N1    D    
H20   N2    S    
C21   C22   A    
C8    C25   S    
N2    Zn2   S    
C1    O1    A    
C6    S1    S    
C30   H17   S    
C9    N2    D    
C18   C24   A    
C13   C36   A    
C26   H13   S    
C14   C35   A    
C4    O6    A    
C11   O10   A    
C16   C17   A    
C13   H22   S    
C25   C26   A    
O3    S1    S    
C1    O4    A    
C2    C4    S    
C29   C30   A    
C21   H8    S    
C31   C32   A    
C23   C34   A    
O4    Zn2   S    
C33   C34   A    
C2    C15   A    
C10   O8    A    
C12   C31   A    
O8    Zn2   S    
C22   C24   A    
O5    Zn1   S    
C2    C23   A    
C20   H7    S    
C25   C30   A    
C3    H5    S    
C33   H21   S    
C1    C7    S    
C3    C5    D    
C4    O5    A    
C19   H6    S    
C6    C7    D    
H18   N1    S    
O6    Zn2   S    
C24   H10   S    
C32   C33   A    
C5    C10   S    
C7    H12   S    
O9    Zn1   S    
O1    Zn1   S    
C11   C14   S    
O7    Zn1   S    
C31   C35   A    
C17   H2    S    
C16   H3    S    
C10   O7    A    
C22   H9    S    
C20   C21   A    
C27   C28   A    
O2    S1    D    
C18   C36   S    
H11   O3    S    
C29   H16   S    
