data_mof_unit_12243.cif
_audit_creation_date              2012-12-10T17:12:04-0500
_audit_creation_method            fapswitch 2.2
_symmetry_space_group_name_H-M    P1
_symmetry_Int_Tables_number       1
_space_group_crystal_system       triclinic
_cell_length_a                    11.77395
_cell_length_b                    12.984308
_cell_length_c                    15.749266
_cell_angle_alpha                 92.084989
_cell_angle_beta                  73.254556
_cell_angle_gamma                 100.378227
_cell_volume                      2267.56665885

loop_
_atom_site_label
_atom_site_type_symbol
_atom_type_description
_atom_site_fract_x
_atom_site_fract_y
_atom_site_fract_z
_atom_type_partial_charge
C1    C     C_R   0.523438 0.700616 0.496940 0.946321
C2    C     C_R   0.476575 0.299360 0.502924 0.947334
C3    C     C_R   0.356119 0.479539 0.091717 0.564159
C4    C     C_R   0.643465 0.532933 0.911243 0.552528
C5    C     C_R   0.271929 0.493529 0.048600 0.341754
C6    C     C_R   0.725424 0.507636 0.952285 0.339532
C7    C     C_R   0.460209 0.185412 0.510071 -0.391912
C8    C     C_R   0.539658 0.814497 0.489355 -0.386885
C9    C     C_R   0.648600 0.982657 0.423034 0.707369
C10   C     C_R   0.350523 0.016953 0.575311 0.709995
C11   C     C_R   0.643589 0.874768 0.431155 0.208705
C12   C     C_R   0.355902 0.124957 0.567753 0.211094
C13   C     C_R   0.444033 0.862243 0.537999 0.662433
C14   C     C_R   0.555548 0.137617 0.461006 0.665801
C15   C     C_R   0.448082 0.969541 0.528265 -0.331367
C16   C     C_R   0.551306 0.030209 0.470413 -0.334218
C17   C     C_R   0.948877 0.614160 0.566010 0.208043
C18   C     C_R   0.052714 0.388165 0.431164 0.157431
C19   C     C_R   0.827483 0.597998 0.563775 0.799473
C20   C     C_R   0.173368 0.403171 0.434901 0.809178
C21   C     C_R   0.855268 0.450636 0.472577 0.032547
C22   C     C_R   0.144846 0.549598 0.527131 0.047147
C23   C     C_R   0.426295 0.495939 0.668664 0.913884
C24   C     C_R   0.573542 0.503369 0.331461 0.917687
C25   C     C_R   0.976705 0.459056 0.475426 -0.198428
C26   C     C_R   0.023989 0.541976 0.523266 -0.192661
C27   C     C_R   0.381512 0.495786 0.766544 -0.280500
C28   C     C_R   0.617743 0.502148 0.233836 -0.272250
C29   C     C_R   0.222786 0.490822 0.905007 0.659582
C30   C     C_R   0.769347 0.482588 0.095538 0.664689
C31   C     C_R   0.260080 0.493335 0.812337 0.595506
C32   C     C_R   0.732975 0.483678 0.188285 0.580398
C33   C     C_R   0.463702 0.496396 0.814948 -0.162132
C34   C     C_R   0.539220 0.515623 0.185583 -0.146516
C35   C     C_R   0.431086 0.506080 0.907664 -0.000960
C36   C     C_R   0.568544 0.502033 0.093520 -0.005522
C37   C     C_R   0.307097 0.499543 0.954506 -0.312932
C38   C     C_R   0.689344 0.495202 0.046154 -0.305975
C39   C     C_R   0.518680 0.513778 0.954659 -0.113538
C40   C     C_R   0.480678 0.498786 0.047517 -0.123277
Cu1   Cu    Cu3+1 0.386820 0.492450 0.493500 1.125832
Cu2   Cu    Cu3+1 0.613180 0.507550 0.506500 1.120286
H1    H     H_    0.455863 0.540686 0.220740 0.245239
H2    H     H_    0.552594 0.483525 0.779042 0.253402
H3    H     H_    0.182597 0.609613 0.565340 0.253464
H4    H     H_    0.816933 0.390046 0.435164 0.255552
N1    N     N_R   0.216750 0.481110 0.483710 -0.281957
N2    N     N_R   0.783250 0.518890 0.516290 -0.283705
O1    O     O_R   0.419950 0.645670 0.495380 -0.579014
O2    O     O_R   0.580050 0.354330 0.504620 -0.578963
O3    O     O_R   0.611110 0.658410 0.506370 -0.492831
O4    O     O_R   0.388890 0.341590 0.493630 -0.492821
O5    O     O_R   0.350820 0.490050 0.621260 -0.510911
O6    O     O_R   0.649180 0.509950 0.378740 -0.514220
O7    O     O_R   0.541970 0.502800 0.632250 -0.575164
O8    O     O_R   0.458030 0.497200 0.367750 -0.568655
S1    S     S_3+6 0.125727 0.503702 0.117328 0.199030
O9    O     O_2   0.080324 0.589967 0.082953 -0.172282
O10   O     O_2   0.043389 0.400801 0.117475 -0.075010
O11   O     O_3   0.128179 0.531704 0.222075 -0.475892
H5    H     H_    0.043607 0.535185 0.255225 0.398711
S2    S     S_3+6 0.869962 0.494687 0.881998 0.168807
O12   O     O_2   0.961808 0.583325 0.898758 -0.148785
O13   O     O_2   0.899062 0.391412 0.901100 -0.142263
O14   O     O_3   0.874016 0.497342 0.774364 -0.494600
H6    H     H_    0.953067 0.479395 0.741402 0.400198
F1    F     F_    0.248091 0.338878 0.389995 -0.564167
F2    F     F_    0.753031 0.662521 0.608642 -0.565191
S3    S     S_3+6 0.007493 0.729203 0.615496 0.155090
O15   O     O_2   0.113229 0.789360 0.547118 -0.176156
O16   O     O_2   0.915431 0.798958 0.648798 -0.150782
O17   O     O_3   0.055003 0.696365 0.700171 -0.432619
H7    H     H_    0.990680 0.707079 0.754472 0.415512
S4    S     S_3+6 0.996988 0.277395 0.375598 0.171091
O18   O     O_2   0.953785 0.313306 0.302667 -0.126133
O19   O     O_2   0.091065 0.211194 0.336184 -0.124227
O20   O     O_3   0.880051 0.204072 0.448854 -0.434510
H8    H     H_    0.913574 0.184336 0.495601 0.359598
F3    F     F_    0.811551 0.468510 0.233029 -0.573987
F4    F     F_    0.175911 0.487174 0.767986 -0.577435
F5    F     F_    0.103300 0.470163 0.944692 -0.486287
F6    F     F_    0.883041 0.469317 0.055757 -0.483715
F7    F     F_    0.313766 0.437277 0.175002 -0.586180
F8    F     F_    0.687511 0.584054 0.831573 -0.595570
F9    F     F_    0.652041 0.196939 0.403197 -0.539902
F10   F     F_    0.347457 0.803009 0.595824 -0.548766
S5    S     S_3+6 0.234274 0.182554 0.634326 0.105984
O21   O     O_2   0.283335 0.274362 0.681890 -0.316375
O22   O     O_2   0.168427 0.219258 0.575694 -0.248001
O23   O     O_3   0.135893 0.097729 0.710511 -0.385880
H9    H     H_    0.072823 0.137686 0.742822 0.392325
S6    S     S_3+6 0.765120 0.816996 0.364631 0.104910
O24   O     O_2   0.831113 0.780580 0.423287 -0.227275
O25   O     O_2   0.715958 0.724953 0.317336 -0.330655
O26   O     O_3   0.863427 0.901574 0.288201 -0.379287
H10   H     H_    0.926595 0.861604 0.256101 0.390676
F11   F     F_    0.748026 0.041319 0.368144 -0.475904
F12   F     F_    0.250319 0.957971 0.629120 -0.483148

loop_
_geom_bond_atom_site_label_1
_geom_bond_atom_site_label_2
_ccdc_geom_bond_type
S5    O21   D    
C17   S3    S    
C8    C13   A    
C5    C37   A    
C1    C8    S    
Cu1   Cu2   S    
C20   F1    S    
C2    C7    S    
O23   H9    S    
C31   F4    S    
O20   H8    S    
C27   C33   A    
S4    O19   D    
C17   C26   A    
C35   C37   A    
C9    C16   A    
C10   C15   A    
S1    O10   D    
C24   O6    A    
C15   C16   A    
C30   C38   A    
S3    O16   D    
C10   F12   S    
S2    O13   D    
C2    O2    A    
C17   C19   A    
C11   S6    S    
C7    C14   A    
O26   H10   S    
S4    O20   S    
C13   F10   S    
C6    C38   A    
C23   C27   S    
Cu1   O4    S    
C34   C36   A    
C12   S5    S    
Cu2   O3    S    
C21   N2    A    
C22   N1    A    
C28   C34   A    
C18   S4    S    
C18   C25   A    
C10   C12   A    
Cu1   O1    S    
C23   O5    A    
C7    C12   A    
S4    O18   D    
C27   C31   A    
C28   C32   A    
C4    C6    A    
C39   C40   A    
C19   N2    A    
S1    O11   S    
C25   C26   A    
S6    O26   S    
O11   H5    S    
C30   F6    S    
S3    O17   S    
C35   C39   A    
Cu1   O8    S    
C29   F5    S    
S2    O12   D    
Cu2   O7    S    
C9    C11   A    
C4    F8    S    
C4    C39   A    
C36   C40   A    
S6    O25   D    
Cu1   N1    S    
C19   F2    S    
Cu2   N2    S    
C1    O3    A    
Cu1   O5    S    
C2    O4    A    
Cu2   O2    S    
C3    C40   A    
C13   C15   A    
C3    F7    S    
C14   C16   A    
C21   H4    S    
C21   C25   A    
C9    F11   S    
S2    O14   S    
C33   H2    S    
C34   H1    S    
C24   C28   S    
C14   F9    S    
O17   H7    S    
C3    C5    A    
C23   O7    A    
C24   O8    A    
C5    S1    S    
C6    S2    S    
C36   C38   A    
C29   C31   A    
Cu2   O6    S    
C32   F3    S    
C30   C32   A    
S1    O9    D    
C8    C11   A    
S6    O24   D    
C33   C35   A    
C18   C20   A    
S3    O15   D    
C20   N1    A    
C22   H3    S    
O14   H6    S    
C22   C26   A    
S5    O23   S    
C29   C37   A    
S5    O22   D    
C1    O1    A    
