data_mof_unit_52003.cif
_audit_creation_date              2012-10-26T20:20:49-0400
_audit_creation_method            fapswitch 2.2
_symmetry_space_group_name_H-M    P1
_symmetry_Int_Tables_number       1
_space_group_crystal_system       triclinic
_cell_length_a                    8.945734
_cell_length_b                    10.68315
_cell_length_c                    9.705083
_cell_angle_alpha                 89.499298
_cell_angle_beta                  98.577023
_cell_angle_gamma                 89.905389
_cell_volume                      917.089331855

loop_
_atom_site_label
_atom_site_type_symbol
_atom_type_description
_atom_site_fract_x
_atom_site_fract_y
_atom_site_fract_z
_atom_type_partial_charge
C1    C     C_R   0.500287 0.262912 0.500490 0.543881
C2    C     C_R   0.622364 0.064975 0.459167 -0.062011
C3    C     C_R   0.499523 0.871072 0.498623 0.062188
C4    C     C_R   0.500829 0.128882 0.501481 0.070053
C5    C     C_R   0.476780 0.392249 0.069281 0.336091
C6    C     C_R   0.523075 0.607944 0.930624 0.335773
C7    C     C_R   0.508108 0.390727 0.930782 0.328690
C8    C     C_R   0.492339 0.609534 0.069407 0.358263
C9    C     C_R   0.499925 0.737071 0.499544 0.536817
C10   C     C_R   0.204848 0.499849 0.463946 0.540582
C11   C     C_R   0.795181 0.499709 0.536051 0.543284
C12   C     C_2   0.039920 0.501973 0.443304 0.154256
C13   C     C_2   0.960154 0.496725 0.556629 0.156954
C14   C     C_R   0.378532 0.064570 0.542096 -0.065787
C15   C     C_R   0.621521 0.935354 0.457401 -0.056253
C16   C     C_R   0.378224 0.934951 0.541329 -0.084665
Cu1   Cu    Cu3+1 0.500000 0.500020 0.640660 1.220733
Cu2   Cu    Cu3+1 0.500000 0.499980 0.359340 1.216789
H1    H     H_    0.284164 0.114721 0.573977 0.168335
H2    H     H_    0.217591 0.801820 0.228741 0.352783
H3    H     H_    0.715596 0.885193 0.424995 0.162110
H4    H     H_    0.283951 0.884464 0.573254 0.154093
H5    H     H_    0.716733 0.115459 0.427424 0.161240
H6    H     H_    0.035381 0.590958 0.078127 0.411722
H7    H     H_    0.965306 0.405257 0.921232 0.415996
H8    H     H_    0.392756 0.078564 0.192350 0.377661
H9    H     H_    0.789184 0.866862 0.008714 0.388945
H10   H     H_    0.503383 0.077290 0.903068 0.415563
N1    N     N_R   0.500040 0.500030 0.852080 -0.297527
N2    N     N_R   0.499960 0.499970 0.147920 -0.288186
O1    O     O_R   0.499990 0.319660 0.618740 -0.445767
O2    O     O_2   0.858069 0.631825 0.245249 -0.264992
O3    O     O_3   0.077276 0.525995 0.146649 -0.418054
O4    O     O_2   0.142515 0.365809 0.753555 -0.255273
O5    O     O_2   0.141707 0.594557 0.779536 -0.234434
O6    O     O_3   0.922705 0.470040 0.852788 -0.425781
O7    O     O_2   0.250578 0.302320 0.205024 -0.223684
O8    O     O_2   0.266858 0.220981 0.975931 -0.218781
O9    O     O_3   0.465923 0.145054 0.177648 -0.494599
O10   O     O_2   0.749855 0.698134 0.796093 -0.223644
O11   O     O_2   0.541409 0.840786 0.823929 -0.258222
O12   O     O_R   0.500010 0.680340 0.381260 -0.453270
O13   O     O_3   0.739429 0.790082 0.037205 -0.451560
O14   O     O_2   0.727573 0.283963 0.799254 -0.222043
O15   O     O_2   0.704434 0.209784 0.030974 -0.228574
O16   O     O_3   0.499141 0.142147 0.829087 -0.473702
O17   O     O_2   0.496239 0.844724 0.167207 -0.263159
O18   O     O_2   0.302711 0.795918 0.971444 -0.223909
O19   O     O_3   0.260537 0.718579 0.212773 -0.488457
O20   O     O_R   0.499990 0.319630 0.381170 -0.463882
O21   O     O_R   0.500010 0.680370 0.618830 -0.459274
O22   O     O_R   0.274840 0.500010 0.591370 -0.473335
O23   O     O_R   0.725160 0.499990 0.408630 -0.469720
O24   O     O_R   0.274830 0.499980 0.353800 -0.393369
O25   O     O_R   0.725170 0.500020 0.646200 -0.405507
O26   O     O_2   0.857962 0.402928 0.221609 -0.225210
S1    S     S_3+6 0.954522 0.515726 0.261674 0.071277
S2    S     S_3+6 0.045630 0.481729 0.738142 0.077482
S3    S     S_3+6 0.358787 0.265654 0.108506 0.105199
S4    S     S_3+6 0.639063 0.735547 0.889896 0.120623
S5    S     S_3+6 0.615984 0.256572 0.896257 0.123435
S6    S     S_3+6 0.388105 0.745651 0.105783 0.101812

loop_
_geom_bond_atom_site_label_1
_geom_bond_atom_site_label_2
_ccdc_geom_bond_type
C2    C4    A    
C16   H4    S    
H2    O19   S    
C7    N1    A    
C6    S4    S    
O14   S5    D    
Cu1   N1    S    
C1    O20   A    
Cu1   O25   S    
O18   S6    D    
H6    O3    S    
C9    O21   A    
C1    O1    A    
C10   O24   A    
C1    C4    S    
O9    S3    S    
C8    N2    A    
Cu1   O21   S    
O17   S6    D    
Cu1   Cu2   S    
C10   O22   A    
C12   C13   D    
C2    C15   A    
C11   C13   S    
H10   O16   S    
C9    O12   A    
O7    S3    D    
C10   C12   S    
O2    S1    D    
O5    S2    D    
Cu2   N2    S    
C12   S1    S    
O19   S6    S    
Cu1   O22   S    
O15   S5    D    
C3    C9    S    
O3    S1    S    
O6    S2    S    
Cu2   O12   S    
C4    C14   A    
Cu1   O1    S    
C14   C16   A    
H8    O9    S    
Cu2   O24   S    
O16   S5    S    
O8    S3    D    
O10   S4    D    
H9    O13   S    
C15   H3    S    
C6    N1    A    
C11   O25   A    
O26   S1    D    
Cu2   O20   S    
C5    C7    A    
C5    N2    A    
C2    H5    S    
O4    S2    D    
C5    S3    S    
C7    S5    S    
C3    C15   A    
C6    C8    A    
C13   S2    S    
H7    O6    S    
Cu2   O23   S    
C14   H1    S    
C3    C16   A    
O11   S4    D    
C8    S6    S    
O13   S4    S    
C11   O23   A    
