data_mof_unit_11406.cif
_audit_creation_date              2012-12-11T15:24:40-0500
_audit_creation_method            fapswitch 2.2
_symmetry_space_group_name_H-M    P1
_symmetry_Int_Tables_number       1
_space_group_crystal_system       triclinic
_cell_length_a                    22.929936
_cell_length_b                    6.959982
_cell_length_c                    20.701313
_cell_angle_alpha                 90.000021
_cell_angle_beta                  93.279043
_cell_angle_gamma                 90.000049
_cell_volume                      3298.3538359

loop_
_atom_site_label
_atom_site_type_symbol
_atom_type_description
_atom_site_fract_x
_atom_site_fract_y
_atom_site_fract_z
_atom_type_partial_charge
O1    O     O_R   0.188030 0.379840 0.189340 -0.546301
O2    O     O_R   0.811970 0.620160 0.810660 -0.539889
O3    O     O_R   0.311970 0.879840 0.310660 -0.546301
O4    O     O_R   0.688030 0.120160 0.689340 -0.539889
O5    O     O_R   0.307090 0.708420 0.185790 -0.537983
O6    O     O_R   0.692910 0.291580 0.814210 -0.542036
O7    O     O_R   0.192910 0.208420 0.314210 -0.537982
O8    O     O_R   0.807090 0.791580 0.685790 -0.542037
C1    C     C_R   0.326605 0.540722 0.170529 0.741023
C2    C     C_R   0.673373 0.459270 0.829449 0.744661
C3    C     C_R   0.173394 0.040722 0.329471 0.741023
C4    C     C_R   0.826627 0.959270 0.670551 0.744661
O9    O     O_R   0.188180 0.709480 0.181650 -0.536299
O10   O     O_R   0.811820 0.290520 0.818350 -0.544451
O11   O     O_R   0.311820 0.209480 0.318350 -0.536298
O12   O     O_R   0.688180 0.790520 0.681650 -0.544451
O13   O     O_R   0.192210 0.880960 0.306500 -0.540945
O14   O     O_R   0.807790 0.119040 0.693500 -0.535529
O15   O     O_R   0.307790 0.380960 0.193500 -0.540944
O16   O     O_R   0.692210 0.619040 0.806500 -0.535529
C5    C     C_R   0.168779 0.540323 0.164465 0.757340
C6    C     C_R   0.831239 0.459316 0.835560 0.756943
C7    C     C_R   0.331220 0.040323 0.335535 0.757340
C8    C     C_R   0.668761 0.959316 0.664440 0.756943
O17   O     O_3   0.251460 0.546730 0.290970 -0.375362
O18   O     O_3   0.748540 0.453270 0.709030 -0.376741
O19   O     O_3   0.248540 0.046730 0.209030 -0.375362
O20   O     O_3   0.751460 0.953270 0.790970 -0.376741
V1    V     V_3+5 0.249730 0.821120 0.242400 1.420629
V2    V     V_3+5 0.750270 0.178880 0.757600 1.416466
V3    V     V_3+5 0.250270 0.321120 0.257600 1.420630
V4    V     V_3+5 0.749730 0.678880 0.742400 1.416466
C9    C     C_R   0.564290 0.014122 0.634290 -0.201885
C10   C     C_R   0.437072 0.023818 0.364995 -0.204219
C11   C     C_R   0.935710 0.514121 0.865710 -0.201885
C12   C     C_R   0.062928 0.523820 0.135005 -0.204219
C13   C     C_R   0.619846 0.969219 0.614769 -0.170796
C14   C     C_R   0.380145 0.030230 0.385133 -0.174030
C15   C     C_R   0.880154 0.469220 0.885231 -0.170797
C16   C     C_R   0.119855 0.530229 0.114867 -0.174029
C17   C     C_R   0.628474 0.936308 0.548919 0.402972
C18   C     C_R   0.370159 0.023262 0.451507 0.414660
C19   C     C_R   0.871526 0.436308 0.951081 0.402971
C20   C     C_R   0.129841 0.523259 0.048493 0.414659
C21   C     C_R   0.581960 0.974231 0.501506 -0.133938
C22   C     C_R   0.418436 0.036599 0.498246 -0.126284
C23   C     C_R   0.918039 0.474231 0.998494 -0.133940
C24   C     C_R   0.081564 0.536596 0.001754 -0.126284
C25   C     C_R   0.524640 0.004725 0.522614 -0.074497
C26   C     C_R   0.476136 0.017346 0.476970 -0.076904
C27   C     C_R   0.975359 0.504724 0.977385 -0.074497
C28   C     C_R   0.023864 0.517346 0.023030 -0.076904
C29   C     C_R   0.515917 0.024706 0.589441 -0.007971
C30   C     C_R   0.485355 0.011274 0.409938 -0.008009
C31   C     C_R   0.984083 0.524704 0.910559 -0.007971
C32   C     C_R   0.014645 0.511275 0.090062 -0.008009
C33   C     C_R   0.590770 0.986581 0.434206 0.325002
C34   C     C_R   0.411165 0.070243 0.565037 0.330493
C35   C     C_R   0.909229 0.486583 0.065794 0.325004
C36   C     C_R   0.088835 0.570239 0.934963 0.330492
C37   C     C_R   0.542743 0.000471 0.388999 0.357356
C38   C     C_R   0.459424 0.061773 0.610097 0.356497
C39   C     C_R   0.957257 0.500474 0.111001 0.357355
C40   C     C_R   0.040576 0.561769 0.889903 0.356497
H1    H     H_    0.559388 0.036219 0.685433 0.179593
H2    H     H_    0.442822 0.025718 0.313483 0.179400
H3    H     H_    0.940612 0.536218 0.814566 0.179592
H4    H     H_    0.057177 0.525721 0.186517 0.179400
C41   C     C_3   0.048616 0.070641 0.530931 -0.115374
C42   C     C_3   0.951654 0.929121 0.469361 -0.110191
C43   C     C_3   0.451392 0.570720 0.969075 -0.115389
C44   C     C_3   0.548338 0.429043 0.030632 -0.110206
C45   C     C_3   0.016756 0.883889 0.549649 -0.124627
C46   C     C_3   0.983511 0.115870 0.450648 -0.121510
C47   C     C_3   0.483235 0.383956 0.950336 -0.124610
C48   C     C_3   0.516498 0.615803 0.049366 -0.121488
H5    H     H_    0.030219 0.787980 0.590682 0.153473
H6    H     H_    0.970048 0.211788 0.409619 0.152190
H7    H     H_    0.469765 0.288100 0.909292 0.153491
H8    H     H_    0.529969 0.711669 0.090408 0.152206
H9    H     H_    0.088840 0.129069 0.556087 0.149525
H10   H     H_    0.911436 0.870690 0.444194 0.152016
H11   H     H_    0.411174 0.629212 0.943924 0.149519
H12   H     H_    0.588549 0.370548 0.055795 0.152008
H13   H     H_    0.020537 0.678171 0.458592 0.128959
H14   H     H_    0.979737 0.321596 0.541700 0.128456
H15   H     H_    0.479431 0.178147 0.041367 0.128952
H16   H     H_    0.520296 0.821621 0.958341 0.128451
C49   C     C_1   0.872101 0.968912 0.624698 -0.160192
C50   C     C_1   0.128024 0.031008 0.375439 -0.165284
C51   C     C_1   0.627899 0.468913 0.875303 -0.160193
C52   C     C_1   0.371975 0.531007 0.124560 -0.165285
C53   C     C_3   0.989067 0.176104 0.522851 -0.142796
C54   C     C_3   0.011201 0.823657 0.477443 -0.144656
C55   C     C_3   0.510950 0.676117 0.977171 -0.142803
C56   C     C_3   0.488781 0.323645 0.022535 -0.144664
C57   C     C_3   0.957832 0.989493 0.540952 0.139941
C58   C     C_3   0.042433 0.010270 0.459341 0.140084
C59   C     C_3   0.542169 0.489494 0.959048 0.139942
C60   C     C_3   0.457566 0.510270 0.040659 0.140085
C61   C     C_1   0.910569 0.977901 0.586796 -0.019660
C62   C     C_1   0.089638 0.021930 0.413433 -0.022744
C63   C     C_1   0.589432 0.477902 0.913205 -0.019659
C64   C     C_1   0.410361 0.521930 0.086566 -0.022744
O21   O     O_3   0.683457 0.877579 0.532308 -0.563349
C65   C     C_3   0.681730 0.685938 0.508689 0.132123
H17   H     H_    0.710931 0.678825 0.467740 0.209802
H18   H     H_    0.637708 0.637650 0.489291 0.115742
C66   C     C_3   0.704905 0.546247 0.561002 -0.381385
H19   H     H_    0.746196 0.603106 0.584336 0.227811
H20   H     H_    0.671963 0.530287 0.597906 0.208905
C67   C     C_3   0.716705 0.348859 0.532750 -0.690010
H21   H     H_    0.675904 0.290662 0.508990 0.260890
H22   H     H_    0.732315 0.249616 0.571994 0.237827
H23   H     H_    0.750719 0.358318 0.496777 0.245969
O22   O     O_3   0.312965 0.003695 0.469036 -0.565861
C68   C     C_3   0.303868 0.816788 0.494193 0.121295
H24   H     H_    0.267825 0.827285 0.527678 0.196614
H25   H     H_    0.342373 0.759063 0.523327 0.140868
C69   C     C_3   0.285523 0.675076 0.440277 -0.401317
H26   H     H_    0.247336 0.733913 0.411439 0.221107
H27   H     H_    0.322293 0.653920 0.408382 0.208212
C70   C     C_3   0.269190 0.480111 0.467548 -0.680566
H28   H     H_    0.307490 0.416665 0.494886 0.276246
H29   H     H_    0.255512 0.381627 0.427304 0.242950
H30   H     H_    0.232489 0.495018 0.499958 0.231546
O23   O     O_3   0.816543 0.377578 0.967692 -0.563349
C71   C     C_3   0.818270 0.185937 0.991311 0.132123
H31   H     H_    0.789071 0.178824 0.032261 0.209803
H32   H     H_    0.862293 0.137647 0.010707 0.115739
C72   C     C_3   0.795093 0.046247 0.938998 -0.381383
H33   H     H_    0.753802 0.103106 0.915667 0.227807
H34   H     H_    0.828033 0.030289 0.902092 0.208907
C73   C     C_3   0.783295 0.848857 0.967251 -0.690007
H35   H     H_    0.824098 0.790660 0.991007 0.260887
H36   H     H_    0.767683 0.749616 0.928007 0.237825
H37   H     H_    0.749283 0.858313 0.003226 0.245972
O24   O     O_3   0.187035 0.503689 0.030965 -0.565861
C74   C     C_3   0.196131 0.316782 0.005808 0.121296
H38   H     H_    0.232173 0.327278 0.972321 0.196616
H39   H     H_    0.157625 0.259056 0.976674 0.140865
C75   C     C_3   0.214477 0.175072 0.059723 -0.401314
H40   H     H_    0.252665 0.233908 0.088559 0.221106
H41   H     H_    0.177707 0.153917 0.091619 0.208213
C76   C     C_3   0.230809 0.980105 0.032453 -0.680564
H42   H     H_    0.192508 0.916658 0.005116 0.276244
H43   H     H_    0.244488 0.881623 0.072696 0.242949
H44   H     H_    0.267509 0.995010 0.000040 0.231547
Cl1   Cl    Cl    0.661386 0.010819 0.404458 -0.524020
Cl2   Cl    Cl    0.343373 0.143962 0.593919 -0.531360
Cl3   Cl    Cl    0.838613 0.510822 0.095541 -0.524018
Cl4   Cl    Cl    0.156627 0.643957 0.906082 -0.531359
Cl5   Cl    Cl    0.555648 0.005886 0.305314 -0.540520
Cl6   Cl    Cl    0.448014 0.098752 0.693246 -0.546102
Cl7   Cl    Cl    0.944351 0.505891 0.194686 -0.540519
Cl8   Cl    Cl    0.051986 0.598745 0.806754 -0.546099

loop_
_geom_bond_atom_site_label_1
_geom_bond_atom_site_label_2
_ccdc_geom_bond_type
C34   C38   A    
C59   C63   S    
O1    C5    A    
O19   V1    S    
O13   V1    S    
O21   C65   S    
O3    C7    A    
C75   C76   S    
O1    V3    S    
C44   C48   S    
C72   C73   S    
O15   V3    S    
C71   H31   S    
C10   H2    S    
C73   H37   S    
C67   H22   S    
C76   H42   S    
C9    H1    S    
C70   H28   S    
C46   C58   S    
O7    C3    A    
C21   C33   A    
O5    C1    A    
C26   C30   A    
C47   H7    S    
C17   O21   S    
O9    V1    S    
C42   C54   S    
C14   C18   A    
C41   C53   S    
C66   H20   S    
C48   C55   S    
C36   Cl4   S    
C11   C15   A    
O4    C8    A    
C74   C75   S    
C55   C59   S    
C70   H29   S    
C43   C55   S    
C65   H17   S    
C54   C58   S    
C60   C64   S    
O22   C68   S    
O2    V4    S    
C18   C22   A    
O3    V1    S    
C50   C62   T    
C12   C16   A    
C28   C32   A    
C1    O15   A    
C2    O16   A    
C33   Cl1   S    
O2    C6    A    
C41   C45   S    
O14   V2    S    
C21   C25   A    
C16   C20   A    
C43   H11   S    
C69   C70   S    
C41   C58   S    
O11   C7    A    
H16   C55   S    
O12   C8    A    
C22   C34   A    
O17   V1    S    
C46   C53   S    
C45   C54   S    
O10   V2    S    
C1    C52   S    
C67   H21   S    
C76   H43   S    
C69   H27   S    
C47   C56   S    
C24   C36   A    
O5    V1    S    
C9    C29   A    
O7    V3    S    
C11   C31   A    
C27   C28   A    
O8    V4    S    
C4    C49   S    
O20   V4    S    
C66   C67   S    
C19   O23   S    
O18   V4    S    
C70   H30   S    
C23   C27   A    
C58   C62   S    
O19   V3    S    
C9    C13   A    
C38   Cl6   S    
C71   H32   S    
C45   C57   S    
C42   C46   S    
C12   C32   A    
H14   C53   S    
H13   C54   S    
C11   H3    S    
O8    C4    A    
C31   C40   A    
C47   C59   S    
C8    C13   S    
C32   C39   A    
O9    C5    A    
C17   C21   A    
C33   C37   A    
C34   Cl2   S    
C44   H12   S    
C18   O22   S    
O6    V2    S    
C42   C57   S    
C2    C51   S    
O18   V2    S    
C75   H41   S    
C68   C69   S    
C48   C60   S    
C72   H33   S    
C71   C72   S    
C53   C57   S    
C76   H44   S    
C69   H26   S    
O16   V4    S    
C22   C26   A    
C3    O13   A    
C20   O24   S    
C49   C61   T    
C10   C14   A    
O17   V3    S    
C48   H8    S    
C51   C63   T    
C72   H34   S    
C37   Cl5   S    
O6    C2    A    
C73   H36   S    
C74   H38   S    
C12   H4    S    
H15   C56   S    
O11   V3    S    
C73   H35   S    
C30   C37   A    
C35   Cl3   S    
O12   V4    S    
C7    C14   S    
C43   C60   S    
C40   Cl8   S    
C35   C39   A    
C36   C40   A    
O10   C6    A    
C68   H25   S    
C39   Cl7   S    
C3    C50   S    
C68   H24   S    
C43   C47   S    
C74   H39   S    
C10   C30   A    
C5    C16   S    
C65   H18   S    
C25   C29   A    
C6    C15   S    
C56   C60   S    
O20   V2    S    
C27   C31   A    
C13   C17   A    
C42   H10   S    
C57   C61   S    
C41   H9    S    
O24   C74   S    
C52   C64   T    
C23   C35   A    
C44   C56   S    
C20   C24   A    
C24   C28   A    
C15   C19   A    
C29   C38   A    
C25   C26   A    
C46   H6    S    
C4    O14   A    
C45   H5    S    
C75   H40   S    
C66   H19   S    
C19   C23   A    
C44   C59   S    
C67   H23   S    
O4    V2    S    
O23   C71   S    
C65   C66   S    
