data_mof_unit_59090.cif
_audit_creation_date              2012-12-10T16:39:34-0500
_audit_creation_method            fapswitch 2.2
_symmetry_space_group_name_H-M    P1
_symmetry_Int_Tables_number       1
_space_group_crystal_system       triclinic
_cell_length_a                    16.765713
_cell_length_b                    16.764905
_cell_length_c                    16.766308
_cell_angle_alpha                 65.954349
_cell_angle_beta                  65.955045
_cell_angle_gamma                 65.951541
_cell_volume                      3761.83093247

loop_
_atom_site_label
_atom_site_type_symbol
_atom_type_description
_atom_site_fract_x
_atom_site_fract_y
_atom_site_fract_z
_atom_type_partial_charge
C1    C     C_R   0.329267 0.938016 0.463090 0.015548
C2    C     C_R   0.329260 0.463107 0.938010 0.015581
C3    C     C_R   0.547071 0.413970 0.984729 0.030189
C4    C     C_R   0.015178 0.452957 0.586061 0.030177
C5    C     C_R   0.984822 0.547043 0.413939 0.030177
C6    C     C_1   0.380489 0.128232 0.762932 0.192855
C7    C     C_1   0.619511 0.871768 0.237068 0.192855
C8    C     C_1   0.128375 0.762882 0.380534 0.192759
C9    C     C_1   0.871625 0.237118 0.619466 0.192759
C10   C     C_1   0.762957 0.380466 0.128216 0.192834
C11   C     C_1   0.237042 0.619534 0.871784 0.192834
C12   C     C_1   0.237084 0.871741 0.619494 0.192832
C13   C     C_R   0.062032 0.670710 0.536904 0.015579
C14   C     C_1   0.762916 0.128258 0.380506 0.192832
C15   C     C_1   0.619515 0.237055 0.871746 0.192812
C16   C     C_1   0.380484 0.762944 0.128254 0.192812
C17   C     C_1   0.871873 0.619553 0.237023 0.192891
C18   C     C_1   0.128127 0.380447 0.762977 0.192891
C19   C     C_R   0.937968 0.329290 0.463096 0.015579
C20   C     C_R   0.460400 0.970783 0.460397 -0.054177
C21   C     C_R   0.539599 0.029216 0.539603 -0.054177
C22   C     C_R   0.970774 0.460409 0.460395 -0.054178
C23   C     C_R   0.029226 0.539591 0.539605 -0.054178
C24   C     C_R   0.460401 0.460405 0.970774 -0.054185
C25   C     C_R   0.539599 0.539595 0.029226 -0.054185
C26   C     C_R   0.961855 0.179749 0.438080 0.906288
C27   C     C_R   0.670733 0.061983 0.536910 0.015548
C28   C     C_R   0.038144 0.820251 0.561920 0.906288
C29   C     C_R   0.179746 0.438080 0.961859 0.906317
C30   C     C_R   0.820253 0.561920 0.038141 0.906317
C31   C     C_R   0.438074 0.961873 0.179745 0.906289
C32   C     C_R   0.561925 0.038126 0.820255 0.906288
C33   C     C_R   0.561919 0.820253 0.038144 0.906323
C34   C     C_R   0.438081 0.179747 0.961856 0.906323
C35   C     C_R   0.038127 0.561924 0.820256 0.906318
C36   C     C_R   0.961873 0.438076 0.179744 0.906318
C37   C     C_R   0.820253 0.038131 0.561925 0.906296
C38   C     C_R   0.938048 0.463102 0.329244 0.015547
C39   C     C_R   0.179747 0.961869 0.438075 0.906296
C40   C     C_R   0.417687 0.948631 0.417681 0.036777
C41   C     C_R   0.582313 0.051369 0.582319 0.036777
C42   C     C_R   0.948617 0.417700 0.417679 0.036776
C43   C     C_R   0.051383 0.582299 0.582321 0.036776
C44   C     C_R   0.417688 0.417694 0.948613 0.036769
C45   C     C_R   0.582312 0.582306 0.051387 0.036768
C46   C     C_R   0.279611 0.937429 0.410737 -0.119292
C47   C     C_R   0.720389 0.062571 0.589263 -0.119291
C48   C     C_R   0.937436 0.410747 0.279600 -0.119297
C49   C     C_R   0.061952 0.536898 0.670756 0.015547
C50   C     C_R   0.062564 0.589253 0.720399 -0.119297
C51   C     C_R   0.410750 0.279615 0.937400 -0.119296
C52   C     C_R   0.589250 0.720385 0.062600 -0.119296
C53   C     C_R   0.589260 0.062563 0.720395 -0.119306
C54   C     C_R   0.410740 0.937437 0.279605 -0.119306
C55   C     C_R   0.720389 0.589248 0.062591 -0.119311
C56   C     C_R   0.279611 0.410751 0.937408 -0.119311
C57   C     C_R   0.062599 0.720378 0.589258 -0.119312
C58   C     C_R   0.937401 0.279622 0.410742 -0.119312
C59   C     C_R   0.441921 0.069424 0.705520 -0.049102
C60   C     C_R   0.463103 0.329270 0.937994 0.015567
C61   C     C_R   0.558079 0.930576 0.294480 -0.049102
C62   C     C_R   0.069567 0.705459 0.441907 -0.049111
C63   C     C_R   0.930433 0.294541 0.558093 -0.049111
C64   C     C_R   0.705526 0.441904 0.069430 -0.049107
C65   C     C_R   0.294474 0.558096 0.930570 -0.049107
C66   C     C_R   0.294494 0.930551 0.558074 -0.049092
C67   C     C_R   0.705506 0.069449 0.441926 -0.049092
C68   C     C_R   0.558091 0.294488 0.930534 -0.049098
C69   C     C_R   0.441909 0.705511 0.069466 -0.049098
C70   C     C_R   0.930669 0.558076 0.294435 -0.049088
C71   C     C_R   0.536897 0.670730 0.062006 0.015568
C72   C     C_R   0.069331 0.441924 0.705565 -0.049088
C73   C     C_R   0.322743 0.931973 0.322739 -0.275094
C74   C     C_R   0.677257 0.068027 0.677261 -0.275094
C75   C     C_R   0.931954 0.322753 0.322741 -0.275127
C76   C     C_R   0.068046 0.677247 0.677259 -0.275126
C77   C     C_R   0.322754 0.322755 0.931927 -0.275172
C78   C     C_R   0.677246 0.677245 0.068073 -0.275172
C79   C     C_R   0.669954 0.034915 0.403818 0.061041
C80   C     C_R   0.330046 0.965085 0.596182 0.061042
C81   C     C_R   0.034741 0.403856 0.670029 0.061023
C82   C     C_R   0.536906 0.061972 0.670742 0.015562
C83   C     C_R   0.965259 0.596144 0.329971 0.061022
C84   C     C_R   0.403804 0.669962 0.034927 0.061061
C85   C     C_R   0.596196 0.330038 0.965073 0.061061
C86   C     C_R   0.596178 0.965117 0.330034 0.061038
C87   C     C_R   0.403822 0.034883 0.669966 0.061038
C88   C     C_R   0.330025 0.596193 0.965115 0.061053
C89   C     C_R   0.669975 0.403807 0.034885 0.061053
C90   C     C_R   0.964921 0.330108 0.596236 0.061065
C91   C     C_R   0.035079 0.669892 0.403763 0.061066
C92   C     C_R   0.716772 0.018711 0.318051 -0.194449
C93   C     C_R   0.463094 0.938028 0.329258 0.015562
C94   C     C_R   0.283228 0.981289 0.681949 -0.194449
C95   C     C_R   0.018383 0.318155 0.716912 -0.194426
C96   C     C_R   0.981617 0.681844 0.283088 -0.194425
C97   C     C_R   0.318034 0.716788 0.018721 -0.194483
C98   C     C_R   0.681966 0.283212 0.981279 -0.194483
C99   C     C_R   0.681937 0.981340 0.283212 -0.194448
C100  C     C_R   0.318063 0.018660 0.716788 -0.194448
C101  C     C_R   0.283197 0.681957 0.981345 -0.194478
C102  C     C_R   0.716803 0.318043 0.018655 -0.194478
C103  C     C_R   0.980995 0.283342 0.682067 -0.194469
C104  C     C_R   0.670740 0.536893 0.061990 0.015581
C105  C     C_R   0.019005 0.716658 0.317933 -0.194469
C106  C     C_R   0.547061 0.984753 0.413968 0.030187
C107  C     C_R   0.452939 0.015247 0.586032 0.030186
C108  C     C_R   0.984657 0.414001 0.547091 0.030192
C109  C     C_R   0.015343 0.585999 0.452908 0.030192
C110  C     C_R   0.413964 0.547069 0.984751 0.030191
C111  C     C_R   0.586036 0.452931 0.015249 0.030191
C112  C     C_R   0.586026 0.015264 0.452936 0.030185
C113  C     C_R   0.413974 0.984736 0.547064 0.030185
C114  C     C_R   0.452929 0.586030 0.015271 0.030189
H1    H     H_    0.283942 0.932840 0.283939 0.208818
H2    H     H_    0.967931 0.217927 0.721119 0.143658
H3    H     H_    0.782279 0.279037 0.031589 0.143629
H4    H     H_    0.217721 0.720962 0.968411 0.143629
H5    H     H_    0.217761 0.968340 0.720952 0.143653
H6    H     H_    0.782239 0.031660 0.279048 0.143653
H7    H     H_    0.720974 0.217742 0.968326 0.143629
H8    H     H_    0.279025 0.782258 0.031674 0.143629
H9    H     H_    0.968778 0.720802 0.217562 0.143610
H10   H     H_    0.031222 0.279197 0.782437 0.143610
H11   H     H_    0.716058 0.067160 0.716061 0.208818
H12   H     H_    0.932818 0.283949 0.283944 0.208805
H13   H     H_    0.067182 0.716051 0.716056 0.208804
H14   H     H_    0.283957 0.283955 0.932781 0.208796
H15   H     H_    0.716042 0.716045 0.067219 0.208796
H16   H     H_    0.279063 0.031597 0.782260 0.143652
H17   H     H_    0.720937 0.968403 0.217740 0.143652
H18   H     H_    0.032069 0.782073 0.278881 0.143658
N1    N     N_1   0.331587 0.175005 0.808943 -0.194001
N2    N     N_1   0.331586 0.808974 0.175009 -0.193999
N3    N     N_1   0.825114 0.668496 0.191010 -0.194002
N4    N     N_1   0.174886 0.331504 0.808990 -0.194002
N5    N     N_1   0.668412 0.824995 0.191057 -0.194001
N6    N     N_1   0.175152 0.808898 0.331682 -0.194004
N7    N     N_1   0.824848 0.191102 0.668318 -0.194003
N8    N     N_1   0.808985 0.331556 0.174969 -0.193995
N9    N     N_1   0.191015 0.668444 0.825031 -0.193995
N10   N     N_1   0.191076 0.824967 0.668387 -0.194003
N11   N     N_1   0.808924 0.175033 0.331613 -0.194003
N12   N     N_1   0.668414 0.191026 0.824991 -0.193999
O1    O     O_R   0.982940 0.138950 0.510160 -0.625778
O2    O     O_R   0.982940 0.510160 0.138950 -0.625837
O3    O     O_R   0.861050 0.017060 0.489840 -0.625804
O4    O     O_R   0.138950 0.982940 0.510160 -0.625804
O5    O     O_R   0.867700 0.025880 0.612340 -0.615093
O6    O     O_R   0.132300 0.974120 0.387660 -0.615093
O7    O     O_R   0.025880 0.612340 0.867700 -0.615101
O8    O     O_R   0.974120 0.387660 0.132300 -0.615101
O9    O     O_R   0.612340 0.867700 0.025880 -0.615096
O10   O     O_R   0.387660 0.132300 0.974120 -0.615097
O11   O     O_R   0.387660 0.974120 0.132300 -0.615099
O12   O     O_R   0.017060 0.861050 0.489840 -0.625778
O13   O     O_R   0.612340 0.025880 0.867700 -0.615098
O14   O     O_R   0.132300 0.387660 0.974120 -0.615098
O15   O     O_R   0.867700 0.612340 0.025880 -0.615098
O16   O     O_R   0.974120 0.132300 0.387660 -0.615093
O17   O     O_R   0.025880 0.867700 0.612340 -0.615093
O18   O     O_R   0.138950 0.510160 0.982940 -0.625818
O19   O     O_R   0.861050 0.489840 0.017060 -0.625818
O20   O     O_R   0.510160 0.982940 0.138950 -0.625813
O21   O     O_R   0.489840 0.017060 0.861050 -0.625813
O22   O     O_R   0.489840 0.861050 0.017060 -0.625808
O23   O     O_R   0.510160 0.138950 0.982940 -0.625808
O24   O     O_R   0.017060 0.489840 0.861050 -0.625837
Zn1   Zn    Zn3+2 0.004880 0.004880 0.583590 0.980128
Zn2   Zn    Zn3+2 0.995120 0.995120 0.416410 0.980128
Zn3   Zn    Zn3+2 0.004880 0.583590 0.004880 0.980117
Zn4   Zn    Zn3+2 0.995120 0.416410 0.995120 0.980117
Zn5   Zn    Zn3+2 0.583590 0.004880 0.004880 0.980120
Zn6   Zn    Zn3+2 0.416410 0.995120 0.995120 0.980120

loop_
_geom_bond_atom_site_label_1
_geom_bond_atom_site_label_2
_ccdc_geom_bond_type
C95   H10   S    
C98   H7    S    
C77   H14   S    
C96   C105  A    
C38   C70   A    
C89   C102  A    
C3    C85   A    
C91   C105  A    
C33   O22   A    
C59   C82   A    
C40   C93   A    
C2    C65   A    
C16   N2    T    
C88   C101  A    
C23   C43   A    
C22   C108  A    
C106  C112  A    
C28   C57   S    
C33   C52   S    
C4    C108  A    
C39   O6    A    
C34   C51   S    
O15   Zn3   S    
C79   C112  A    
O5    Zn1   S    
C101  H4    S    
C64   C89   A    
C57   C76   A    
C78   H15   S    
C38   C42   A    
C6    N1    T    
C20   C113  A    
C81   C95   A    
C61   C93   A    
C1    C46   A    
C74   H11   S    
C13   C57   A    
C83   C96   A    
O9    Zn5   S    
O7    Zn3   S    
C8    N6    T    
C87   C100  A    
C69   C71   A    
C7    C61   S    
C54   C93   A    
C85   C98   A    
C1    C40   A    
C31   O20   A    
C107  C113  A    
O18   Zn3   S    
C53   C74   A    
C19   C63   A    
C49   C72   A    
C39   O4    A    
C28   O17   A    
C14   C67   S    
C26   O16   A    
C37   C47   S    
C110  C114  A    
C100  H16   S    
C38   C48   A    
C72   C81   A    
O3    Zn2   S    
O23   Zn5   S    
C88   C110  A    
C17   C70   S    
O2    Zn3   S    
C68   C85   A    
C48   C75   A    
C3    C24   A    
C86   C106  A    
C35   O7    A    
C30   O19   A    
C52   C78   A    
C6    C59   S    
C64   C104  A    
C95   C103  A    
C58   C75   A    
O4    Zn1   S    
C105  H18   S    
C20   C106  A    
C34   O10   A    
C19   C58   A    
C18   C72   S    
C30   O15   A    
C23   C109  A    
O1    Zn1   S    
O22   Zn6   S    
O10   Zn6   S    
C24   C110  A    
C2    C44   A    
C7    N5    T    
C55   C78   A    
C43   C49   A    
O21   Zn6   S    
C98   C102  A    
C12   C66   S    
C55   C104  A    
C56   C77   A    
C15   C68   S    
C53   C82   A    
C26   O1    A    
C51   C77   A    
C17   N3    T    
C97   H8    S    
C86   C99   A    
C45   C104  A    
C50   C76   A    
C54   C73   A    
C11   N9    T    
C94   H5    S    
C27   C41   A    
C94   C100  A    
C28   O12   A    
C62   C91   A    
C35   C50   S    
C1    C66   A    
C67   C79   A    
O20   Zn5   S    
O8    Zn4   S    
C37   O3    A    
C18   N4    T    
C70   C83   A    
C26   C58   S    
C79   C92   A    
C21   C107  A    
C102  H3    S    
C39   C46   S    
C21   C41   A    
C13   C62   A    
O11   Zn6   S    
C36   O2    A    
C8    C62   S    
C10   N8    T    
C24   C44   A    
C3    C111  A    
C84   C97   A    
C80   C94   A    
C34   O23   A    
C25   C45   A    
C32   C53   S    
C13   C43   A    
C21   C112  A    
C45   C71   A    
C65   C88   A    
C35   O24   A    
C32   O13   A    
C27   C47   A    
C4    C23   A    
C14   N11   T    
C84   C114  A    
C96   H9    S    
C9    C63   S    
C29   O18   A    
C36   O8    A    
C16   C69   S    
C47   C74   A    
C37   O5    A    
C31   O11   A    
C19   C42   A    
C5    C83   A    
C29   O14   A    
C5    C22   A    
C29   C56   S    
C66   C80   A    
C30   C55   S    
C89   C111  A    
C10   C64   S    
C73   H1    S    
C99   H17   S    
C75   H12   S    
C91   C109  A    
C103  H2    S    
C92   H6    S    
O17   Zn1   S    
C69   C84   A    
C2    C56   A    
C25   C114  A    
C9    N7    T    
O14   Zn4   S    
O6    Zn2   S    
C5    C109  A    
C44   C60   A    
O19   Zn4   S    
C20   C40   A    
C41   C82   A    
C4    C81   A    
C63   C90   A    
O12   Zn2   S    
C12   N10   T    
C36   C48   S    
C33   O9    A    
C31   C54   S    
C59   C87   A    
C90   C103  A    
C27   C67   A    
C61   C86   A    
C25   C111  A    
C90   C108  A    
C15   N12   T    
O24   Zn4   S    
C87   C107  A    
C80   C113  A    
C60   C68   A    
C49   C50   A    
C22   C42   A    
C52   C71   A    
C76   H13   S    
O16   Zn2   S    
C51   C60   A    
C32   O21   A    
C46   C73   A    
C97   C101  A    
C11   C65   S    
C92   C99   A    
O13   Zn5   S    
