data_mof_unit_57867.cif
_audit_creation_date              2013-03-05T15:52:55-0500
_audit_creation_method            fapswitch 2.2
_symmetry_space_group_name_H-M    P1
_symmetry_Int_Tables_number       1
_space_group_crystal_system       triclinic
_cell_length_a                    14.994455
_cell_length_b                    10.630221
_cell_length_c                    9.960162
_cell_angle_alpha                 91.344221
_cell_angle_beta                  90.405181
_cell_angle_gamma                 93.012433
_cell_volume                      1584.90880632

loop_
_atom_site_label
_atom_site_type_symbol
_atom_site_description
_atom_site_fract_x
_atom_site_fract_y
_atom_site_fract_z
_atom_type_partial_charge
O1    O     O_R   0.500000 0.316780 0.614690 -0.588690
O2    O     O_R   0.499990 0.316750 0.385360 -0.645024
C1    C     C_R   0.498662 0.260590 0.497626 0.864948
O3    O     O_R   0.367850 0.499980 0.614680 -0.628518
O4    O     O_R   0.367840 0.499960 0.385350 -0.652012
C2    C     C_R   0.326801 0.501380 0.499620 0.915460
Zn1   Zn    Zn3+2 0.500010 0.500020 0.653130 0.997959
Zn2   Zn    Zn3+2 0.499990 0.499980 0.346870 0.943708
O5    O     O_R   0.500010 0.683250 0.614640 -0.566276
O6    O     O_R   0.500000 0.683220 0.385310 -0.608109
O7    O     O_R   0.632160 0.500040 0.614650 -0.626784
O8    O     O_R   0.632150 0.500020 0.385320 -0.639651
C3    C     C_R   0.508828 0.739652 0.502334 0.846423
C4    C     C_R   0.673136 0.498496 0.500076 0.874198
C5    C     C_R   0.814412 0.470439 0.618995 -0.217769
C6    C     C_R   0.768679 0.489073 0.498918 -0.037869
C7    C     C_R   0.814179 0.498218 0.376938 -0.259065
C8    C     C_R   0.906236 0.495161 0.375187 0.115058
C9    C     C_R   0.952885 0.484368 0.497437 0.059167
C10   C     C_R   0.906702 0.471277 0.619751 0.118244
C11   C     C_R   0.952390 0.505993 0.253867 -0.211807
C12   C     C_R   0.045158 0.508510 0.253873 -0.214767
C13   C     C_R   0.091996 0.501474 0.375347 0.119569
C14   C     C_R   0.045771 0.489064 0.497690 0.062208
C15   C     C_R   0.092454 0.483643 0.620587 0.105488
C16   C     C_R   0.046302 0.470068 0.741586 -0.210285
C17   C     C_R   0.953517 0.462806 0.741023 -0.208320
C18   C     C_R   0.184439 0.506990 0.376841 -0.284647
C19   C     C_R   0.230599 0.500987 0.498850 -0.053773
C20   C     C_R   0.184717 0.492106 0.620306 -0.191241
H1    H     H_    0.778342 0.510025 0.283469 0.160332
H2    H     H_    0.916831 0.513575 0.159490 0.142822
H3    H     H_    0.080233 0.517374 0.159466 0.148873
H4    H     H_    0.220187 0.516646 0.283177 0.176796
H5    H     H_    0.220572 0.490881 0.714762 0.170914
H6    H     H_    0.081883 0.465427 0.836316 0.143036
H7    H     H_    0.918459 0.453056 0.835337 0.140911
H8    H     H_    0.366981 0.095598 0.438433 0.131711
C21   C     C_R   0.669935 0.151751 0.500554 -0.161094
H9    H     H_    0.670220 0.249146 0.473063 0.128707
C22   C     C_R   0.751571 0.099264 0.521360 -0.163062
H10   H     H_    0.813008 0.156660 0.512723 0.156013
C23   C     C_R   0.753687 0.975969 0.563626 -0.163068
H11   H     H_    0.817298 0.941893 0.594709 0.180474
C24   C     C_R   0.673957 0.902702 0.580265 -0.054796
C25   C     C_R   0.591621 0.948545 0.534227 0.021981
C26   C     C_R   0.589480 0.077550 0.508781 0.102939
C27   C     C_R   0.506251 0.128945 0.490167 -0.032827
C28   C     C_R   0.429050 0.054461 0.465017 -0.206599
H12   H     H_    0.371999 0.867876 0.449640 0.143203
C29   C     C_R   0.432041 0.926298 0.471936 -0.156784
C30   C     C_R   0.511475 0.873432 0.508817 -0.061109
H13   H     H_    0.624433 0.599073 0.128232 0.144696
C31   C     C_R   0.361545 0.374022 0.138906 -0.121201
H14   H     H_    0.369970 0.340912 0.238558 0.198687
C32   C     C_R   0.280237 0.345801 0.075560 -0.237796
H15   H     H_    0.224529 0.304946 0.131149 0.166758
C33   C     C_R   0.273879 0.356873 0.937849 -0.268877
H16   H     H_    0.213115 0.318205 0.889428 0.174869
C34   C     C_R   0.352523 0.376379 0.863922 -0.000396
C35   C     C_R   0.428838 0.439724 0.927352 0.090304
C36   C     C_R   0.430617 0.439340 0.071426 0.170156
N1    N     N_R   0.499150 0.498800 0.142780 -0.122250
C37   C     C_R   0.568403 0.554256 0.073424 -0.104163
C38   C     C_R   0.569030 0.552236 0.930869 -0.045627
N2    N     N_R   0.499120 0.498720 0.857170 -0.123773
H17   H     H_    0.778534 0.459269 0.712497 0.151970
C39   C     C_2   0.677950 0.803913 0.680874 0.890583
O9    O     O_2   0.621392 0.796935 0.768421 -0.608820
O10   O     O_R   0.753212 0.732318 0.688428 -0.825289
H18   H     H_    0.753834 0.679616 0.771785 0.325326
C40   C     C_2   0.360676 0.269965 0.769231 0.981324
O11   O     O_2   0.414369 0.190298 0.792716 -0.606280
O12   O     O_R   0.296872 0.248698 0.667142 -0.845765
H19   H     H_    0.298213 0.161295 0.625285 0.327602
H20   H     H_    0.626487 0.592324 0.880047 0.160765

loop_
_geom_bond_atom_site_label_1
_geom_bond_atom_site_label_2
_geom_bond_distance
_ccdc_geom_bond_type
C40   O12   1.397516 S    
C8    C11   1.400832 A    
C22   H10   1.082957 S    
C9    C10   1.411673 A    
C21   C22   1.387907 A    
H8    C28   1.082702 S    
C24   C25   1.427469 A    
Zn1   O7    2.020892 S    
C16   C17   1.389301 A    
C36   N1    1.364160 A    
C38   H20   1.076002 S    
C20   H5    1.080944 S    
C18   C19   1.398682 A    
O4    C2    1.297828 A    
O7    C4    1.300061 A    
C34   C40   1.466352 S    
C33   C34   1.403380 A    
C5    C6    1.397729 A    
C25   C30   1.425175 A    
C1    C27   1.410245 S    
C32   H15   1.082880 S    
C8    C9    1.409974 A    
O5    C3    1.285852 A    
C25   C26   1.402392 A    
C35   N2    1.397871 A    
C39   O9    1.221444 D    
C28   C29   1.368818 A    
C13   C14   1.411587 A    
O10   H18   1.012680 S    
C18   H4    1.083495 S    
C11   C12   1.389851 A    
C22   C23   1.387835 A    
O3    Zn1   2.015647 S    
C7    C8    1.382659 A    
C5    C10   1.383374 A    
C11   H2    1.084144 S    
C31   C32   1.384282 A    
O12   H19   1.010633 S    
C29   C30   1.394011 A    
C14   C15   1.409639 A    
O3    C2    1.297766 A    
C21   H9    1.076918 S    
C6    C7    1.400448 A    
C31   C36   1.400960 A    
C15   C16   1.400576 A    
C34   C35   1.432072 A    
O1    C1    1.297079 A    
C23   H11   1.083608 S    
C19   C20   1.398549 A    
C3    C30   1.420513 S    
C26   C27   1.401224 A    
Zn2   O8    2.015649 S    
C5    H17   1.084614 S    
C24   C39   1.471628 S    
H12   C29   1.085117 S    
C13   C18   1.384248 A    
C23   C24   1.405109 A    
C16   H6    1.084045 S    
C27   C28   1.385624 A    
O8    C4    1.294742 A    
C7    H1    1.084759 S    
C4    C6    1.441466 S    
C21   C26   1.410196 A    
C15   C20   1.381665 A    
Zn1   O5    1.993948 S    
C12   H3    1.084259 S    
C31   H14   1.069714 S    
O1    Zn1   1.976313 S    
O2    Zn2   1.993948 S    
C40   O11   1.224089 D    
O6    C3    1.301014 A    
O4    Zn2   2.020892 S    
C10   C17   1.399865 A    
C37   C38   1.419633 A    
O2    C1    1.279664 A    
C33   H16   1.084815 S    
Zn1   N2    2.032776 S    
C17   H7    1.084132 S    
H13   C37   1.081699 S    
C32   C33   1.382451 A    
C9    C14   1.391027 A    
C35   C36   1.435161 A    
Zn2   N1    2.032460 S    
N1    C37   1.366722 A    
C2    C19   1.442252 S    
Zn2   O6    1.976313 S    
C38   N2    1.366805 A    
C39   O10   1.396492 S    
C12   C13   1.400156 A    
