data_mof_unit_64970.cif
_audit_creation_date              2012-12-10T19:05:41-0500
_audit_creation_method            fapswitch 2.2
_symmetry_space_group_name_H-M    P1
_symmetry_Int_Tables_number       1
_space_group_crystal_system       triclinic
_cell_length_a                    10.536863
_cell_length_b                    13.07202
_cell_length_c                    13.654076
_cell_angle_alpha                 85.52826
_cell_angle_beta                  90.025522
_cell_angle_gamma                 92.405488
_cell_volume                      1873.30155545

loop_
_atom_site_label
_atom_site_type_symbol
_atom_type_description
_atom_site_fract_x
_atom_site_fract_y
_atom_site_fract_z
_atom_type_partial_charge
C1    C     C_R   0.498603 0.481051 0.684962 0.918404
C2    C     C_R   0.501397 0.518949 0.315038 0.918404
C3    C     C_2   0.463733 0.033382 0.473122 0.415977
C4    C     C_2   0.536267 0.966618 0.526878 0.415977
C5    C     C_1   0.526099 0.854614 0.519479 0.204547
C6    C     C_1   0.473901 0.145386 0.480521 0.204547
C7    C     C_R   0.742781 0.499102 0.500007 1.032620
C8    C     C_R   0.257219 0.500898 0.499993 1.032620
C9    C     C_3   0.955598 0.401304 0.494416 -0.410821
C10   C     C_3   0.044402 0.598696 0.505584 -0.410821
C11   C     C_3   0.039416 0.441350 0.577094 0.598714
C12   C     C_3   0.960584 0.558650 0.422906 0.598714
C13   C     C_3   0.122983 0.502590 0.500113 -0.413463
C14   C     C_3   0.877017 0.497410 0.499887 -0.413463
C15   C     C_3   0.040443 0.464142 0.417526 0.594774
C16   C     C_3   0.959557 0.535858 0.582474 0.594774
C17   C     C_1   0.502745 0.534323 0.212193 -0.114690
C18   C     C_1   0.497255 0.465676 0.787807 -0.114690
C19   C     C_2   0.503916 0.545077 0.020954 0.162932
C20   C     C_2   0.496083 0.454923 0.979046 0.162932
C21   C     C_1   0.496391 0.456676 0.875018 0.057045
C22   C     C_1   0.503609 0.543323 0.124982 0.057045
H1    H     H_    0.916918 0.321501 0.489905 0.239825
H2    H     H_    0.083082 0.678499 0.510096 0.239825
N1    N     N_1   0.479750 0.234530 0.484780 -0.084299
N2    N     N_1   0.520250 0.765470 0.515220 -0.084299
O1    O     O_R   0.492590 0.402510 0.634760 -0.601087
O2    O     O_R   0.507410 0.597490 0.365240 -0.601087
O3    O     O_R   0.505590 0.572960 0.644530 -0.607841
O4    O     O_R   0.494410 0.427040 0.355470 -0.607841
O5    O     O_R   0.679550 0.414790 0.495140 -0.624285
O6    O     O_R   0.320450 0.585210 0.504860 -0.624285
O7    O     O_R   0.692550 0.585240 0.504910 -0.572414
O8    O     O_R   0.307450 0.414760 0.495090 -0.572414
Zn1   Zn    Zn3+2 0.491320 0.386190 0.493470 1.068046
Zn2   Zn    Zn3+2 0.508680 0.613810 0.506530 1.068046
F1    F     F_    0.084758 0.382674 0.657189 -0.595536
F2    F     F_    0.915242 0.617326 0.342811 -0.595535
F3    F     F_    0.086855 0.429110 0.332096 -0.598821
F4    F     F_    0.913145 0.570890 0.667904 -0.598821
C23   C     C_3   0.486902 0.351921 0.037624 -0.789390
H3    H     H_    0.481396 0.287997 0.988485 0.257333
H4    H     H_    0.572003 0.342403 0.084953 0.247359
H5    H     H_    0.400272 0.346459 0.084361 0.256688
C24   C     C_3   0.513098 0.648079 0.962376 -0.789390
H6    H     H_    0.518604 0.712003 0.011515 0.257333
H7    H     H_    0.599728 0.653540 0.915639 0.256688
H8    H     H_    0.427997 0.657597 0.915047 0.247360
F5    F     F_    0.622718 0.003312 0.590773 -0.641617
F6    F     F_    0.377282 0.996687 0.409227 -0.641617

loop_
_geom_bond_atom_site_label_1
_geom_bond_atom_site_label_2
_ccdc_geom_bond_type
C9    C14   S    
C19   C24   S    
C8    C13   S    
C17   C22   T    
C18   C21   T    
C23   H4    S    
C11   C16   S    
C19   C20   D    
C12   C15   S    
C4    F5    S    
C2    O4    A    
C3    C6    S    
C10   H2    S    
O7    Zn2   S    
C1    O3    A    
C20   C23   S    
C9    C15   S    
C10   C16   S    
C8    O8    A    
C24   H6    S    
C2    C17   S    
C11   C13   S    
O3    Zn2   S    
C15   F3    S    
C1    C18   S    
C10   C12   S    
O4    Zn1   S    
N1    Zn1   S    
C9    C11   S    
N2    Zn2   S    
C3    F6    S    
C12   C14   S    
C14   C16   S    
C24   H7    S    
C13   C15   S    
C12   F2    S    
C23   H5    S    
O5    Zn1   S    
C6    N1    T    
C7    O5    A    
C7    O7    A    
C5    N2    T    
C8    O6    A    
O6    Zn2   S    
C16   F4    S    
C19   C22   S    
C20   C21   S    
O2    Zn2   S    
C11   F1    S    
O8    Zn1   S    
C23   H3    S    
C24   H8    S    
C1    O1    A    
C9    H1    S    
C2    O2    A    
O1    Zn1   S    
C7    C14   S    
C3    C4    D    
C4    C5    S    
C10   C13   S    
