data_mof_unit_20412.cif
_audit_creation_date              2013-03-05T16:18:53-0500
_audit_creation_method            fapswitch 2.2
_symmetry_space_group_name_H-M    P1
_symmetry_Int_Tables_number       1
_space_group_crystal_system       triclinic
_cell_length_a                    8.438234
_cell_length_b                    18.848516
_cell_length_c                    22.682012
_cell_angle_alpha                 99.517881
_cell_angle_beta                  90.246134
_cell_angle_gamma                 92.255565
_cell_volume                      3554.90156564

loop_
_atom_site_label
_atom_site_type_symbol
_atom_site_description
_atom_site_fract_x
_atom_site_fract_y
_atom_site_fract_z
_atom_type_partial_charge
P1    P     P_3+3 0.935930 0.665430 0.555670 0.466701
O1    O     O_2   0.110690 0.676100 0.539200 -0.381067
O2    O     O_3   0.863220 0.586720 0.534720 -0.329561
O3    O     O_3   0.368310 0.629070 0.432760 -0.390656
O4    O     O_2   0.245520 0.756913 0.464424 -0.438718
O5    O     O_3   0.935246 0.661808 0.634014 -0.646189
O6    O     O_3   0.381080 0.738280 0.359446 -0.519219
H1    H     H_    0.251551 0.643501 0.331942 0.093368
C1    C     C_3   0.336652 0.688420 0.255604 0.176670
H2    H     H_    0.337272 0.636607 0.224162 0.056683
H3    H     H_    0.219496 0.711620 0.251007 0.052811
P2    P     P_3+3 0.382700 0.439650 0.365620 0.462128
P3    P     P_3+3 0.945776 0.584671 0.323473 0.449181
O7    O     O_2   0.210480 0.460990 0.358130 -0.396058
O8    O     O_3   0.959520 0.592090 0.401630 -0.364785
O9    O     O_2   0.077862 0.536201 0.295030 -0.443832
O10   O     O_3   0.383602 0.344883 0.352837 -0.606514
O11   O     O_3   0.987843 0.668163 0.300017 -0.650746
C2    C     C_3   0.945824 0.727088 0.343357 0.646869
H4    H     H_    0.991024 0.721680 0.388507 0.064634
C3    C     C_3   0.022598 0.796840 0.327554 0.035472
H5    H     H_    0.152830 0.794072 0.330370 0.109835
C4    C     C_3   0.809465 0.370533 0.342105 0.390725
H6    H     H_    0.691706 0.383549 0.361169 0.121089
H7    H     H_    0.892239 0.418538 0.350976 0.104378
C5    C     C_3   0.790591 0.347218 0.274806 -0.950506
H8    H     H_    0.709427 0.298719 0.265156 0.294101
H9    H     H_    0.740398 0.390786 0.254131 0.215768
H10   H     H_    0.907759 0.334296 0.254476 0.252551
Ba1   Ba    Ba6+2 0.157800 0.534120 0.474430 1.600397
C6    C     C_3   0.952031 0.725471 0.678853 1.069902
C7    C     C_3   0.831049 0.783914 0.673346 0.005736
H11   H     H_    0.709604 0.761337 0.675896 0.069086
H12   H     H_    0.839479 0.800150 0.629648 0.061747
C8    C     C_3   0.262685 0.311823 0.312425 1.000299
H13   H     H_    0.144270 0.332371 0.326219 0.021928
C9    C     C_3   0.292634 0.324073 0.248168 -0.869038
H14   H     H_    0.221272 0.369118 0.238738 0.195747
H15   H     H_    0.251366 0.276069 0.215209 0.257291
H16   H     H_    0.421423 0.334672 0.240888 0.257248
P4    P     P_3+3 0.874370 0.334570 0.444280 0.492145
O12   O     O_2   0.699610 0.323860 0.460780 -0.325921
O13   O     O_3   0.947090 0.413280 0.465240 -0.395532
O14   O     O_3   0.442000 0.370930 0.567190 -0.354870
O15   O     O_3   0.870217 0.313629 0.366210 -0.570588
P5    P     P_3+3 0.873699 0.426279 0.676587 0.485438
O16   O     O_3   0.359410 0.538600 0.570730 -0.384342
O17   O     O_3   0.850780 0.407910 0.598320 -0.324576
O18   O     O_2   0.710975 0.453220 0.698946 -0.410515
O19   O     O_3   0.872815 0.345755 0.706792 -0.519123
Ba2   Ba    Ba6+2 0.652390 0.465870 0.525520 1.632496
P6    P     P_3+3 0.391958 0.721536 0.433284 0.462081
C10   C     C_3   0.356902 0.673259 0.319353 0.393628
H17   H     H_    0.457074 0.637674 0.319726 0.107004
O20   O     O_3   0.450900 0.461390 0.429220 -0.350492
C11   C     C_3   0.487063 0.686433 0.601964 0.460929
H18   H     H_    0.610075 0.674124 0.589672 0.029432
H19   H     H_    0.404098 0.660897 0.565577 0.142569
C12   C     C_3   0.464847 0.767414 0.609527 -0.993460
H20   H     H_    0.566628 0.795595 0.591455 0.189085
H21   H     H_    0.356921 0.777027 0.584694 0.253784
H22   H     H_    0.452638 0.791782 0.657112 0.316259
P7    P     P_3+3 0.428221 0.569545 0.643555 0.490756
O21   O     O_2   0.599830 0.538970 0.641850 -0.370685
O22   O     O_3   0.459150 0.662753 0.656332 -0.527763
H23   H     H_    0.988905 0.801168 0.280747 0.125427
C13   C     C_3   0.965083 0.292150 0.674044 0.615588
H24   H     H_    0.067115 0.316443 0.652609 -0.009716
C14   C     C_3   0.026855 0.245257 0.718221 0.229892
H25   H     H_    0.924943 0.212104 0.731593 0.088006
H26   H     H_    0.115887 0.208728 0.694973 0.066189
P8    P     P_3+3 0.413110 0.276138 0.557189 0.516375
C15   C     C_3   0.496766 0.283125 0.670277 0.939258
O23   O     O_2   0.518374 0.245138 0.504634 -0.362685
O24   O     O_3   0.489417 0.236111 0.615506 -0.595982
H27   H     H_    0.586545 0.326579 0.666282 0.112278
C16   C     C_3   0.549976 0.239348 0.718036 0.033892
H28   H     H_    0.634860 0.198675 0.698462 0.131454
H29   H     H_    0.443775 0.209258 0.731920 0.081889
C17   C     C_R   0.993485 0.951375 0.521117 -0.008626
C18   C     C_R   0.085584 0.903851 0.546902 0.147351
C19   C     C_R   0.234809 0.927635 0.571735 -0.135160
C20   C     C_R   0.293168 0.997466 0.570391 -0.217007
C21   C     C_R   0.201615 0.045621 0.545558 0.130804
C22   C     C_R   0.051215 0.022845 0.520834 0.013657
C23   C     C_R   0.258240 0.116339 0.546066 -0.234715
C24   C     C_R   0.163770 0.167293 0.525458 -0.024158
C25   C     C_R   0.015817 0.143567 0.497430 0.069685
C26   C     C_R   0.960565 0.070996 0.494894 0.046451
C27   C     C_R   0.212013 0.241137 0.532082 0.175094
C28   C     C_R   0.112189 0.289767 0.512592 -0.459992
C29   C     C_R   0.973337 0.266437 0.480207 0.296498
C30   C     C_R   0.924208 0.191979 0.471422 -0.056282
C31   C     C_R   0.844598 0.927475 0.495597 0.048238
C32   C     C_R   0.787272 0.855388 0.495721 0.047773
C33   C     C_R   0.881741 0.806852 0.521067 -0.073376
C34   C     C_R   0.028642 0.833198 0.547179 -0.114356
H30   H     H_    0.307094 0.892715 0.592533 0.160837
H31   H     H_    0.409175 0.014135 0.589676 0.146905
H32   H     H_    0.150859 0.345916 0.517718 0.175628
H33   H     H_    0.375825 0.130443 0.563485 0.198347
H34   H     H_    0.101013 0.799224 0.568099 0.171117
C35   C     C_R   0.788000 0.164132 0.437430 -0.057998
C36   C     C_R   0.733757 0.091454 0.433590 -0.058153
C37   C     C_R   0.815662 0.046197 0.466098 -0.027968
C38   C     C_R   0.756558 0.974863 0.467579 0.029850
C39   C     C_R   0.598682 0.062409 0.398682 0.324507
C40   C     C_R   0.534853 0.993979 0.405050 -0.282058
C41   C     C_R   0.611637 0.950281 0.439440 0.084560
C42   C     C_R   0.636590 0.832163 0.470072 -0.033607
C43   C     C_R   0.549742 0.880690 0.442766 -0.105856
C44   C     C_R   0.581789 0.759951 0.469552 0.291071
C45   C     C_R   0.681142 0.711665 0.491178 -0.386684
C46   C     C_R   0.826037 0.733901 0.520001 0.100549
H35   H     H_    0.720514 0.199445 0.415399 0.201994
H36   H     H_    0.430108 0.972509 0.379615 0.165272
H37   H     H_    0.435883 0.864219 0.421904 0.164960
H38   H     H_    0.642383 0.655614 0.486893 0.163241
H39   H     H_    0.269934 0.351042 0.045510 0.168164
H40   H     H_    0.172913 0.355929 0.945596 0.151176
C47   C     C_R   0.650077 0.518060 0.334355 -0.441246
C48   C     C_R   0.368720 0.588557 0.952012 -0.064273
C49   C     C_R   0.314120 0.590006 0.893275 0.529720
O25   O     O_2   0.334040 0.644939 0.871693 -0.563402
N1    N     N_R   0.237903 0.529881 0.860000 -0.167668
C50   C     C_R   0.209265 0.468444 0.885277 0.489460
O26   O     O_2   0.140835 0.415797 0.856221 -0.567233
C51   C     C_R   0.261069 0.465475 0.944036 -0.038433
C52   C     C_R   0.342556 0.525696 0.977358 -0.012153
C53   C     C_R   0.450614 0.648242 0.985845 -0.117906
C54   C     C_R   0.506529 0.645367 0.043424 -0.146442
C55   C     C_R   0.481377 0.582890 0.069270 -0.051231
C56   C     C_R   0.398721 0.522939 0.036124 -0.014471
C57   C     C_R   0.235683 0.403069 0.969902 -0.143807
C58   C     C_R   0.291552 0.400259 0.027475 -0.123545
C59   C     C_R   0.373657 0.459922 0.061256 -0.050845
C60   C     C_R   0.431448 0.457798 0.119482 0.526015
N2    N     N_R   0.508152 0.517811 0.152961 -0.164349
C61   C     C_R   0.536392 0.579347 0.127553 0.494432
C62   C     C_2   0.052855 0.507375 0.774137 -0.202742
C63   C     C_3   0.019889 0.501341 0.707398 0.202009
C64   C     C_1   0.298420 0.535371 0.696943 0.272683
C65   C     C_2   0.326307 0.547435 0.755244 -0.226771
C66   C     C_2   0.199290 0.529395 0.797166 0.149810
C67   C     C_R   0.711573 0.541042 0.234790 -0.194647
C68   C     C_R   0.754653 0.544061 0.294776 0.320225
C69   C     C_R   0.502600 0.487317 0.314511 0.229232
C70   C     C_R   0.453245 0.490619 0.255571 -0.309447
C71   C     C_R   0.558042 0.516283 0.214535 0.130560
O27   O     O_2   0.415589 0.401986 0.139977 -0.600451
O28   O     O_2   0.608489 0.631513 0.155887 -0.565450
C72   C     C_2   0.171592 0.498573 0.672403 -0.369274
H41   H     H_    0.569685 0.692442 0.067721 0.159599
H42   H     H_    0.796539 0.559369 0.204437 0.173851
H43   H     H_    0.472795 0.697340 0.967697 0.167487
H44   H     H_    0.445572 0.562612 0.772139 0.142613
H45   H     H_    0.957385 0.495402 0.803330 0.173728
H46   H     H_    0.333410 0.474562 0.241570 0.189468
H47   H     H_    0.686430 0.519405 0.380366 0.166554
H48   H     H_    0.182371 0.458710 0.632273 0.141729
N3    N     N_R   0.115866 0.754396 0.679145 0.223910
O29   O     O_R   0.148985 0.821402 0.674685 -0.443664
O30   O     O_R   0.221438 0.719589 0.703312 -0.335255
O31   O     O_3   0.931721 0.705419 0.736419 -0.620144
C73   C     C_3   0.799963 0.657716 0.740808 -0.200962
H49   H     H_    0.809666 0.606296 0.709770 0.196017
H50   H     H_    0.685836 0.682625 0.734762 0.151215
H51   H     H_    0.798251 0.644425 0.786713 0.160287
O32   O     O_3   0.862208 0.847387 0.715851 -0.538265
C74   C     C_3   0.759827 0.850766 0.765378 -0.019938
H52   H     H_    0.777892 0.904950 0.793060 0.137256
H53   H     H_    0.791390 0.810629 0.794333 0.158923
H54   H     H_    0.632067 0.844627 0.751441 0.114491
O33   O     O_3   0.258653 0.236448 0.311514 -0.611716
C75   C     C_3   0.239447 0.220537 0.369940 0.112497
H55   H     H_    0.173329 0.261828 0.398920 0.001244
H56   H     H_    0.357798 0.216404 0.390885 0.160324
H57   H     H_    0.171284 0.168548 0.367557 0.136281
O34   O     O_3   0.462278 0.734672 0.242178 -0.495028
C76   C     C_3   0.417354 0.769497 0.194586 0.044760
H58   H     H_    0.327712 0.810148 0.209644 0.078950
H59   H     H_    0.370465 0.730508 0.155550 0.085155
H60   H     H_    0.523389 0.798106 0.179694 0.151851
N4    N     N_R   0.868392 0.246181 0.627369 0.163934
O35   O     O_R   0.793626 0.274242 0.587488 -0.357140
O36   O     O_R   0.865038 0.176200 0.622178 -0.490219
O37   O     O_3   0.094981 0.288441 0.769455 -0.539483
C77   C     C_3   0.135719 0.244368 0.811340 -0.075129
H61   H     H_    0.209981 0.199323 0.791290 0.078387
H62   H     H_    0.027363 0.223022 0.831193 0.111012
H63   H     H_    0.206052 0.277352 0.848024 0.159156
O38   O     O_3   0.345285 0.309526 0.684527 -0.701434
C78   C     C_3   0.357775 0.372709 0.727394 -0.212537
H64   H     H_    0.434756 0.414458 0.711518 0.147702
H65   H     H_    0.398547 0.362115 0.771633 0.213983
H66   H     H_    0.238011 0.393640 0.734016 0.207031
O39   O     O_3   0.625675 0.285518 0.766352 -0.583985
C79   C     C_3   0.616600 0.253889 0.818456 -0.140413
H67   H     H_    0.662380 0.198427 0.810958 0.111196
H68   H     H_    0.492732 0.252977 0.834951 0.110234
H69   H     H_    0.690918 0.287059 0.853992 0.176668
N5    N     N_R   0.532731 0.097850 0.352996 0.226562
O40   O     O_R   0.624932 0.134938 0.322534 -0.380656
O41   O     O_R   0.391361 0.078345 0.331658 -0.423098
N6    N     N_R   0.773927 0.731152 0.344784 0.235820
O42   O     O_R   0.700735 0.782346 0.325164 -0.313912
O43   O     O_R   0.692365 0.681232 0.365071 -0.484932
O44   O     O_3   0.971249 0.857216 0.367266 -0.582187
C80   C     C_3   0.065033 0.918654 0.359626 -0.063843
H70   H     H_    0.082770 0.923120 0.311675 0.129681
H71   H     H_    0.180915 0.918099 0.382842 0.114264
H72   H     H_    0.004428 0.967425 0.380411 0.148974

loop_
_geom_bond_atom_site_label_1
_geom_bond_atom_site_label_2
_geom_bond_distance
_ccdc_geom_bond_type
Ba1   Ba2   4.614064 S    
C72   H48   1.086847 S    
C73   H49   1.105792 S    
C4    O15   1.395325 S    
C3    H23   1.114692 S    
P4    O13   1.579909 S    
O32   C74   1.414700 S    
Ba1   O20   2.978507 S    
C32   C33   1.424873 A    
C24   C25   1.420568 A    
C51   C52   1.408141 A    
C30   C35   1.414931 A    
C17   C22   1.415360 A    
P7    O22   1.741669 S    
C67   C68   1.398268 A    
C65   H44   1.085937 S    
O3    Ba1   2.752307 S    
C49   O25   1.222527 D    
C75   H56   1.115071 S    
C16   H28   1.109631 S    
N4    O35   1.294457 A    
C55   C61   1.412069 A    
P5    O18   1.541488 D    
C5    H8    1.111704 S    
C50   O26   1.219763 D    
N5    O41   1.301588 A    
P3    O11   1.766403 S    
O3    P6    1.744484 S    
C77   H63   1.107564 S    
C3    O44   1.413260 S    
C29   C30   1.429046 A    
O31   C73   1.416439 S    
C8    C9    1.533397 S    
C21   C23   1.396384 A    
O6    P6    1.757484 S    
O11   C2    1.413702 S    
C9    H16   1.115150 S    
C41   C43   1.406460 A    
O16   P7    1.747102 S    
C49   N1    1.386763 Am   
C74   H52   1.111478 S    
P6    C44   1.862069 S    
N1    C66   1.459077 S    
C65   C66   1.501839 S    
C80   H72   1.106595 S    
C40   C41   1.398837 A    
C77   H62   1.111384 S    
P1    O1    1.536515 D    
P4    O12   1.536800 D    
C4    C5    1.522880 S    
C64   C72   1.320986 D    
C14   H26   1.113814 S    
C42   C43   1.411905 A    
C44   C45   1.405680 A    
O33   C75   1.414883 S    
O17   Ba2   2.727519 S    
C69   C70   1.410440 A    
N4    O36   1.303915 A    
C55   C56   1.407508 A    
C78   H65   1.110782 S    
P2    O10   1.761968 S    
C56   C59   1.409156 A    
C50   C51   1.411419 A    
C4    H6    1.105603 S    
C47   C69   1.392538 A    
O4    P6    1.544996 D    
C79   H67   1.115588 S    
C28   H32   1.082511 S    
C75   H57   1.109884 S    
O19   C13   1.413324 S    
C14   O37   1.409977 S    
C48   C52   1.410253 A    
Ba2   O20   2.750408 S    
C34   H34   1.066270 S    
C1    O34   1.412194 S    
C76   H60   1.109191 S    
O12   Ba2   2.875546 S    
N6    O43   1.290607 A    
O5    C6    1.440868 S    
C60   N2    1.388939 Am   
C12   H20   1.107656 S    
C73   H50   1.105632 S    
C20   H31   1.083949 S    
C3    H5    1.104287 S    
C15   O24   1.401222 S    
C33   C46   1.431862 A    
C31   C32   1.424684 A    
P3    C68   1.827446 S    
O7    Ba1   2.812828 S    
P8    O24   1.759095 S    
C6    O31   1.427278 S    
C36   C37   1.413870 A    
N3    O30   1.298152 A    
C76   H59   1.113322 S    
N3    O29   1.303114 A    
P5    C63   1.881508 S    
C42   C44   1.418322 A    
C16   H29   1.115986 S    
N2    C71   1.462134 S    
C74   H53   1.119494 S    
P5    O17   1.759913 S    
C12   H21   1.105364 S    
N5    O40   1.301129 A    
C19   H30   1.076844 S    
C13   H24   1.110634 S    
P2    O20   1.535884 S    
Ba1   O16   2.751029 S    
C58   C59   1.407440 A    
C62   C63   1.522766 S    
C39   N5    1.443253 S    
P8    O23   1.539807 D    
C13   N4    1.473361 S    
C28   C29   1.396764 A    
C22   C26   1.407974 A    
C23   C24   1.407783 A    
O44   C80   1.411627 S    
O16   Ba2   2.977647 S    
C10   H17   1.100405 S    
O39   C79   1.410019 S    
C18   C19   1.403484 A    
C45   H38   1.082188 S    
C77   H61   1.112211 S    
P1    O2    1.579848 S    
C8    H13   1.113276 S    
C7    H12   1.086431 S    
O2    Ba1   2.967607 S    
C35   H35   1.074430 S    
C9    H14   1.108334 S    
C51   C57   1.408239 A    
C62   H45   1.085369 S    
P8    C27   1.848885 S    
C20   C21   1.399458 A    
C54   H41   1.083324 S    
C39   C40   1.407895 A    
C78   H66   1.101176 S    
C33   C34   1.407812 A    
C79   H69   1.109941 S    
C80   H70   1.114930 S    
C70   H46   1.075330 S    
C21   C22   1.407402 A    
C1    H3    1.107973 S    
C53   H43   1.083453 S    
C5    H10   1.111392 S    
C52   C56   1.422474 A    
C67   H42   1.082015 S    
O14   Ba2   2.751546 S    
P2    O7    1.539164 D    
C78   H64   1.107399 S    
C73   H51   1.110498 S    
P3    O8    1.758016 S    
C47   H47   1.082484 S    
N1    C50   1.388092 Am   
C15   H27   1.108718 S    
C60   O27   1.221403 D    
C24   C27   1.418186 A    
C1    C10   1.529725 S    
C11   H18   1.099573 S    
O6    C10   1.407381 S    
C17   C31   1.406897 A    
C54   C55   1.408952 A    
C35   C36   1.415802 A    
C6    N3    1.465586 S    
P2    C69   1.859483 S    
O8    Ba1   2.727038 S    
C45   C46   1.400052 A    
C1    H2    1.110167 S    
N6    O42   1.302731 A    
C25   C30   1.416978 A    
C31   C38   1.410469 A    
C12   H22   1.107807 S    
O2    Ba2   2.813842 S    
P2    Ba1   3.422887 S    
C64   C65   1.322677 D    
C8    O33   1.416506 S    
C6    C7    1.550537 S    
Ba2   O21   2.813032 S    
C62   C66   1.361738 D    
C17   C18   1.404478 A    
C32   C42   1.418590 A    
H1    C10   1.096502 S    
C57   C58   1.396384 A    
P4    Ba2   3.451833 S    
O34   C76   1.410764 S    
C37   C38   1.421241 A    
P5    O19   1.765228 S    
C5    H9    1.107552 S    
C11   C12   1.526629 S    
C43   H37   1.080461 S    
O1    Ba1   2.875147 S    
C7    H11   1.099513 S    
C40   H36   1.080784 S    
C2    H4    1.113022 S    
C53   C54   1.396905 A    
O37   C77   1.411202 S    
C9    H15   1.117181 S    
C75   H55   1.103271 S    
P4    O15   1.749270 S    
O38   C78   1.407498 S    
O13   Ba2   2.968321 S    
C27   C28   1.391655 A    
C18   C34   1.398842 A    
C74   H54   1.118346 S    
C61   O28   1.220861 D    
P1    Ba1   3.451425 S    
C80   H71   1.109862 S    
P7    C64   1.815149 S    
C11   H19   1.113590 S    
O14   P8    1.770401 S    
H40   C57   1.082780 S    
C70   C71   1.415852 A    
C4    H7    1.111695 S    
C14   H25   1.115619 S    
Ba1   O13   2.813103 S    
H39   C58   1.083516 S    
C15   O38   1.409395 S    
N2    C61   1.390931 Am   
P7    O21   1.577764 D    
P4    C29   1.853464 S    
C25   C26   1.419599 A    
C7    O32   1.421797 S    
C19   C20   1.392195 A    
P1    C46   1.900805 S    
P3    O9    1.544191 D    
C26   C37   1.409731 A    
P1    O5    1.789591 S    
C2    N6    1.455756 S    
C15   C16   1.541573 S    
C47   C68   1.393937 A    
C59   C60   1.413181 A    
C79   H68   1.112146 S    
O10   C8    1.422166 S    
C13   C14   1.543252 S    
C48   C49   1.412714 A    
C23   H33   1.073498 S    
C16   O39   1.414632 S    
C48   C53   1.407382 A    
C36   C39   1.423221 A    
C67   C71   1.408412 A    
C76   H58   1.112300 S    
C11   O22   1.397015 S    
C63   C72   1.507222 S    
C2    C3    1.538665 S    
C38   C41   1.402995 A    
