data_mof_unit_30230.cif
_audit_creation_date              2012-12-10T16:56:33-0500
_audit_creation_method            fapswitch 2.2
_symmetry_space_group_name_H-M    P1
_symmetry_Int_Tables_number       1
_space_group_crystal_system       triclinic
_cell_length_a                    10.914839
_cell_length_b                    10.918446
_cell_length_c                    9.747539
_cell_angle_alpha                 88.981109
_cell_angle_beta                  90.902421
_cell_angle_gamma                 90.85311
_cell_volume                      1161.19251544

loop_
_atom_site_label
_atom_site_type_symbol
_atom_type_description
_atom_site_fract_x
_atom_site_fract_y
_atom_site_fract_z
_atom_type_partial_charge
C1    C     C_R   0.504694 0.265504 0.500200 0.827178
C2    C     C_3   0.877852 0.495115 0.508552 -0.032086
C3    C     C_3   0.934256 0.615402 0.568762 -0.204612
C4    C     C_3   0.923623 0.486789 0.357040 -0.502674
C5    C     C_2   0.493075 0.938196 0.383847 0.105926
C6    C     C_2   0.518111 0.866639 0.494982 -0.371048
C7    C     C_2   0.534478 0.066820 0.389228 0.186211
C8    C     C_2   0.500669 0.132763 0.498395 -0.364841
C9    C     C_2   0.461789 0.409009 0.928654 0.013178
C10   C     C_2   0.438727 0.421602 0.079188 -0.128838
C11   C     C_R   0.260136 0.493796 0.499249 0.776637
C12   C     C_R   0.500811 0.734701 0.498531 0.874516
C13   C     C_R   0.739862 0.499180 0.501960 0.784546
C14   C     C_3   0.069889 0.363825 0.577400 0.224334
C15   C     C_3   0.924320 0.377518 0.590798 -0.051628
C16   C     C_3   0.075401 0.603102 0.581841 -0.226774
C17   C     C_3   0.064923 0.501906 0.345629 0.128366
C18   C     C_3   0.121548 0.488808 0.498905 -0.041456
Cu1   Cu    Cu3+1 0.500030 0.500020 0.638630 0.960556
Cu2   Cu    Cu3+1 0.499970 0.499980 0.361370 0.928034
H1    H     H_    0.877946 0.558105 0.292203 0.208001
H2    H     H_    0.910971 0.691543 0.496004 0.128879
H3    H     H_    0.562244 0.905732 0.585292 0.149943
H4    H     H_    0.454674 0.087852 0.583923 0.158906
H5    H     H_    0.377546 0.356722 0.129720 0.183941
H6    H     H_    0.572338 0.543196 0.109283 0.208644
H7    H     H_    0.880531 0.304877 0.528338 0.138112
H8    H     H_    0.099070 0.590342 0.689743 0.185525
H9    H     H_    0.890882 0.398462 0.313149 0.162962
N1    N     N_2   0.498630 0.498660 0.846910 -0.259703
N2    N     N_2   0.498590 0.498630 0.153040 -0.289645
O1    O     O_R   0.500020 0.321960 0.617040 -0.577706
O2    O     O_R   0.499980 0.321920 0.382900 -0.574345
O3    O     O_R   0.317710 0.500000 0.617070 -0.588455
O4    O     O_R   0.317670 0.499960 0.382930 -0.586091
O5    O     O_R   0.500020 0.678080 0.617100 -0.569006
O6    O     O_R   0.499980 0.678040 0.382960 -0.588113
O7    O     O_R   0.682330 0.500040 0.617070 -0.566932
O8    O     O_R   0.682290 0.500000 0.382930 -0.593866
C19   C     C_3   0.140060 0.331611 0.718425 -0.301824
C20   C     C_3   0.143121 0.418592 0.841046 -0.895244
H10   H     H_    0.217412 0.488252 0.833333 0.266639
H11   H     H_    0.055719 0.465264 0.858848 0.246886
H12   H     H_    0.165567 0.363790 0.934044 0.265004
H13   H     H_    0.105486 0.241626 0.758196 0.191836
H14   H     H_    0.236944 0.312027 0.698333 0.237863
C21   C     C_1   0.138338 0.721442 0.551490 0.186150
N3    N     N_1   0.187412 0.814141 0.528781 -0.304077
C22   C     C_3   0.423025 0.890576 0.257736 -0.334364
C23   C     C_3   0.368894 0.989084 0.161631 -0.825038
H15   H     H_    0.325124 0.062143 0.220109 0.255358
H16   H     H_    0.440367 0.030130 0.094893 0.251657
H17   H     H_    0.298342 0.946616 0.093440 0.256897
H18   H     H_    0.484382 0.833087 0.196825 0.231835
H19   H     H_    0.344619 0.832920 0.293328 0.220324
C24   C     C_3   0.616163 0.114806 0.274085 -0.318810
C25   C     C_3   0.740307 0.160553 0.327525 -0.874720
H20   H     H_    0.728977 0.246049 0.384474 0.247031
H21   H     H_    0.783698 0.090448 0.395674 0.249179
H22   H     H_    0.801710 0.180622 0.239948 0.242164
H23   H     H_    0.634991 0.039491 0.202469 0.199935
H24   H     H_    0.570358 0.187355 0.211928 0.220001
C26   C     C_1   0.441712 0.286631 0.879910 0.282689
N4    N     N_1   0.424863 0.187088 0.844415 -0.329349
C27   C     C_1   0.481175 0.617572 0.892119 0.454072
N5    N     N_1   0.466460 0.716400 0.929063 -0.338385
C28   C     C_3   0.082260 0.240471 0.494211 -0.467966
C29   C     C_3   0.209808 0.194009 0.464149 -0.808238
H25   H     H_    0.266695 0.264934 0.413390 0.263153
H26   H     H_    0.254957 0.159231 0.559129 0.239493
H27   H     H_    0.200421 0.115020 0.394722 0.257955
H28   H     H_    0.037209 0.164950 0.554107 0.211139
H29   H     H_    0.027165 0.240492 0.398120 0.209161
C30   C     C_3   0.867201 0.349243 0.736429 -0.387582
C31   C     C_3   0.772288 0.244624 0.735006 -0.826676
H30   H     H_    0.708299 0.255695 0.647813 0.266403
H31   H     H_    0.818760 0.155533 0.723988 0.236632
H32   H     H_    0.720288 0.242493 0.832080 0.254110
H33   H     H_    0.932261 0.316854 0.814933 0.230009
H34   H     H_    0.827033 0.430942 0.781763 0.244889
C32   C     C_1   0.882571 0.651607 0.701135 0.236748
N6    N     N_1   0.842424 0.680657 0.804640 -0.300766
C33   C     C_3   0.095044 0.629038 0.271902 -0.374173
C34   C     C_3   0.073507 0.633530 0.115638 -0.837451
H35   H     H_    0.146997 0.583824 0.063739 0.262438
H36   H     H_    0.982995 0.593203 0.086834 0.256041
H37   H     H_    0.076925 0.730182 0.078166 0.250438
H38   H     H_    0.037457 0.702126 0.313049 0.208210
H39   H     H_    0.191395 0.658056 0.290259 0.224645
C35   C     C_1   0.110084 0.405592 0.254605 0.309420
N7    N     N_1   0.143808 0.329818 0.183519 -0.358317

loop_
_geom_bond_atom_site_label_1
_geom_bond_atom_site_label_2
_ccdc_geom_bond_type
C16   H8    S    
C11   C18   S    
Cu2   O6    S    
C1    C8    S    
C20   H10   S    
C14   C18   S    
Cu1   Cu2   S    
C34   H37   S    
C32   N6    T    
C35   N7    T    
C1    O2    A    
C7    C8    D    
C19   H14   S    
C34   H36   S    
Cu1   O5    S    
C6    C12   S    
C5    C6    D    
C25   H21   S    
C22   H18   S    
C24   C25   S    
C28   H28   S    
C12   O6    A    
C2    C13   S    
Cu2   O4    S    
C10   N2    D    
C33   C34   S    
C29   H25   S    
C3    C32   S    
C23   H16   S    
C14   C28   S    
C28   H29   S    
C12   O5    A    
C9    C10   S    
C4    H9    S    
C33   H38   S    
H6    N2    S    
C30   H34   S    
C20   H11   S    
C5    C22   S    
C7    C24   S    
Cu1   O1    S    
C16   C21   S    
C23   H15   S    
C19   H13   S    
C33   H39   S    
C23   H17   S    
C30   C31   S    
C28   C29   S    
C34   H35   S    
C5    C7    S    
Cu2   O8    S    
C25   H22   S    
C22   H19   S    
C1    O1    A    
C17   C33   S    
C2    C4    S    
C31   H30   S    
Cu1   O7    S    
C15   H7    S    
C21   N3    T    
C14   C15   S    
C17   C18   S    
C2    C15   S    
C31   H31   S    
C13   O7    A    
C9    N1    D    
Cu2   O2    S    
C10   H5    S    
C29   H26   S    
C19   C20   S    
C27   N5    T    
C30   H33   S    
C20   H12   S    
C24   H24   S    
C4    C17   S    
C9    C26   S    
C11   O3    A    
C17   C35   S    
Cu1   O3    S    
C11   O4    A    
C2    C3    S    
C4    H1    S    
C25   H20   S    
C29   H27   S    
C6    H3    S    
C8    H4    S    
C31   H32   S    
C13   O8    A    
N1    C27   S    
C14   C19   S    
C26   N4    T    
C15   C30   S    
C16   C18   S    
C22   C23   S    
C24   H23   S    
C3    H2    S    
Cu1   N1    S    
C3    C16   S    
Cu2   N2    S    
