data_mof_unit_17456.cif
_audit_creation_date              2012-12-10T19:44:55-0500
_audit_creation_method            fapswitch 2.2
_symmetry_space_group_name_H-M    P1
_symmetry_Int_Tables_number       1
_space_group_crystal_system       triclinic
_cell_length_a                    15.088641
_cell_length_b                    10.833317
_cell_length_c                    13.677083
_cell_angle_alpha                 90.048602
_cell_angle_beta                  89.850717
_cell_angle_gamma                 89.733157
_cell_volume                      2235.62375001

loop_
_atom_site_label
_atom_site_type_symbol
_atom_type_description
_atom_site_fract_x
_atom_site_fract_y
_atom_site_fract_z
_atom_type_partial_charge
C1    C     C_R   0.497555 0.262137 0.499764 0.797145
C2    C     C_R   0.502430 0.737865 0.500237 0.795427
C3    C     C_R   0.045119 0.488285 0.679424 0.154940
C4    C     C_R   0.954876 0.516464 0.320783 0.154196
C5    C     C_R   0.305966 0.249685 0.261722 -0.116715
C6    C     C_R   0.694009 0.750744 0.738535 -0.117525
C7    C     C_R   0.343410 0.190651 0.342705 -0.096477
C8    C     C_R   0.656554 0.809608 0.657479 -0.096098
C9    C     C_R   0.421524 0.120623 0.332071 0.124254
C10   C     C_R   0.578328 0.879416 0.667996 0.124841
C11   C     C_R   0.460454 0.108586 0.239093 -0.159787
C12   C     C_R   0.539268 0.891359 0.760915 -0.159629
C13   C     C_R   0.422745 0.167792 0.158351 -0.139178
C14   C     C_R   0.576974 0.832293 0.841722 -0.139006
C15   C     C_R   0.345842 0.238800 0.169744 -0.111653
C16   C     C_R   0.654008 0.761532 0.830454 -0.112575
C17   C     C_R   0.469015 0.933370 0.419726 -0.239325
C18   C     C_R   0.530916 0.066634 0.580287 -0.238082
C19   C     C_R   0.504302 0.871734 0.500767 -0.082028
C20   C     C_R   0.495645 0.128271 0.499243 -0.081567
C21   C     C_R   0.536538 0.938825 0.581858 -0.000592
C22   C     C_R   0.463374 0.061184 0.418165 -0.000059
C23   C     C_R   0.328466 0.500208 0.500122 0.809246
C24   C     C_R   0.671535 0.499925 0.499880 0.809272
C25   C     C_R   0.558073 0.425539 0.793040 0.007552
C26   C     C_R   0.441920 0.574455 0.206961 0.006062
C27   C     C_R   0.441967 0.574454 0.793446 0.033538
C28   C     C_R   0.558009 0.425514 0.206551 0.033110
C29   C     C_R   0.440599 0.576296 0.896554 -0.005400
C30   C     C_R   0.559363 0.423659 0.103444 -0.007867
C31   C     C_R   0.499995 0.499990 0.948159 0.082490
C32   C     C_R   0.499974 0.499975 0.051839 0.081772
C33   C     C_R   0.559409 0.423688 0.896138 -0.009132
C34   C     C_R   0.440564 0.576282 0.103861 -0.008319
C35   C     C_R   0.381643 0.652443 0.949033 -0.216312
C36   C     C_R   0.618301 0.347486 0.050964 -0.212256
C37   C     C_R   0.381597 0.652397 0.051786 -0.215874
C38   C     C_R   0.618358 0.347547 0.948212 -0.216192
C39   C     C_R   0.814706 0.507685 0.411001 -0.232872
C40   C     C_R   0.185291 0.494039 0.589053 -0.232446
C41   C     C_R   0.768318 0.500185 0.499651 -0.090395
C42   C     C_R   0.231685 0.500957 0.500376 -0.090523
C43   C     C_R   0.814431 0.493047 0.588104 -0.243231
C44   C     C_R   0.185580 0.508943 0.411963 -0.243919
C45   C     C_R   0.906652 0.494073 0.588768 0.088958
C46   C     C_R   0.093350 0.508997 0.411353 0.089252
C47   C     C_R   0.953534 0.501784 0.499633 0.015210
C48   C     C_R   0.046461 0.501977 0.500522 0.015286
C49   C     C_R   0.907419 0.508862 0.409738 0.100835
C50   C     C_R   0.092574 0.494923 0.590418 0.100326
C51   C     C_R   0.952297 0.487469 0.677536 -0.255862
C52   C     C_R   0.047703 0.516067 0.322611 -0.255673
Cu1   Cu    Cu3+1 0.500010 0.499980 0.597420 0.944631
Cu2   Cu    Cu3+1 0.499990 0.500020 0.402580 0.943637
H1    H     H_    0.778173 0.512588 0.343055 0.180513
H2    H     H_    0.221822 0.487551 0.656920 0.181160
H3    H     H_    0.442919 0.881623 0.358336 0.153313
H4    H     H_    0.557009 0.118379 0.641680 0.153503
H5    H     H_    0.603271 0.367425 0.751860 0.122560
H6    H     H_    0.396727 0.632575 0.248142 0.122446
H7    H     H_    0.396972 0.632847 0.752586 0.124464
H8    H     H_    0.602995 0.367109 0.247410 0.128270
H9    H     H_    0.335604 0.712039 0.910632 0.136466
H10   H     H_    0.664322 0.287862 0.089363 0.141908
H11   H     H_    0.335480 0.711914 0.090499 0.137739
H12   H     H_    0.664469 0.288021 0.909500 0.139066
H13   H     H_    0.778592 0.486198 0.656694 0.148473
H14   H     H_    0.221433 0.515375 0.343354 0.148097
H15   H     H_    0.915527 0.482192 0.745615 0.134931
H16   H     H_    0.084469 0.521701 0.254548 0.134691
H17   H     H_    0.317132 0.285287 0.107289 0.128757
H18   H     H_    0.682730 0.715177 0.892963 0.126597
H19   H     H_    0.246091 0.303987 0.270253 0.122759
H20   H     H_    0.754001 0.696677 0.730116 0.120666
H21   H     H_    0.312240 0.200488 0.413740 0.105790
H22   H     H_    0.687827 0.799858 0.586492 0.103818
H23   H     H_    0.520660 0.055043 0.229532 0.124859
H24   H     H_    0.478978 0.944742 0.770383 0.125232
H25   H     H_    0.453538 0.159429 0.087067 0.137875
H26   H     H_    0.546090 0.840592 0.912962 0.137531
N1    N     N_R   0.499960 0.499900 0.743810 -0.179899
N2    N     N_R   0.500040 0.500100 0.256190 -0.180635
O1    O     O_R   0.500000 0.319630 0.582270 -0.589158
O2    O     O_R   0.500000 0.680370 0.417730 -0.590122
O3    O     O_R   0.499990 0.319660 0.417730 -0.572115
O4    O     O_R   0.500010 0.680340 0.582270 -0.572350
O5    O     O_R   0.370260 0.499960 0.582280 -0.592228
O6    O     O_R   0.629740 0.500040 0.417720 -0.592543
O7    O     O_R   0.370250 0.499990 0.417740 -0.588048
O8    O     O_R   0.629750 0.500010 0.582260 -0.588042
N3    N     N_3   0.091203 0.482101 0.771245 -0.603099
H27   H     H_    0.046762 0.466510 0.828667 0.215734
H28   H     H_    0.119203 0.568770 0.783779 0.206622
N4    N     N_3   0.908792 0.524201 0.229040 -0.606216
H29   H     H_    0.953317 0.517418 0.170542 0.214913
H30   H     H_    0.880182 0.612126 0.224955 0.210291

loop_
_geom_bond_atom_site_label_1
_geom_bond_atom_site_label_2
_ccdc_geom_bond_type
Cu2   O6    S    
C13   H25   S    
C27   C29   A    
C18   C21   A    
C2    O2    A    
C16   H18   S    
Cu2   O2    S    
C47   C49   A    
Cu1   Cu2   S    
C23   C42   S    
C4    C52   A    
C3    N3    S    
C35   C37   A    
C9    C22   S    
C45   C51   A    
C34   C37   A    
C46   C52   A    
C8    H22   S    
Cu1   N1    S    
C27   H7    S    
C26   C34   A    
C39   H1    S    
C31   C32   A    
C40   H2    S    
C37   H11   S    
C23   O7    A    
Cu1   O4    S    
C14   H26   S    
C11   H23   S    
C51   H15   S    
C48   C50   A    
C26   N2    A    
C23   O5    A    
C25   N1    A    
C24   C41   S    
C41   C43   A    
C42   C44   A    
C3    C50   A    
C44   C46   A    
C6    H20   S    
C45   C47   A    
C10   C21   S    
C1    O3    A    
C46   C48   A    
C28   N2    A    
C38   H12   S    
C27   N1    A    
Cu2   O7    S    
C39   C41   A    
N3    H27   S    
C5    C7    A    
C3    C51   A    
C6    C8    A    
C12   H24   S    
C32   C34   A    
N3    H28   S    
C24   O6    A    
C47   C48   A    
C29   C31   A    
C31   C33   A    
Cu1   O5    S    
N4    H30   S    
C9    C11   A    
C10   C12   A    
C4    N4    S    
C43   H13   S    
C39   C49   A    
C20   C22   A    
C13   C15   A    
C14   C16   A    
C44   H14   S    
Cu2   N2    S    
C7    C9    A    
C1    C20   S    
C19   C21   A    
C2    C19   S    
C17   C22   A    
C12   C14   A    
C40   C42   A    
C24   O8    A    
Cu2   O3    S    
C7    H21   S    
C1    O1    A    
C15   H17   S    
C29   C35   A    
C33   C38   A    
C30   C36   A    
C4    C49   A    
Cu1   O1    S    
C36   C38   A    
C43   C45   A    
C30   C32   A    
C11   C13   A    
C40   C50   A    
C28   C30   A    
C17   C19   A    
C18   H4    S    
C2    O4    A    
C18   C20   A    
C5    H19   S    
N4    H29   S    
C5    C15   A    
C52   H16   S    
C6    C16   A    
C8    C10   A    
C17   H3    S    
Cu1   O8    S    
C35   H9    S    
C25   H5    S    
C36   H10   S    
C26   H6    S    
C25   C33   A    
C28   H8    S    
