data_mof_unit_42936.cif
_audit_creation_date              2012-12-10T16:59:22-0500
_audit_creation_method            fapswitch 2.2
_symmetry_space_group_name_H-M    P1
_symmetry_Int_Tables_number       1
_space_group_crystal_system       triclinic
_cell_length_a                    7.738584
_cell_length_b                    8.557377
_cell_length_c                    27.720666
_cell_angle_alpha                 90.888204
_cell_angle_beta                  86.274486
_cell_angle_gamma                 93.680713
_cell_volume                      1827.94125379

loop_
_atom_site_label
_atom_site_type_symbol
_atom_type_description
_atom_site_fract_x
_atom_site_fract_y
_atom_site_fract_z
_atom_type_partial_charge
C1    C     C_R   0.545893 0.794835 0.498732 0.974288
C2    C     C_R   0.519440 0.643301 0.127781 -0.011174
C3    C     C_R   0.510488 0.498029 0.646411 -0.142155
C4    C     C_R   0.489512 0.501974 0.353589 -0.142153
C5    C     C_R   0.538995 0.642403 0.025575 0.098271
C6    C     C_R   0.461001 0.357610 0.974425 0.098272
C7    C     C_R   0.448338 0.359850 0.025708 -0.035816
C8    C     C_R   0.551658 0.640163 0.974291 -0.035816
C9    C     C_R   0.488586 0.501887 0.050957 0.081274
C10   C     C_R   0.511410 0.498126 0.949043 0.081274
C11   C     C_R   0.574442 0.781147 0.052655 -0.212391
C12   C     C_R   0.454107 0.205164 0.501267 0.974288
C13   C     C_R   0.425554 0.218865 0.947345 -0.212391
C14   C     C_R   0.565870 0.780910 0.102656 -0.047625
C15   C     C_R   0.434127 0.219102 0.897344 -0.047625
C16   C     C_R   0.503052 0.499696 0.593918 0.915328
C17   C     C_R   0.496948 0.500304 0.406082 0.915328
C18   C     C_R   0.604994 0.775475 0.947131 -0.323227
C19   C     C_R   0.395000 0.224538 0.052868 -0.323228
C20   C     C_2   0.570159 0.958299 0.498002 -0.364266
C21   C     C_2   0.429841 0.041701 0.501998 -0.364266
C22   C     C_R   0.574314 0.630186 0.821169 0.620633
C23   C     C_R   0.521298 0.496546 0.897744 -0.135212
C24   C     C_R   0.425682 0.369825 0.178831 0.620634
C25   C     C_R   0.486129 0.357858 0.821765 0.576357
C26   C     C_R   0.513873 0.642153 0.178235 0.576357
C27   C     C_R   0.678025 0.489937 0.717011 0.718609
C28   C     C_R   0.321974 0.510069 0.282989 0.718604
C29   C     C_R   0.670992 0.491780 0.667068 -0.295541
C30   C     C_R   0.329007 0.508224 0.332932 -0.295541
C31   C     C_R   0.357286 0.502118 0.676309 -0.168905
C32   C     C_R   0.642715 0.497889 0.323691 -0.168905
C33   C     C_R   0.364661 0.499959 0.726185 -0.155688
C34   C     C_R   0.478699 0.503466 0.102256 -0.135211
C35   C     C_R   0.635340 0.500052 0.273815 -0.155684
C36   C     C_R   0.524719 0.494020 0.746464 0.153566
C37   C     C_R   0.475280 0.505990 0.253536 0.153563
C38   C     C_R   0.571057 0.634684 0.871832 -0.178114
C39   C     C_R   0.428940 0.365328 0.128168 -0.178115
C40   C     C_R   0.614537 0.773036 0.897064 0.685733
C41   C     C_R   0.385458 0.226977 0.102936 0.685733
C42   C     C_R   0.480558 0.356710 0.872219 -0.011175
F1    F     F_    0.667489 0.907784 0.873690 -0.614834
F2    F     F_    0.332506 0.092228 0.126309 -0.614834
F3    F     F_    0.166745 0.516071 0.263181 -0.654815
F4    F     F_    0.833253 0.483934 0.736819 -0.654816
H1    H     H_    0.232027 0.506704 0.661256 0.196122
H2    H     H_    0.390602 0.106642 0.963309 0.143388
H3    H     H_    0.641863 0.886754 0.963206 0.170538
H4    H     H_    0.358131 0.113260 0.036793 0.170538
H5    H     H_    0.209141 0.511370 0.355292 0.184189
H6    H     H_    0.790857 0.488630 0.644708 0.184189
H7    H     H_    0.702644 0.009447 0.494189 0.182121
H8    H     H_    0.297356 0.990553 0.505811 0.182121
H9    H     H_    0.767975 0.493302 0.338744 0.196121
H10   H     H_    0.014090 0.383322 0.463445 0.194390
H11   H     H_    0.985910 0.616678 0.536555 0.194390
H12   H     H_    0.246325 0.503379 0.749190 0.209259
H13   H     H_    0.753676 0.496635 0.250810 0.209260
H14   H     H_    0.596564 0.889891 0.121593 0.221388
H15   H     H_    0.403435 0.110121 0.878407 0.221389
H16   H     H_    0.609393 0.893371 0.036691 0.143389
N1    N     N_R   0.530662 0.493556 0.797641 -0.352052
N2    N     N_R   0.469337 0.506456 0.202359 -0.352052
N3    N     N_2   0.950320 0.457960 0.486880 -0.174086
N4    N     N_2   0.049680 0.542040 0.513120 -0.174086
O1    O     O_R   0.389250 0.738570 0.503220 -0.612296
O2    O     O_2   0.381771 0.239059 0.204584 -0.431316
O3    O     O_2   0.553385 0.775118 0.203147 -0.494432
O4    O     O_2   0.446620 0.224892 0.796853 -0.494429
O5    O     O_R   0.610750 0.261430 0.496780 -0.612296
O6    O     O_R   0.678390 0.711630 0.494810 -0.629440
O7    O     O_R   0.321610 0.288370 0.505190 -0.629440
O8    O     O_R   0.355440 0.513440 0.575450 -0.620255
O9    O     O_R   0.644560 0.486560 0.424550 -0.620256
O10   O     O_R   0.644590 0.486500 0.567040 -0.629987
O11   O     O_R   0.355410 0.513500 0.432960 -0.629987
O12   O     O_2   0.618224 0.760953 0.795416 -0.431317
Zn1   Zn    Zn3+2 0.306940 0.517990 0.505620 0.958172
Zn2   Zn    Zn3+2 0.693060 0.482010 0.494380 0.958171

loop_
_geom_bond_atom_site_label_1
_geom_bond_atom_site_label_2
_ccdc_geom_bond_type
C30   H5    S    
C33   H12   S    
C27   C29   A    
H11   N4    S    
C11   H16   S    
C33   C36   A    
C39   C41   A    
N4    Zn1   S    
C23   C42   A    
C16   O8    A    
C35   C37   A    
C5    C11   A    
C21   H8    S    
C11   C14   A    
H10   N3    S    
C22   C38   A    
C24   C39   A    
C35   H13   S    
C25   N1    A    
C3    C29   A    
C26   N2    A    
C18   C40   A    
C22   N1    A    
C40   F1    S    
C31   C33   A    
C36   N1    S    
O9    Zn2   S    
C32   H9    S    
C2    C34   A    
C24   N2    A    
N3    Zn2   S    
C31   H1    S    
C12   O7    A    
O5    Zn2   S    
O11   Zn1   S    
C15   H15   S    
C28   F3    S    
C1    O6    A    
C34   C39   A    
C32   C35   A    
O1    Zn1   S    
C22   O12   S    
C12   C21   S    
C8    C18   A    
C5    C9    A    
C13   H2    S    
C17   O11   A    
O7    Zn1   S    
C2    C26   A    
C3    C31   A    
C4    C32   A    
C4    C17   S    
C27   F4    S    
C12   O5    A    
C7    C19   A    
O8    Zn1   S    
C13   C15   A    
C9    C34   A    
C10   C23   A    
C41   F2    S    
C37   N2    S    
C7    C9    A    
C1    C20   S    
C16   O10   A    
O10   Zn2   S    
C15   C42   A    
C20   H7    S    
C25   C42   A    
C6    C10   A    
C5    C8    A    
C6    C7    A    
C27   C36   A    
C23   C38   A    
C14   H14   S    
C28   C30   A    
O6    Zn2   S    
C6    C13   A    
C38   C40   A    
C19   H4    S    
C28   C37   A    
C1    O1    A    
C2    C14   A    
C24   O2    S    
C20   C21   D    
C8    C10   A    
N3    N4    D    
C17   O9    A    
C26   O3    S    
C25   O4    S    
C4    C30   A    
C3    C16   S    
C19   C41   A    
C18   H3    S    
C29   H6    S    
