data_mof_unit_45080.cif
_audit_creation_date              2012-12-10T19:10:38-0500
_audit_creation_method            fapswitch 2.2
_symmetry_space_group_name_H-M    P1
_symmetry_Int_Tables_number       1
_space_group_crystal_system       triclinic
_cell_length_a                    13.055654
_cell_length_b                    9.062111
_cell_length_c                    7.838172
_cell_angle_alpha                 90.067969
_cell_angle_beta                  94.930915
_cell_angle_gamma                 90.120874
_cell_volume                      923.913142568

loop_
_atom_site_label
_atom_site_type_symbol
_atom_type_description
_atom_site_fract_x
_atom_site_fract_y
_atom_site_fract_z
_atom_type_partial_charge
C1    C     C_R   0.499816 0.220280 0.499898 0.837615
C2    C     C_R   0.499474 0.779706 0.499960 0.800245
C3    C     C_R   0.300277 0.503276 0.470417 0.793961
C4    C     C_R   0.699327 0.500513 0.529670 0.812698
C5    C     C_R   0.811009 0.515094 0.541533 -0.213518
C6    C     C_R   0.187603 0.513160 0.455864 -0.244415
C7    C     C_R   0.031747 0.477163 0.273654 -0.112542
C8    C     C_R   0.967849 0.609916 0.689236 -0.062486
C9    C     C_R   0.133552 0.527815 0.293767 0.437561
C10   C     C_R   0.860559 0.608205 0.668011 0.419413
C11   C     C_R   0.130472 0.512861 0.600117 -0.145680
C12   C     C_R   0.867824 0.451478 0.414326 -0.119917
C13   C     C_R   0.023961 0.531790 0.574039 -0.040632
C14   C     C_R   0.973828 0.481027 0.418614 -0.033069
C15   C     C_1   0.499480 0.065465 0.499771 -0.177386
C16   C     C_1   0.499367 0.934502 0.499913 -0.189150
Cu1   Cu    Cu3+1 0.500010 0.500000 0.669080 1.024665
Cu2   Cu    Cu3+1 0.499990 0.500000 0.330920 1.027809
N1    N     N_1   0.499980 0.500000 0.076820 -0.030997
N2    N     N_1   0.500020 0.500000 0.923180 -0.032534
O1    O     O_R   0.500000 0.288400 0.642760 -0.580210
O2    O     O_R   0.500000 0.711600 0.357240 -0.583724
O3    O     O_R   0.500000 0.288400 0.357240 -0.570993
O4    O     O_R   0.500000 0.711600 0.642760 -0.586079
O5    O     O_R   0.349000 0.500000 0.619590 -0.584444
O6    O     O_R   0.651000 0.500000 0.380410 -0.582292
O7    O     O_R   0.348990 0.500000 0.334020 -0.550765
O8    O     O_R   0.651010 0.500000 0.665980 -0.542906
C17   C     C_1   0.819316 0.347721 0.291152 0.296829
N3    N     N_1   0.780311 0.264568 0.193725 -0.266416
C18   C     C_1   0.175125 0.468270 0.767238 0.362470
N4    N     N_1   0.211989 0.428369 0.898457 -0.216697
O9    O     O_3   0.805574 0.690169 0.778834 -0.590374
C19   C     C_3   0.759641 0.814683 0.693589 0.068455
H1    H     H_    0.687295 0.838066 0.753322 0.191157
H2    H     H_    0.737769 0.796265 0.554481 0.104714
C20   C     C_3   0.829556 0.950608 0.716984 -0.361573
H3    H     H_    0.856507 0.963674 0.854610 0.254165
H4    H     H_    0.897410 0.935759 0.642443 0.211085
C21   C     C_3   0.773554 0.090893 0.655031 -0.861701
H5    H     H_    0.745750 0.080649 0.517560 0.250306
H6    H     H_    0.826994 0.186394 0.670649 0.266706
H7    H     H_    0.707176 0.112045 0.731218 0.264877
O10   O     O_3   0.173300 0.604724 0.161360 -0.585233
C22   C     C_3   0.202068 0.751497 0.212216 0.128420
H8    H     H_    0.226885 0.808347 0.097306 0.190277
H9    H     H_    0.270623 0.753382 0.306060 0.121097
C23   C     C_3   0.114538 0.841181 0.283935 -0.405377
H10   H     H_    0.040351 0.820093 0.207733 0.253657
H11   H     H_    0.105466 0.806728 0.417748 0.203771
C24   C     C_3   0.137463 0.006496 0.284570 -0.858145
H12   H     H_    0.210974 0.029927 0.362167 0.247930
H13   H     H_    0.074668 0.067095 0.341117 0.257021
H14   H     H_    0.142720 0.046787 0.151808 0.272159
C25   C     C_1   0.988287 0.435681 0.105050 0.325807
N5    N     N_1   0.953351 0.398521 0.971297 -0.277198
C26   C     C_1   0.018996 0.718011 0.801668 0.291621
N6    N     N_1   0.059733 0.808271 0.886739 -0.310036

loop_
_geom_bond_atom_site_label_1
_geom_bond_atom_site_label_2
_ccdc_geom_bond_type
C2    O2    A    
C4    O6    A    
C25   N5    T    
C24   H12   S    
C1    O1    A    
C20   H3    S    
C1    C15   S    
C8    C26   S    
C10   O9    S    
C19   C20   S    
C2    C16   S    
C18   N4    T    
Cu2   O6    S    
C7    C25   S    
C3    C6    S    
Cu1   O5    S    
C21   H7    S    
C24   H14   S    
C6    C9    A    
C21   H6    S    
Cu1   Cu2   S    
C11   C18   S    
C5    C10   A    
C20   H4    S    
C13   C14   A    
C11   C13   A    
C26   N6    T    
C8    C13   A    
Cu2   O3    S    
C23   H11   S    
C23   H10   S    
C4    O8    A    
C12   C14   A    
O9    C19   S    
C20   C21   S    
C19   H2    S    
C3    O7    A    
C23   C24   S    
C2    O4    A    
C12   C17   S    
C22   C23   S    
Cu1   O4    S    
C17   N3    T    
C15   C16   T    
C22   H8    S    
C3    O5    A    
Cu1   N2    S    
Cu2   N1    S    
O10   C22   S    
C5    C12   A    
C8    C10   A    
C19   H1    S    
C22   H9    S    
C6    C11   A    
C7    C9    A    
C21   H5    S    
C9    O10   S    
C1    O3    A    
Cu2   O2    S    
Cu1   O8    S    
C7    C14   A    
Cu1   O1    S    
Cu2   O7    S    
N1    N2    T    
C4    C5    S    
C24   H13   S    
