data_mof_unit_48255.cif
_audit_creation_date              2012-10-26T18:29:35-0400
_audit_creation_method            fapswitch 2.2
_symmetry_space_group_name_H-M    P1
_symmetry_Int_Tables_number       1
_space_group_crystal_system       triclinic
_cell_length_a                    11.687711
_cell_length_b                    12.996302
_cell_length_c                    11.809667
_cell_angle_alpha                 99.399007
_cell_angle_beta                  93.714707
_cell_angle_gamma                 91.84764
_cell_volume                      1764.38107696

loop_
_atom_site_label
_atom_site_type_symbol
_atom_type_description
_atom_site_fract_x
_atom_site_fract_y
_atom_site_fract_z
_atom_type_partial_charge
C1    C     C_R   0.498218 0.299885 0.479683 0.582513
C2    C     C_R   0.469738 0.456683 0.965419 -0.089182
C3    C     C_R   0.284223 0.499801 0.500149 0.549345
C4    C     C_R   0.715779 0.500176 0.499833 0.549047
C5    C     C_1   0.162503 0.499876 0.500382 -0.029827
C6    C     C_1   0.837503 0.500131 0.499552 -0.026756
C7    C     C_1   0.059941 0.499955 0.500156 -0.047065
C8    C     C_1   0.940065 0.500065 0.499725 -0.045892
C9    C     C_R   0.510304 0.812144 0.528565 -0.029816
C10   C     C_R   0.486275 0.187475 0.471953 -0.035402
C11   C     C_R   0.362053 0.031333 0.419887 0.279951
C12   C     C_R   0.499958 0.699933 0.520381 0.583537
C13   C     C_R   0.633672 0.968764 0.580221 0.277233
C14   C     C_R   0.386175 0.137147 0.417467 -0.186777
C15   C     C_R   0.611557 0.862335 0.580384 -0.188646
C16   C     C_R   0.563461 0.134891 0.535448 0.272918
C17   C     C_R   0.429274 0.864869 0.469537 0.274808
C18   C     C_R   0.548589 0.025820 0.529391 -0.028317
C19   C     C_R   0.445455 0.973790 0.472878 -0.027762
C20   C     C_3   0.341861 0.787153 0.295362 -0.055413
C21   C     C_3   0.623802 0.210290 0.718584 -0.064073
C22   C     C_3   0.212296 0.011988 0.276860 -0.118368
C23   C     C_R   0.414412 0.383565 0.021300 0.228853
C24   C     C_3   0.791513 0.983063 0.714960 -0.111379
C25   C     C_3   0.265842 0.424312 0.790663 -0.053402
C26   C     C_3   0.740944 0.569558 0.206438 -0.056993
C27   C     C_3   0.654205 0.681784 0.809654 -0.310092
C28   C     C_3   0.307317 0.353212 0.190150 -0.325481
C29   C     C_3   0.434859 0.209803 0.969072 -0.119037
C30   C     C_3   0.552484 0.779513 0.063959 -0.098632
C31   C     C_R   0.587008 0.614626 0.979880 0.225365
C32   C     C_R   0.406043 0.405929 0.142011 0.095599
C33   C     C_R   0.586503 0.600061 0.858374 0.101609
C34   C     C_R   0.549524 0.541748 0.156905 0.394427
C35   C     C_R   0.456851 0.452734 0.842840 0.394741
C36   C     C_R   0.536658 0.537999 0.034414 -0.095583
Cu1   Cu    Cu3+1 0.508350 0.507730 0.615930 0.982336
Cu2   Cu    Cu3+1 0.491650 0.492270 0.384070 0.977141
H1    H     H_    0.676381 0.815890 0.614637 0.104611
H2    H     H_    0.168209 0.086970 0.290544 0.121759
H3    H     H_    0.147482 0.950909 0.235361 0.139433
H4    H     H_    0.838614 0.910704 0.691204 0.122631
H5    H     H_    0.727282 0.971990 0.778163 0.078259
H6    H     H_    0.855150 0.044435 0.758292 0.147974
H7    H     H_    0.206283 0.384632 0.718647 0.139597
H8    H     H_    0.263908 0.509913 0.790007 0.101303
H9    H     H_    0.231652 0.407827 0.871540 0.140019
H10   H     H_    0.771489 0.583907 0.123182 0.137214
H11   H     H_    0.743869 0.484537 0.210159 0.101089
H12   H     H_    0.322583 0.183227 0.380934 0.104699
H13   H     H_    0.802535 0.611184 0.275495 0.138487
H14   H     H_    0.600342 0.749157 0.800929 0.120035
H15   H     H_    0.730935 0.711385 0.867642 0.128899
H16   H     H_    0.689915 0.653155 0.727823 0.163735
H17   H     H_    0.256922 0.296247 0.123946 0.131715
H18   H     H_    0.335273 0.308959 0.257631 0.149066
H19   H     H_    0.245331 0.412137 0.221373 0.135566
H20   H     H_    0.399375 0.139252 0.909843 0.139133
H21   H     H_    0.437718 0.191686 0.058051 0.107014
H22   H     H_    0.523327 0.226308 0.944939 0.092335
H23   H     H_    0.383069 0.712020 0.271533 0.150326
H24   H     H_    0.475388 0.747440 0.098859 0.095306
H25   H     H_    0.526877 0.809451 0.983557 0.092630
H26   H     H_    0.588537 0.846519 0.128189 0.145871
H27   H     H_    0.389311 0.849411 0.260523 0.086031
H28   H     H_    0.254481 0.778033 0.251417 0.132773
H29   H     H_    0.535879 0.239268 0.727887 0.162435
H30   H     H_    0.684927 0.270722 0.768249 0.131643
H31   H     H_    0.630205 0.138966 0.758406 0.108427
H32   H     H_    0.281187 0.014696 0.216277 0.078732
N1    N     N_R   0.520920 0.519350 0.790130 -0.250341
N2    N     N_R   0.479080 0.480650 0.209870 -0.251763
O1    O     O_R   0.505930 0.354460 0.582000 -0.441898
O2    O     O_3   0.653064 0.191670 0.602741 -0.503156
O3    O     O_3   0.253468 0.985944 0.383397 -0.501839
O4    O     O_3   0.741934 0.015998 0.615206 -0.499862
O5    O     O_3   0.376419 0.384719 0.775856 -0.501852
O6    O     O_3   0.630690 0.608640 0.224320 -0.492822
O7    O     O_3   0.362911 0.293105 0.957657 -0.554456
O8    O     O_3   0.637365 0.705071 0.044977 -0.552701
O9    O     O_R   0.494070 0.645540 0.418000 -0.452263
O10   O     O_R   0.491820 0.341410 0.386200 -0.529156
O11   O     O_R   0.508180 0.658590 0.613800 -0.531599
O12   O     O_R   0.344250 0.506540 0.597900 -0.480146
O13   O     O_R   0.655750 0.493460 0.402100 -0.474430
O14   O     O_R   0.330140 0.493480 0.402100 -0.514454
O15   O     O_R   0.669860 0.506520 0.597900 -0.512627
O16   O     O_3   0.331454 0.809867 0.415589 -0.508912

loop_
_geom_bond_atom_site_label_1
_geom_bond_atom_site_label_2
_ccdc_geom_bond_type
C2    C35   A    
C30   H26   S    
C17   O16   S    
C24   H4    S    
C28   H18   S    
C27   H16   S    
C7    C8    S    
C32   N2    A    
C4    O15   A    
C28   H19   S    
C27   C33   S    
C11   C19   A    
C26   O6    S    
C13   C18   A    
Cu2   O14   S    
C16   O2    S    
C20   H28   S    
C11   C14   A    
C22   H3    S    
C25   H7    S    
C18   C19   A    
C20   H23   S    
C29   H22   S    
C29   H21   S    
C31   C33   A    
Cu1   O12   S    
C25   H9    S    
C26   H10   S    
C30   O8    S    
C35   N1    A    
C30   H25   S    
C21   H29   S    
C3    O14   A    
C22   O3    S    
C28   H17   S    
Cu2   N2    S    
Cu1   N1    S    
Cu2   O13   S    
C20   H27   S    
C28   C32   S    
C31   O8    S    
C10   C14   A    
C26   H11   S    
C5    C7    T    
C24   O4    S    
C6    C8    T    
C4    O13   A    
C1    O10   A    
C21   O2    S    
C35   O5    S    
C12   O11   A    
C21   H31   S    
Cu1   Cu2   S    
C29   O7    S    
C13   O4    S    
C22   H2    S    
C9    C17   A    
C15   H1    S    
C4    C6    S    
C30   H24   S    
C21   H30   S    
C24   H6    S    
C25   O5    S    
C34   N2    A    
C2    C23   A    
C27   H14   S    
C2    C36   A    
Cu1   O1    S    
Cu1   O15   S    
C1    C10   S    
C3    C5    S    
C27   H15   S    
C1    O1    A    
C23   C32   A    
C13   C15   A    
C9    C15   A    
Cu2   O9    S    
C10   C16   A    
C26   H13   S    
C34   O6    S    
C14   H12   S    
C20   O16   S    
C17   C19   A    
C12   O9    A    
C34   C36   A    
C9    C12   S    
C33   N1    A    
C29   H20   S    
C16   C18   A    
C3    O12   A    
C24   H5    S    
C31   C36   A    
Cu1   O11   S    
C11   O3    S    
C23   O7    S    
C25   H8    S    
C22   H32   S    
Cu2   O10   S    
