data_mof_unit_5135.cif
_audit_creation_date              2012-12-11T17:47:23-0500
_audit_creation_method            fapswitch 2.2
_symmetry_space_group_name_H-M    P1
_symmetry_Int_Tables_number       1
_space_group_crystal_system       triclinic
_cell_length_a                    14.903342
_cell_length_b                    15.188598
_cell_length_c                    15.190177
_cell_angle_alpha                 110.611493
_cell_angle_beta                  108.25689
_cell_angle_gamma                 108.79893
_cell_volume                      2670.09646174

loop_
_atom_site_label
_atom_site_type_symbol
_atom_type_description
_atom_site_fract_x
_atom_site_fract_y
_atom_site_fract_z
_atom_type_partial_charge
C1    C     C_R   0.912852 0.199721 0.999817 -0.061633
C2    C     C_R   0.033655 0.759970 0.947287 -0.098403
C3    C     C_R   0.317854 0.828539 0.321285 -0.041745
C4    C     C_R   0.676762 0.216720 0.677167 -0.038592
C5    C     C_R   0.323431 0.499062 0.052196 0.040982
C6    C     C_R   0.694878 0.506818 0.054414 0.135061
C7    C     C_R   0.949702 0.495943 0.306229 0.096554
C8    C     C_R   0.058463 0.501042 0.696997 0.094291
C9    C     C_R   0.949307 0.874912 0.858760 -0.177948
C10   C     C_R   0.842891 0.972938 0.934180 -0.202180
C11   C     C_R   0.102945 0.037727 0.703745 0.437161
C12   C     C_R   0.822043 0.926112 0.205220 0.456701
C13   C     C_R   0.019628 0.997431 0.726866 0.358076
C14   C     C_R   0.871321 0.937882 0.142099 0.321077
C15   C     C_R   0.597597 0.356620 0.345990 0.561077
C16   C     C_R   0.413834 0.670941 0.700828 0.552418
C17   C     C_R   0.710762 0.413728 0.402627 -0.146200
C18   C     C_R   0.303677 0.596091 0.646912 -0.146078
C19   C     C_R   0.772074 0.384875 0.355256 0.077504
C20   C     C_R   0.229090 0.629845 0.659752 -0.002564
C21   C     C_R   0.716819 0.294597 0.251818 -0.092521
C22   C     C_R   0.266353 0.738585 0.729878 -0.089316
C23   C     C_R   0.307583 0.789533 0.218776 0.423049
C24   C     C_R   0.686060 0.238701 0.778022 0.488141
C25   C     C_R   0.604040 0.239020 0.194687 -0.011264
C26   C     C_R   0.376471 0.812869 0.784929 0.061613
C27   C     C_R   0.544256 0.270195 0.241239 -0.109594
C28   C     C_R   0.449713 0.779745 0.768045 -0.175911
C29   C     C_R   0.926103 0.437298 0.519088 -0.190662
C30   C     C_R   0.080632 0.555597 0.482767 -0.135128
C31   C     C_R   0.035303 0.497505 0.596822 0.047317
C32   C     C_R   0.971204 0.496598 0.405223 0.079263
C33   C     C_R   0.113467 0.559460 0.580176 0.070922
C34   C     C_R   0.891326 0.437671 0.423640 0.114201
C35   C     C_R   0.046658 0.012992 0.830588 -0.168263
C36   C     C_R   0.806985 0.881223 0.029623 -0.133887
C37   C     C_R   0.234749 0.075452 0.872120 0.543344
C38   C     C_R   0.645950 0.836766 0.051540 0.484590
C39   C     C_R   0.096861 0.911984 0.360100 -0.047303
C40   C     C_R   0.883002 0.110880 0.582904 -0.067676
C41   C     C_R   0.205566 0.972918 0.392368 -0.096179
C42   C     C_R   0.779343 0.068367 0.570802 -0.094984
C43   C     C_R   0.285638 0.982415 0.479663 -0.091140
C44   C     C_R   0.697401 0.069896 0.495698 -0.116050
C45   C     C_R   0.224658 0.409300 0.973580 0.492873
C46   C     C_R   0.775540 0.591138 0.063430 0.363023
C47   C     C_R   0.256116 0.940691 0.542221 0.406781
C48   C     C_R   0.716453 0.101220 0.423258 0.391732
C49   C     C_R   0.145981 0.881323 0.510090 0.366928
C50   C     C_R   0.819351 0.135638 0.430789 0.387331
C51   C     C_R   0.066972 0.865924 0.418042 -0.155961
C52   C     C_R   0.902485 0.142040 0.511891 -0.120602
C53   C     C_R   0.481078 0.105854 0.563746 -0.032931
C54   C     C_R   0.508236 0.950936 0.424683 -0.046446
C55   C     C_R   0.584013 0.126860 0.575715 0.039807
C56   C     C_R   0.406618 0.928885 0.414398 0.054361
C57   C     C_R   0.596198 0.050120 0.500835 0.101313
C58   C     C_R   0.391944 0.006412 0.484758 0.087298
C59   C     C_R   0.209088 0.070729 0.773682 -0.128510
C60   C     C_R   0.710043 0.880376 0.161019 -0.303290
C61   C     C_R   0.854019 0.896920 0.960416 0.199574
C62   C     C_R   0.962597 0.968972 0.858205 0.183463
C63   C     C_R   0.154996 0.051629 0.902790 -0.285183
C64   C     C_R   0.693832 0.832122 0.985427 -0.200970
C65   C     C_R   0.917296 0.852567 0.928970 0.071161
C66   C     C_R   0.912431 0.023198 0.902727 0.063754
C67   C     C_R   0.999528 0.587179 0.301081 -0.123235
C68   C     C_R   0.006112 0.411806 0.702399 -0.104975
C69   C     C_3   0.485544 0.416311 0.978500 0.508691
C70   C     C_3   0.539921 0.592639 0.152798 0.455303
C71   C     C_3   0.452496 0.501587 0.978864 0.522481
C72   C     C_3   0.575504 0.508286 0.153123 0.435275
C73   C     C_3   0.425103 0.501408 0.068170 -0.214552
C74   C     C_3   0.600494 0.507183 0.062663 -0.235611
C75   C     C_3   0.458591 0.415278 0.068745 -0.363337
C76   C     C_3   0.567227 0.593159 0.063693 -0.346696
C77   C     C_R   0.312922 0.589426 0.067491 -0.093547
C78   C     C_R   0.702122 0.415303 0.009490 -0.038523
C79   C     C_R   0.919694 0.407546 0.213035 -0.133004
C80   C     C_R   0.088938 0.590629 0.789256 -0.070224
C81   C     C_R   0.219978 0.768993 0.312348 -0.178385
C82   C     C_R   0.780544 0.263051 0.691836 -0.197401
C83   C     C_R   0.997423 0.197114 0.902770 -0.056051
C84   C     C_R   0.949818 0.767203 0.046615 -0.002069
C85   C     C_R   0.942893 0.136407 0.936268 0.046701
C86   C     C_R   0.963535 0.795028 0.972461 0.106408
H1    H     H_    0.751103 0.480463 0.483962 0.172952
H2    H     H_    0.275455 0.513097 0.590298 0.187024
H3    H     H_    0.865894 0.392933 0.535048 0.134041
H4    H     H_    0.141614 0.600156 0.467662 0.152058
H5    H     H_    0.176114 0.057485 0.980465 0.198429
H6    H     H_    0.643765 0.793421 0.899988 0.209328
H7    H     H_    0.982078 0.816897 0.390578 0.226306
H8    H     H_    0.983521 0.174708 0.522021 0.244516
H9    H     H_    0.035532 0.895076 0.286481 0.184933
H10   H     H_    0.949165 0.123752 0.650195 0.187116
H11   H     H_    0.377669 0.671143 0.114314 0.217100
H12   H     H_    0.653944 0.337726 0.997932 0.193529
N1    N     N_R   0.947560 0.293820 0.002910 -0.056248
N2    N     N_R   0.052440 0.706180 0.997090 -0.042889
N3    N     N_R   0.208960 0.706170 0.152110 -0.086471
N4    N     N_R   0.791040 0.293830 0.847890 -0.089739
N5    N     N_R   0.154330 0.443160 0.946140 -0.088383
N6    N     N_R   0.845670 0.556840 0.053860 -0.090272
N7    N     N_R   0.002190 0.556820 0.208880 -0.057150
N8    N     N_R   0.997810 0.443180 0.791120 -0.050963
N9    N     N_R   0.210550 0.556810 0.002910 -0.065218
N10   N     N_R   0.789450 0.443190 0.997090 -0.067712
N11   N     N_R   0.945970 0.443180 0.152110 -0.048071
N12   N     N_R   0.054030 0.556820 0.847890 -0.046393
N13   N     N_R   0.151530 0.706170 0.208880 -0.073426
N14   N     N_R   0.848470 0.293830 0.791120 -0.075234
N15   N     N_R   0.004980 0.293810 0.946140 -0.062106
N16   N     N_R   0.995020 0.706190 0.053860 -0.065450
Ni1   Ni    Ni4+2 0.869690 0.369690 0.000000 0.249486
Ni2   Ni    Ni4+2 0.130310 0.630310 0.000000 0.305928
Ni3   Ni    Ni4+2 0.001390 0.369680 0.869810 0.240272
Ni4   Ni    Ni4+2 0.998610 0.630320 0.130190 0.207825
H13   H     H_    0.858142 0.175369 0.029740 0.111232
H14   H     H_    0.068708 0.772287 0.897695 0.102357
Cl1   Cl    Cl    0.079819 0.056777 0.593454 -0.533980
Cl2   Cl    Cl    0.897394 0.960708 0.337333 -0.538215
Cl3   Cl    Cl    0.367156 0.113005 0.957046 -0.645696
Cl4   Cl    Cl    0.505321 0.781702 0.997488 -0.565303
H15   H     H_    0.456771 0.225633 0.197130 0.189279
H16   H     H_    0.533877 0.839132 0.806528 0.148465
Cl5   Cl    Cl    0.522900 0.394137 0.406098 -0.491696
Cl6   Cl    Cl    0.505468 0.629034 0.678728 -0.492245
H17   H     H_    0.758803 0.261066 0.217422 0.156239
H18   H     H_    0.209772 0.766997 0.737510 0.173073
H19   H     H_    0.563436 0.168518 0.116098 0.210336
H20   H     H_    0.404503 0.896987 0.837288 0.202922
Cl7   Cl    Cl    0.883762 0.918154 0.624489 -0.516500
Cl8   Cl    Cl    0.011687 0.024993 0.203379 -0.596252
H21   H     H_    0.414351 0.343956 0.073150 0.245498
H22   H     H_    0.610997 0.667346 0.065210 0.239406
Cl9   Cl    Cl    0.383564 0.860388 0.174394 -0.554627
Cl10  Cl    Cl    0.588912 0.171483 0.806351 -0.581316
H23   H     H_    0.226782 0.001669 0.341992 0.187315
H24   H     H_    0.765933 0.046273 0.627873 0.177387
Cl11  Cl    Cl    0.353946 0.944489 0.647243 -0.568313
Cl12  Cl    Cl    0.614579 0.104212 0.328592 -0.561323
Cl13  Cl    Cl    0.103974 0.815442 0.576262 -0.664867
Cl14  Cl    Cl    0.848331 0.175028 0.342840 -0.623030
H25   H     H_    0.470894 0.165106 0.619151 0.202927
H26   H     H_    0.518921 0.890861 0.370701 0.196445
H27   H     H_    0.983144 0.831936 0.819306 0.147586
H28   H     H_    0.792868 0.004571 0.955943 0.134000
Cl15  Cl    Cl    0.373851 0.498381 0.860303 -0.462460
Cl16  Cl    Cl    0.671924 0.528889 0.272353 -0.584909
Cl17  Cl    Cl    0.445194 0.301855 0.856818 -0.473640
Cl18  Cl    Cl    0.576782 0.709683 0.270660 -0.536408
Cl19  Cl    Cl    0.208211 0.286823 0.887749 -0.695091
Cl20  Cl    Cl    0.720118 0.624663 0.967148 -0.640687
H29   H     H_    0.031276 0.668796 0.360701 0.141263
H30   H     H_    0.977321 0.330404 0.645776 0.105439
H31   H     H_    0.889243 0.324741 0.192812 0.124871
H32   H     H_    0.135735 0.673800 0.813579 0.107861
H33   H     H_    0.197819 0.774174 0.373633 0.126291
H34   H     H_    0.803839 0.267931 0.632750 0.129522
H35   H     H_    0.008200 0.166183 0.834023 0.140510
H36   H     H_    0.910489 0.787357 0.092154 0.123504
H37   H     H_    0.271713 0.094488 0.752072 0.250009
H38   H     H_    0.672660 0.876702 0.211273 0.246829

loop_
_geom_bond_atom_site_label_1
_geom_bond_atom_site_label_2
_ccdc_geom_bond_type
C80   N12   A    
C16   C28   A    
C39   C51   A    
C81   H33   S    
C73   C75   S    
C83   N15   A    
N4    N14   A    
N2    Ni2   S    
C30   H4    S    
C1    N1    A    
C66   C85   S    
C29   H3    S    
C76   H22   S    
C26   H20   S    
C65   C86   S    
C47   C49   A    
C71   Cl15  S    
C68   N8    A    
N13   Ni4   S    
N10   Ni1   S    
C78   N10   A    
C19   C21   A    
C84   C86   A    
C13   C35   A    
C14   C36   A    
C71   C76   S    
C4    C24   A    
C75   H21   S    
C6    C78   A    
C11   C13   A    
C67   H29   S    
C1    H13   S    
C2    C86   A    
C69   C71   S    
C21   C25   A    
N4    Ni1   S    
C45   N5    A    
C43   C58   S    
C17   C19   A    
C37   Cl3   S    
C3    C23   A    
C81   N13   A    
C50   Cl14  S    
C49   C51   A    
C78   H12   S    
C50   C52   A    
C31   C33   A    
C77   H11   S    
C24   N4    A    
C54   H26   S    
C10   C66   A    
C83   H35   S    
C2    N2    A    
C15   Cl5   S    
C22   H18   S    
C41   C43   A    
C11   Cl1   S    
C10   H28   S    
C42   C44   A    
C40   H10   S    
C72   C75   S    
C11   C59   A    
C37   C63   A    
C28   H16   S    
C6    C74   S    
N6    Ni4   S    
C53   C55   A    
C1    C85   A    
C15   C27   A    
C46   Cl20  S    
C54   C56   A    
C70   C72   S    
C79   H31   S    
C79   N11   A    
C42   H24   S    
C9    C62   A    
C69   Cl17  S    
C77   N9    A    
N2    N16   A    
C12   Cl2   S    
C72   C74   S    
C71   C73   S    
C62   C66   A    
C67   N7    A    
C14   Cl8   S    
C24   Cl10  S    
C40   C52   A    
C5    C45   A    
C29   C34   A    
C9    H27   S    
C18   H2    S    
C32   C34   A    
C3    C81   A    
C82   H34   S    
C3    C56   S    
C80   H32   S    
C44   C57   S    
C29   C31   A    
C21   H17   S    
C70   C73   S    
C53   H25   S    
C70   Cl18  S    
C69   C74   S    
C37   C59   A    
C52   H8    S    
C48   C50   A    
C16   Cl6   S    
C39   H9    S    
N16   Ni4   S    
C74   C76   S    
C51   H7    S    
C38   C60   A    
C20   C33   S    
C83   C85   A    
C12   C14   A    
C8    C68   A    
C72   Cl16  S    
C55   C57   A    
C4    C55   S    
C70   C76   S    
N15   Ni3   S    
N7    Ni4   S    
C10   C61   A    
C45   Cl19  S    
C64   H6    S    
C5    C77   A    
C36   C61   S    
C25   H19   S    
N12   Ni2   S    
N6    N10   A    
C84   H36   S    
C7    C79   A    
N8    N12   A    
C15   C17   A    
N7    N11   A    
C2    H14   S    
C7    C32   S    
C6    C46   A    
C30   C33   A    
C17   H1    S    
C8    C31   S    
C13   Cl7   S    
C23   Cl9   S    
C20   C22   A    
C68   H30   S    
C19   C34   S    
N1    N15   A    
N5    N9    A    
C53   C58   A    
C25   C27   A    
C47   Cl11  S    
C26   C28   A    
N14   Ni3   S    
C84   N16   A    
N8    Ni3   S    
C30   C32   A    
C27   H15   S    
C23   N3    A    
C46   N6    A    
N3    N13   A    
C49   Cl13  S    
N1    Ni1   S    
C40   C42   A    
C60   H38   S    
C56   C58   A    
C69   C75   S    
C35   C62   S    
C18   C20   A    
C5    C73   S    
C9    C65   A    
N9    Ni2   S    
C41   H23   S    
C59   H37   S    
N11   Ni1   S    
C7    C67   A    
C12   C60   A    
C61   C65   A    
C48   Cl12  S    
C4    C82   A    
C39   C41   A    
C16   C18   A    
C22   C26   A    
C63   H5    S    
C8    C80   A    
N3    Ni2   S    
N5    Ni3   S    
C35   C63   A    
C36   C64   A    
C38   C64   A    
C43   C47   A    
C38   Cl4   S    
C44   C48   A    
C82   N14   A    
C54   C57   A    
