data_mof_unit_45430.cif
_audit_creation_date              2012-10-26T19:07:46-0400
_audit_creation_method            fapswitch 2.2
_symmetry_space_group_name_H-M    P1
_symmetry_Int_Tables_number       1
_space_group_crystal_system       triclinic
_cell_length_a                    15.039441
_cell_length_b                    14.145722
_cell_length_c                    19.326262
_cell_angle_alpha                 91.21592
_cell_angle_beta                  85.667202
_cell_angle_gamma                 92.895644
_cell_volume                      4093.93098908

loop_
_atom_site_label
_atom_site_type_symbol
_atom_type_description
_atom_site_fract_x
_atom_site_fract_y
_atom_site_fract_z
_atom_type_partial_charge
C1    C     C_R   0.328820 0.498208 0.501659 0.623534
C2    C     C_R   0.088172 0.530883 0.564348 0.002881
C3    C     C_R   0.942815 0.555671 0.623461 -0.000888
C4    C     C_R   0.063831 0.549508 0.376112 0.004052
C5    C     C_R   0.035176 0.556548 0.625451 0.259927
C6    C     C_R   0.972045 0.557765 0.374798 0.254968
C7    C     C_R   0.427637 0.793906 0.531765 0.335188
C8    C     C_R   0.571454 0.205725 0.467153 0.332172
C9    C     C_R   0.571325 0.800437 0.467637 0.318865
C10   C     C_R   0.429672 0.199867 0.534061 0.330162
C11   C     C_R   0.567116 0.901290 0.462951 -0.026737
C12   C     C_R   0.671144 0.502004 0.497744 0.625520
C13   C     C_R   0.432423 0.098524 0.536601 -0.019994
C14   C     C_R   0.425380 0.895406 0.526937 -0.008584
C15   C     C_R   0.573544 0.104318 0.471915 -0.026633
C16   C     C_R   0.498559 0.948596 0.498173 -0.077315
C17   C     C_R   0.500184 0.051172 0.500266 -0.080747
C18   C     C_R   0.630571 0.959209 0.424013 0.303437
C19   C     C_R   0.370598 0.040262 0.576863 0.285145
C20   C     C_R   0.351859 0.948852 0.551049 0.249289
C21   C     C_R   0.647684 0.051302 0.448891 0.290961
C22   C     C_R   0.500635 0.499384 0.367906 0.615874
C23   C     C_R   0.808747 0.514552 0.562264 0.237935
C24   C     C_R   0.499466 0.500708 0.632126 0.621295
C25   C     C_R   0.516884 0.583548 0.255525 -0.076275
C26   C     C_R   0.493196 0.415944 0.744169 -0.079769
C27   C     C_R   0.507210 0.587321 0.745803 -0.076331
C28   C     C_R   0.484281 0.414075 0.254705 -0.095358
C29   C     C_R   0.516750 0.583835 0.183574 -0.084569
C30   C     C_R   0.493272 0.415924 0.816110 -0.095872
C31   C     C_R   0.507472 0.587324 0.817902 -0.090091
C32   C     C_R   0.484199 0.414302 0.182617 -0.104571
C33   C     C_R   0.500509 0.499231 0.146366 0.030797
C34   C     C_R   0.192166 0.503612 0.437025 0.236093
C35   C     C_R   0.500226 0.501569 0.853745 0.030478
C36   C     C_R   0.501053 0.498644 0.291768 0.061583
C37   C     C_R   0.499454 0.501614 0.708302 0.077027
C38   C     C_R   0.500243 0.501104 0.929924 0.356737
C39   C     C_R   0.500339 0.499839 0.070200 0.357257
C40   C     C_R   0.823047 0.514000 0.434428 0.042716
C41   C     C_R   0.177588 0.504968 0.564553 0.049970
C42   C     C_R   0.769088 0.508341 0.497995 0.017444
C43   C     C_R   0.230812 0.496531 0.501098 0.013569
C44   C     C_2   0.789284 0.472687 0.369569 0.702303
C45   C     C_R   0.901612 0.533578 0.562229 -0.007930
C46   C     C_2   0.206573 0.463259 0.628004 0.686756
C47   C     C_R   0.101939 0.526395 0.437167 -0.003713
C48   C     C_R   0.955170 0.535143 0.499276 -0.022655
C49   C     C_R   0.048884 0.532116 0.500302 -0.020490
C50   C     C_R   0.915735 0.535902 0.435378 -0.005877
Cu1   Cu    Cu3+1 0.500000 0.597420 0.500000 1.201960
Cu2   Cu    Cu3+1 0.500000 0.402580 0.500000 1.223982
H1    H     H_    0.529374 0.650069 0.282647 0.175126
H2    H     H_    0.105661 0.566146 0.329655 0.233687
H3    H     H_    0.707838 0.481845 0.292056 0.354518
H4    H     H_    0.181847 0.363579 0.701097 0.374329
H5    H     H_    0.767719 0.440736 0.744825 0.385774
H6    H     H_    0.224238 0.419823 0.255396 0.385307
H7    H     H_    0.036033 0.705541 0.782062 0.392067
H8    H     H_    0.991372 0.713790 0.225937 0.394785
H9    H     H_    0.362239 0.675724 0.684461 0.366961
H10   H     H_    0.617413 0.311269 0.315286 0.347475
H11   H     H_    0.666679 0.696916 0.342355 0.381388
H12   H     H_    0.488580 0.348535 0.716787 0.176923
H13   H     H_    0.346751 0.308307 0.665445 0.360744
H14   H     H_    0.582860 0.026873 0.250953 0.385837
H15   H     H_    0.439621 0.963922 0.742100 0.385359
H16   H     H_    0.163669 0.946341 0.603777 0.381918
H17   H     H_    0.831312 0.982106 0.545974 0.397950
H18   H     H_    0.513985 0.654412 0.719511 0.162227
H19   H     H_    0.470226 0.347831 0.281355 0.169588
H20   H     H_    0.529424 0.650496 0.157225 0.170947
H21   H     H_    0.488197 0.348593 0.842100 0.169446
H22   H     H_    0.513426 0.654533 0.845441 0.161904
H23   H     H_    0.470897 0.347979 0.155433 0.163285
H24   H     H_    0.903510 0.576847 0.669701 0.234774
N1    N     N_R   0.488972 0.417874 0.033498 -0.200110
N2    N     N_R   0.511537 0.583090 0.966625 -0.198492
N3    N     N_R   0.488962 0.418509 0.964723 -0.199588
N4    N     N_R   0.511624 0.582446 0.035406 -0.197793
N5    N     N_R   0.500000 0.743810 0.500000 -0.278853
N6    N     N_R   0.500000 0.256190 0.500000 -0.272564
O1    O     O_R   0.370260 0.582280 0.500020 -0.446636
O2    O     O_R   0.717926 0.510460 0.339543 -0.625645
O3    O     O_2   0.272273 0.495894 0.655102 -0.436126
O4    O     O_R   0.156654 0.386184 0.657493 -0.596341
O5    O     O_2   0.699581 0.572028 0.669060 -0.300430
O6    O     O_2   0.675783 0.407468 0.629078 -0.256513
O7    O     O_3   0.808042 0.445629 0.701949 -0.490594
O8    O     O_2   0.303395 0.559123 0.329090 -0.290859
O9    O     O_2   0.317751 0.397785 0.369863 -0.265211
O10   O     O_3   0.185206 0.427186 0.298612 -0.486713
O11   O     O_2   0.088498 0.527003 0.752507 -0.231857
O12   O     O_R   0.629740 0.417720 0.499980 -0.428377
O13   O     O_2   0.167715 0.655525 0.685811 -0.180824
O14   O     O_3   0.008101 0.682489 0.739658 -0.489831
O15   O     O_2   0.914454 0.537354 0.246775 -0.222083
O16   O     O_2   0.853202 0.666047 0.320327 -0.199576
O17   O     O_3   0.016095 0.687104 0.266974 -0.477006
O18   O     O_2   0.303577 0.814955 0.641127 -0.233675
O19   O     O_2   0.261284 0.711499 0.546444 -0.187679
O20   O     O_3   0.363171 0.652203 0.635788 -0.467986
O21   O     O_2   0.736091 0.292192 0.451405 -0.181898
O22   O     O_2   0.697958 0.183777 0.358816 -0.215749
O23   O     O_R   0.629740 0.582280 0.499980 -0.422567
O24   O     O_3   0.632238 0.342534 0.359575 -0.514491
O25   O     O_2   0.747019 0.827332 0.410747 -0.177407
O26   O     O_2   0.720091 0.728457 0.509439 -0.219618
O27   O     O_3   0.669126 0.667300 0.388056 -0.461626
O28   O     O_2   0.275572 0.273516 0.504519 -0.189033
O29   O     O_2   0.261377 0.177237 0.604937 -0.219519
O30   O     O_3   0.344327 0.336557 0.619240 -0.506062
O31   O     O_2   0.728746 0.960558 0.302646 -0.155660
O32   O     O_2   0.595216 0.852521 0.310806 -0.304444
O33   O     O_3   0.573449 0.032464 0.302124 -0.501892
O34   O     O_R   0.370260 0.417720 0.500020 -0.409274
O35   O     O_2   0.416848 0.141443 0.689998 -0.286668
O36   O     O_2   0.286248 0.029930 0.703617 -0.202987
O37   O     O_3   0.443770 0.961764 0.690705 -0.499553
O38   O     O_2   0.226226 0.024376 0.481102 -0.205295
O39   O     O_2   0.260131 0.860510 0.452046 -0.189972
O40   O     O_3   0.167902 0.894938 0.568249 -0.386331
O41   O     O_2   0.822874 0.098603 0.437927 -0.135322
O42   O     O_2   0.738542 0.145271 0.546170 -0.215960
O43   O     O_3   0.772657 0.968363 0.526877 -0.468268
O44   O     O_R   0.499990 0.582300 0.400140 -0.489577
O45   O     O_R   0.500010 0.417700 0.599860 -0.470262
O46   O     O_R   0.500010 0.582300 0.599860 -0.473421
O47   O     O_R   0.499990 0.417700 0.400140 -0.463450
O48   O     O_2   0.827019 0.406218 0.340912 -0.382999
S1    S     S_3+6 0.744651 0.485104 0.641540 0.023020
S2    S     S_3+6 0.377813 0.046645 0.667898 0.078045
S3    S     S_3+6 0.250540 0.932248 0.510290 0.137111
S4    S     S_3+6 0.748142 0.069876 0.490469 0.134453
S5    S     S_3+6 0.253297 0.472143 0.357602 0.022979
S6    S     S_3+6 0.078829 0.604780 0.702251 0.083253
S7    S     S_3+6 0.934920 0.611741 0.300725 0.081104
S8    S     S_3+6 0.337624 0.742652 0.588726 0.122128
S9    S     S_3+6 0.660851 0.256586 0.409462 0.116059
S10   S     S_3+6 0.680000 0.757230 0.444610 0.123349
S11   S     S_3+6 0.324586 0.245577 0.565260 0.108573
S12   S     S_3+6 0.633799 0.947665 0.332523 0.092792

loop_
_geom_bond_atom_site_label_1
_geom_bond_atom_site_label_2
_ccdc_geom_bond_type
O43   S4    S    
C5    S6    S    
C11   C18   A    
C23   C45   A    
C18   C21   A    
C19   C20   A    
H8    O17   S    
C32   H23   S    
C47   C49   A    
C33   C39   S    
C23   C42   A    
H5    O7    S    
C30   C35   A    
O27   S10   S    
C8    N6    A    
Cu2   O47   S    
O32   S12   D    
C25   H1    S    
C48   C50   A    
C12   O23   A    
C9    S10   S    
N2    N4    A    
C22   O44   A    
C38   N3    A    
C2    C41   A    
C44   O48   D    
C29   C33   A    
O31   S12   D    
O38   S3    D    
O20   S8    S    
O5    S1    D    
O25   S10   D    
O35   S2    D    
C26   H12   S    
C12   C42   S    
C1    C43   S    
C7    C14   A    
C16   C17   A    
C24   O45   A    
C41   C46   S    
Cu2   O12   S    
C1    O34   A    
C20   S3    S    
Cu1   N5    S    
C40   C44   S    
C46   O3    D    
O11   S6    D    
C40   C42   A    
O33   S12   S    
H17   O43   S    
C41   C43   A    
C12   O12   A    
O15   S7    D    
Cu2   O45   S    
C24   C37   S    
Cu2   O34   S    
C25   C29   A    
H14   O33   S    
C13   C19   A    
O41   S4    D    
C27   C31   A    
Cu1   Cu2   S    
C14   C20   A    
C28   C32   A    
C35   C38   S    
C4    C6    A    
H16   O40   S    
O26   S10   D    
C30   H21   S    
C31   H22   S    
C38   N2    A    
C3    C5    A    
C10   N6    A    
C2    C5    A    
C10   S11   S    
O30   S11   S    
H11   O27   S    
O28   S11   D    
O40   S3    S    
C2    C49   A    
O21   S9    D    
C11   C16   A    
H4    O4    S    
C18   S12   S    
Cu1   O23   S    
O37   S2    S    
N1    N3    A    
C23   S1    S    
C6    C50   A    
Cu2   N6    S    
C3    H24   S    
C9    C11   A    
C27   H18   S    
O18   S8    D    
C48   C49   A    
C7    N5    A    
C26   C30   A    
C8    C15   A    
C8    S9    S    
C22   O47   A    
C14   C16   A    
C28   H19   S    
H7    O14   S    
Cu1   O46   S    
H13   O30   S    
Cu1   O1    S    
C21   S4    S    
C45   C48   A    
C19   S2    S    
C15   C17   A    
C4    H2    S    
Cu1   O44   S    
C34   C43   A    
C44   O2    S    
C10   C13   A    
C7    S8    S    
O19   S8    D    
C26   C37   A    
O16   S7    D    
H10   O24   S    
O42   S4    D    
C1    O1    A    
C22   C36   S    
O7    S1    S    
O22   S9    D    
C13   C17   A    
C39   N4    A    
C29   H20   S    
C6    S7    S    
H9    O20   S    
C32   C33   A    
O8    S5    D    
O24   S9    S    
H15   O37   S    
C34   S5    S    
C27   C37   A    
C40   C50   A    
O14   S6    S    
O13   S6    D    
C3    C45   A    
C31   C35   A    
O36   S2    D    
O29   S11   D    
C25   C36   A    
O10   S5    S    
C15   C21   A    
O9    S5    D    
C28   C36   A    
C39   N1    A    
C24   O46   A    
O17   S7    S    
C34   C47   A    
O6    S1    D    
O39   S3    D    
H3    O2    S    
H6    O10   S    
C9    N5    A    
C46   O4    S    
C4    C47   A    
