data_mof_unit_47709.cif
_audit_creation_date              2012-12-10T20:37:26-0500
_audit_creation_method            fapswitch 2.2
_symmetry_space_group_name_H-M    P1
_symmetry_Int_Tables_number       1
_space_group_crystal_system       triclinic
_cell_length_a                    15.729008
_cell_length_b                    10.685354
_cell_length_c                    9.85329
_cell_angle_alpha                 90.547876
_cell_angle_beta                  90.183848
_cell_angle_gamma                 90.273314
_cell_volume                      1655.93931154

loop_
_atom_site_label
_atom_site_type_symbol
_atom_type_description
_atom_site_fract_x
_atom_site_fract_y
_atom_site_fract_z
_atom_type_partial_charge
C1    C     C_R   0.502882 0.259873 0.499288 0.894150
C2    C     C_3   0.083228 0.500672 0.499089 0.134957
C3    C     C_3   0.973820 0.579219 0.592987 0.244873
C4    C     C_3   0.917066 0.499016 0.501173 0.071219
C5    C     C_3   0.028800 0.617511 0.471144 -0.228677
C6    C     C_3   0.972433 0.533362 0.380302 0.246612
C7    C     C_1   0.173927 0.500643 0.498926 -0.059730
C8    C     C_1   0.826211 0.499494 0.501228 -0.067279
C9    C     C_R   0.501378 0.065004 0.620530 0.042748
C10   C     C_R   0.515356 0.128094 0.499559 -0.143730
C11   C     C_R   0.546260 0.061751 0.384875 0.193083
C12   C     C_R   0.337935 0.500131 0.499778 0.916386
C13   C     C_R   0.547675 0.931633 0.388953 -0.305840
C14   C     C_R   0.516599 0.870500 0.503636 -0.133045
C15   C     C_R   0.501077 0.937786 0.622017 0.088639
C16   C     C_3   0.431019 0.932732 0.724857 0.045483
C17   C     C_3   0.431533 0.075643 0.723193 -0.500287
C18   C     C_R   0.452129 0.414778 0.070091 0.227883
C19   C     C_R   0.552692 0.576886 0.073099 -0.125703
C20   C     C_R   0.552634 0.576991 0.929021 -0.135526
C21   C     C_R   0.452321 0.414479 0.927505 0.212498
C22   C     C_3   0.358082 0.399795 0.920958 -0.515087
C23   C     C_R   0.503012 0.739716 0.500730 0.929320
C24   C     C_3   0.357872 0.400454 0.075017 -0.518470
C25   C     C_R   0.662106 0.500123 0.500233 0.895175
C26   C     C_3   0.972338 0.383414 0.528774 -0.236575
C27   C     C_3   0.028179 0.417819 0.404482 -0.156545
C28   C     C_1   0.249141 0.500458 0.499256 -0.204584
C29   C     C_1   0.750965 0.499860 0.500804 -0.175704
C30   C     C_3   0.029608 0.465140 0.623610 -0.196582
H1    H     H_    0.052599 0.352204 0.325925 0.134865
H2    H     H_    0.453481 0.893162 0.822623 0.115349
H3    H     H_    0.373739 0.121056 0.682117 0.204185
H4    H     H_    0.454868 0.117540 0.820157 0.180085
H5    H     H_    0.593903 0.640797 0.128437 0.141555
H6    H     H_    0.593763 0.641015 0.875435 0.145175
H7    H     H_    0.325962 0.482538 0.876819 0.223963
H8    H     H_    0.338790 0.308205 0.875852 0.196900
H9    H     H_    0.325843 0.483730 0.119548 0.223346
H10   H     H_    0.338178 0.309374 0.118745 0.194752
H11   H     H_    0.947539 0.288639 0.552204 0.155663
H12   H     H_    0.053038 0.712450 0.447026 0.134975
H13   H     H_    0.055079 0.438755 0.724529 0.141079
H14   H     H_    0.567528 0.879253 0.299877 0.169797
N1    N     N_R   0.499430 0.499140 0.142800 -0.102729
N2    N     N_R   0.499430 0.499180 0.857150 -0.106188
O1    O     O_R   0.500010 0.316790 0.614690 -0.619138
O2    O     O_R   0.500000 0.316760 0.385350 -0.588831
O3    O     O_R   0.376780 0.500010 0.614650 -0.614667
O4    O     O_R   0.376770 0.499970 0.385310 -0.619403
O5    O     O_R   0.500000 0.683240 0.614650 -0.618735
O6    O     O_R   0.499990 0.683210 0.385310 -0.631153
O7    O     O_R   0.623230 0.500030 0.614690 -0.619911
O8    O     O_R   0.623220 0.499990 0.385350 -0.614151
Zn1   Zn    Zn3+2 0.500010 0.500020 0.653130 0.945800
Zn2   Zn    Zn3+2 0.499990 0.499980 0.346870 0.952944
N3    N     N_2   0.937878 0.569306 0.250177 -0.297441
H15   H     H_    0.893892 0.640222 0.257876 0.225410
C31   C     C_3   0.000306 0.590665 0.145535 -0.814054
H16   H     H_    0.967390 0.611064 0.048457 0.244711
H17   H     H_    0.040046 0.506105 0.130198 0.247107
H18   H     H_    0.041562 0.671693 0.173350 0.235048
N4    N     N_2   0.941300 0.664331 0.695178 -0.302748
H19   H     H_    0.898483 0.622275 0.759537 0.227069
C32   C     C_3   0.005475 0.736990 0.766184 -0.814770
H20   H     H_    0.974386 0.802218 0.838792 0.240301
H21   H     H_    0.043115 0.793176 0.693351 0.250098
H22   H     H_    0.048565 0.674396 0.823522 0.236365
N5    N     N_2   0.573282 0.123681 0.265224 -0.272690
H23   H     H_    0.633733 0.098093 0.236091 0.218109
C33   C     C_3   0.513651 0.114664 0.153312 -0.759942
H24   H     H_    0.507657 0.016176 0.117110 0.215762
H25   H     H_    0.536724 0.172611 0.067962 0.225562
H26   H     H_    0.450186 0.149340 0.184858 0.247571
N6    N     N_2   0.352877 0.872528 0.676209 -0.272897
H27   H     H_    0.312259 0.847436 0.753338 0.224600
C34   C     C_3   0.308686 0.918816 0.557387 -0.773748
H28   H     H_    0.266959 0.843510 0.515877 0.230991
H29   H     H_    0.353521 0.946838 0.476513 0.252196
H30   H     H_    0.268037 0.999581 0.585529 0.222201

loop_
_geom_bond_atom_site_label_1
_geom_bond_atom_site_label_2
_ccdc_geom_bond_type
C5    H12   S    
N4    C32   S    
C16   N6    S    
C2    C7    S    
C4    C8    S    
C12   O3    A    
C23   O6    A    
C34   H28   S    
C26   C27   S    
C12   C28   S    
C18   C24   S    
C8    C29   T    
C25   O7    A    
C5    C6    S    
N3    C31   S    
C15   C16   S    
C18   C21   A    
C24   H9    S    
N5    C33   S    
C19   C20   A    
N1    Zn2   S    
C16   C17   S    
C32   H21   S    
N2    Zn1   S    
C2    C27   S    
C9    C10   A    
C34   H29   S    
C31   H16   S    
C21   C22   S    
C6    N3    S    
C17   H3    S    
O7    Zn1   S    
C25   C29   S    
O8    Zn2   S    
C4    C26   S    
C31   H17   S    
C27   H1    S    
C25   O8    A    
C4    C6    S    
C33   H25   S    
C1    O1    A    
O3    Zn1   S    
C22   H7    S    
O4    Zn2   S    
C7    C28   T    
C14   C23   S    
C3    C30   S    
N6    H27   S    
C23   O5    A    
C6    C27   S    
C32   H22   S    
C19   N1    A    
N6    C34   S    
C9    C17   S    
C26   C30   S    
C22   C24   S    
C30   H13   S    
C2    C5    S    
C17   H4    S    
C3    C4    S    
C18   N1    A    
O1    Zn1   S    
C21   N2    A    
C34   H30   S    
O2    Zn2   S    
C31   H18   S    
C1    C10   S    
C3    C5    S    
C33   H26   S    
C12   O4    A    
C11   N5    S    
C1    O2    A    
C3    N4    S    
C16   H2    S    
C2    C30   S    
C9    C15   A    
C33   H24   S    
C19   H5    S    
C11   C13   A    
N3    H15   S    
C24   H10   S    
O5    Zn1   S    
N5    H23   S    
C10   C11   A    
N4    H19   S    
C20   H6    S    
C32   H20   S    
C14   C15   A    
C13   C14   A    
C13   H14   S    
C20   N2    A    
O6    Zn2   S    
C26   H11   S    
C22   H8    S    
