data_mof_unit_32040.cif
_audit_creation_date              2013-03-05T15:42:25-0500
_audit_creation_method            fapswitch 2.2
_symmetry_space_group_name_H-M    P1
_symmetry_Int_Tables_number       1
_space_group_crystal_system       triclinic
_cell_length_a                    12.994135
_cell_length_b                    10.936599
_cell_length_c                    9.702637
_cell_angle_alpha                 90.802468
_cell_angle_beta                  96.709887
_cell_angle_gamma                 90.350742
_cell_volume                      1369.23711597

loop_
_atom_site_label
_atom_site_type_symbol
_atom_site_description
_atom_site_fract_x
_atom_site_fract_y
_atom_site_fract_z
_atom_type_partial_charge
O1    O     O_R   0.500020 0.321960 0.617050 -0.558593
O2    O     O_R   0.499980 0.321920 0.382890 -0.525247
C1    C     C_R   0.499149 0.265521 0.498779 0.866088
O3    O     O_R   0.349010 0.500000 0.598060 -0.548317
O4    O     O_R   0.348980 0.499950 0.363910 -0.546677
C2    C     C_R   0.300769 0.502229 0.473673 0.891977
Cu1   Cu    Cu3+1 0.500020 0.500020 0.638640 1.087957
Cu2   Cu    Cu3+1 0.499980 0.499980 0.361360 1.076419
O5    O     O_R   0.500020 0.678080 0.617110 -0.542052
O6    O     O_R   0.499980 0.678040 0.382950 -0.590300
O7    O     O_R   0.651020 0.500050 0.636090 -0.534284
O8    O     O_R   0.650990 0.500000 0.401940 -0.576927
C3    C     C_R   0.504156 0.734382 0.501739 0.875853
C4    C     C_R   0.699477 0.504801 0.527031 0.874431
C5    C     C_R   0.812627 0.514632 0.545176 -0.193805
C6    C     C_R   0.188008 0.501806 0.458926 -0.193715
C7    C     C_R   0.026867 0.416763 0.346615 0.368297
C8    C     C_R   0.133780 0.431001 0.353702 -0.218798
C9    C     C_R   0.135577 0.563689 0.557138 0.372989
C10   C     C_R   0.029037 0.540422 0.561346 -0.120073
C11   C     C_R   0.973705 0.472126 0.450166 -0.050365
C12   C     C_R   0.866023 0.463846 0.442076 -0.158595
C13   C     C_R   0.867464 0.573616 0.661789 0.293740
C14   C     C_R   0.975668 0.584197 0.671647 0.325294
H1    H     H_    0.822106 0.418880 0.353895 0.235559
H2    H     H_    0.175203 0.383204 0.278947 0.240269
C15   C     C_2   0.518124 0.932341 0.394959 -0.136644
C16   C     C_2   0.519498 0.865277 0.508939 -0.245787
H3    H     H_    0.509669 0.889754 0.292380 0.208074
H4    H     H_    0.535956 0.907379 0.611370 0.207226
C17   C     C_2   0.538187 0.064130 0.407478 0.252651
C18   C     C_2   0.486913 0.134103 0.493377 0.116119
C19   C     C_2   0.435956 0.434854 0.910614 -0.022417
N1    N     N_2   0.498860 0.498660 0.846770 -0.296303
H5    H     H_    0.377683 0.379632 0.848650 0.211290
H6    H     H_    0.557518 0.546609 0.904011 0.219669
C20   C     C_2   0.439767 0.429318 0.066236 0.477753
N2    N     N_2   0.498840 0.498630 0.152900 -0.303558
H7    H     H_    0.543610 0.564457 0.114070 0.178398
Cl1   Cl    Cl    0.385502 0.077710 0.582949 -0.505742
Cl2   Cl    Cl    0.355908 0.321887 0.128161 -0.498711
Cl3   Cl    Cl    0.802981 0.636954 0.797098 -0.474378
N3    N     N_R   0.974873 0.340526 0.237941 0.134490
O9    O     O_R   0.999804 0.348318 0.112279 -0.247389
O10   O     O_R   0.918567 0.248260 0.268790 -0.259007
N4    N     N_R   0.030830 0.627021 0.800178 0.193811
O11   O     O_R   0.017700 0.737896 0.845062 -0.203354
O12   O     O_R   0.091341 0.553131 0.875425 -0.259510
Cl4   Cl    Cl    0.201737 0.685051 0.655073 -0.440067
N5    N     N_R   0.615723 0.114649 0.329138 0.145784
O13   O     O_R   0.629737 0.066370 0.209473 -0.269858
O14   O     O_R   0.683988 0.192876 0.387020 -0.333665

loop_
_geom_bond_atom_site_label_1
_geom_bond_atom_site_label_2
_geom_bond_distance
_ccdc_geom_bond_type
O4    Cu2   1.965156 S    
N5    O14   1.301929 A    
N3    O9    1.301402 A    
C7    N3    1.437174 S    
C3    C16   1.443741 S    
C20   N2    1.301948 D    
C15   H3    1.086479 S    
C9    Cl4   1.778618 S    
C17   C18   1.357316 D    
C8    H2    1.083109 S    
Cu2   O8    1.955729 S    
C14   N4    1.434924 S    
C16   H4    1.087108 S    
C19   N1    1.289282 D    
Cu1   Cu2   2.690279 S    
C6    C8    1.393396 A    
O1    Cu1   1.955687 S    
C11   C12   1.394561 A    
C10   C11   1.424135 A    
Cu1   O7    1.965156 S    
N3    O10   1.301433 A    
O4    C2    1.297157 A    
C13   Cl3   1.773180 S    
Cu2   N2    2.020782 S    
O3    Cu1   1.955729 S    
C5    C13   1.410523 A    
C19   H5    1.085085 S    
O8    C4    1.300742 A    
C19   C20   1.507041 S    
C7    C8    1.390571 A    
N1    H6    1.025882 S    
C6    C9    1.403400 A    
C20   Cl2   1.756692 S    
N2    H7    1.025839 S    
O7    C4    1.294491 A    
N4    O12   1.301721 A    
O3    C2    1.293956 A    
C17   N5    1.442925 S    
C2    C6    1.455451 S    
C10   C14   1.420778 A    
C18   Cl1   1.773376 S    
Cu1   N1    2.021490 S    
Cu2   O6    1.955687 S    
C15   C16   1.333998 D    
Cu1   O5    1.961450 S    
O5    C3    1.291533 A    
N4    O11   1.301630 A    
O2    C1    1.291163 A    
C13   C14   1.402031 A    
C1    C18   1.444605 S    
N5    O13   1.301320 A    
C4    C5    1.463338 S    
C15   C17   1.463971 S    
O6    C3    1.294659 A    
C5    C12   1.393534 A    
O2    Cu2   1.961450 S    
C9    C10   1.411440 A    
O1    C1    1.294225 A    
C12   H1    1.081766 S    
C7    C11   1.415464 A    
