data_mof_unit_34654.cif
_audit_creation_date              2013-03-05T16:36:15-0500
_audit_creation_method            fapswitch 2.2
_symmetry_space_group_name_H-M    P1
_symmetry_Int_Tables_number       1
_space_group_crystal_system       triclinic
_cell_length_a                    27.836263
_cell_length_b                    9.13025
_cell_length_c                    7.792683
_cell_angle_alpha                 89.22484
_cell_angle_beta                  89.997952
_cell_angle_gamma                 89.999198
_cell_volume                      1980.34503064

loop_
_atom_site_label
_atom_site_type_symbol
_atom_site_description
_atom_site_fract_x
_atom_site_fract_y
_atom_site_fract_z
_atom_type_partial_charge
O1    O     O_R   0.500000 0.288390 0.642760 -0.569929
O2    O     O_R   0.500000 0.711610 0.357240 -0.570291
O3    O     O_R   0.500000 0.711610 0.642760 -0.576213
O4    O     O_R   0.500000 0.288390 0.357240 -0.576349
C1    C     C_R   0.500001 0.219980 0.500676 0.859385
C2    C     C_R   0.500000 0.780019 0.499316 0.859095
O5    O     O_R   0.430260 0.500000 0.642770 -0.567043
O6    O     O_R   0.569740 0.500000 0.357230 -0.567307
O7    O     O_R   0.569740 0.500000 0.642770 -0.567044
O8    O     O_R   0.430260 0.500000 0.357230 -0.567313
C3    C     C_R   0.407457 0.499881 0.500003 0.881599
C4    C     C_R   0.592543 0.499893 0.499997 0.881588
Cu1   Cu    Cu3+1 0.500000 0.500000 0.669080 1.072664
Cu2   Cu    Cu3+1 0.500000 0.500000 0.330920 1.072400
C5    C     C_R   0.177803 0.467844 0.648002 0.628393
C6    C     C_R   0.822118 0.520976 0.347833 0.628884
C7    C     C_R   0.177884 0.520928 0.347848 0.628893
C8    C     C_R   0.822193 0.468171 0.648048 0.628388
O9    O     O_2   0.202232 0.449682 0.796405 -0.460811
O10   O     O_2   0.797574 0.539895 0.199792 -0.460319
O11   O     O_2   0.202432 0.540012 0.199831 -0.460395
O12   O     O_2   0.797764 0.450228 0.796486 -0.460742
N1    N     N_R   0.202157 0.494970 0.498139 -0.440129
N2    N     N_R   0.797842 0.495174 0.498156 -0.440136
C9    C     C_R   0.279049 0.626495 0.458467 0.282006
C10   C     C_R   0.720349 0.367508 0.539645 0.282586
C11   C     C_R   0.279665 0.367351 0.539513 0.282671
C12   C     C_R   0.720939 0.626601 0.458332 0.282040
C13   C     C_R   0.329461 0.625893 0.451036 0.071655
C14   C     C_R   0.669974 0.370638 0.548434 0.070793
C15   C     C_R   0.330040 0.370536 0.548357 0.070736
C16   C     C_R   0.670528 0.625950 0.450921 0.071627
C17   C     C_R   0.253975 0.496266 0.498638 0.119133
C18   C     C_R   0.746023 0.496425 0.498646 0.119158
C19   C     C_R   0.101856 0.493028 0.497387 -0.036663
C20   C     C_R   0.898143 0.493138 0.497392 -0.036635
C21   C     C_R   0.127477 0.458224 0.648009 -0.036122
C22   C     C_R   0.872486 0.528595 0.347040 -0.036019
C23   C     C_R   0.127517 0.528569 0.347062 -0.036023
C24   C     C_R   0.872517 0.458450 0.648042 -0.036096
C25   C     C_R   0.102519 0.413820 0.794768 -0.136628
C26   C     C_R   0.897449 0.571836 0.199830 -0.136530
C27   C     C_R   0.102559 0.571964 0.199902 -0.136517
C28   C     C_R   0.897466 0.413993 0.794787 -0.136708
C29   C     C_R   0.354877 0.498829 0.499963 -0.233789
C30   C     C_R   0.645122 0.498885 0.499943 -0.233781
H1    H     H_    0.121534 0.381052 0.910318 0.198945
H2    H     H_    0.878426 0.604833 0.084377 0.199128
H3    H     H_    0.121586 0.605059 0.084486 0.199147
H4    H     H_    0.878444 0.381232 0.910325 0.198932
C31   C     C_R   0.974444 0.449291 0.648261 0.041864
C32   C     C_R   0.025556 0.535253 0.345875 0.041913
C33   C     C_R   0.974448 0.535232 0.345858 0.041941
C34   C     C_R   0.025548 0.449255 0.648259 0.041853
C35   C     C_R   0.949253 0.492500 0.497148 0.082576
C36   C     C_R   0.050746 0.492450 0.497149 0.082567
C37   C     C_R   0.947296 0.407747 0.794761 -0.213846
C38   C     C_R   0.052713 0.576949 0.199437 -0.214023
C39   C     C_R   0.947299 0.576775 0.199355 -0.214030
C40   C     C_R   0.052688 0.407690 0.794765 -0.213818
H5    H     H_    0.963204 0.370284 0.913145 0.148661
H6    H     H_    0.036796 0.613849 0.080835 0.148687
H7    H     H_    0.963219 0.613451 0.080673 0.148641
H8    H     H_    0.036773 0.370317 0.913176 0.148654
C41   C     C_1   0.500001 0.065278 0.500911 -0.098565
C42   C     C_1   0.500000 0.934716 0.499060 -0.098865
N3    N     N_1   0.500000 0.500000 0.076820 -0.025900
N4    N     N_1   0.500000 0.500000 0.923180 -0.025807
I1    I     I_    0.368802 0.181491 0.634784 -0.168765
I2    I     I_    0.632525 0.816923 0.365968 -0.166261
I3    I     I_    0.367443 0.816921 0.366162 -0.166203
I4    I     I_    0.631225 0.181559 0.634867 -0.168706
Br1   Br    Br    0.245599 0.185883 0.576507 -0.306041
Br2   Br    Br    0.755897 0.806286 0.419977 -0.307326
Br3   Br    Br    0.244074 0.806179 0.420351 -0.307344
Br4   Br    Br    0.754436 0.186103 0.576904 -0.306171

loop_
_geom_bond_atom_site_label_1
_geom_bond_atom_site_label_2
_geom_bond_distance
_ccdc_geom_bond_type
C38   H6    1.074987 S    
C19   C23   1.406222 A    
O3    C2    1.273077 A    
C12   Br2   1.927294 S    
C33   C39   1.416594 A    
C34   C40   1.416523 A    
C11   C17   1.409989 A    
O5    C3    1.280910 A    
C7    N1    1.369985 A    
C2    C42   1.412396 S    
O1    C1    1.278579 A    
C19   C21   1.406162 A    
C22   C26   1.393697 A    
C9    C13   1.404490 A    
C7    C23   1.403769 A    
C8    C24   1.403629 A    
C5    C21   1.403637 A    
C20   C24   1.406142 A    
O7    Cu1   1.952088 S    
C27   C38   1.388295 A    
C10   C18   1.410006 A    
N1    C17   1.442496 S    
C10   Br4   1.927390 S    
Cu2   N3    1.980120 S    
C31   C37   1.416506 A    
O3    Cu1   1.940147 S    
C6    O10   1.349870 S    
C5    N1    1.369982 A    
C12   C18   1.410229 A    
C6    N2    1.369971 A    
Cu1   Cu2   2.635174 S    
O4    Cu2   1.940148 S    
O2    C2    1.278518 A    
C33   C35   1.421821 A    
C23   C27   1.393734 A    
C34   C36   1.421812 A    
C11   C15   1.404284 A    
N3    N4    1.197269 T    
C12   C16   1.404463 A    
C4    C30   1.463646 S    
O8    Cu2   1.952090 S    
C27   H3    1.083211 S    
C16   I2    2.136897 S    
C7    O11   1.349899 S    
C13   C29   1.407075 A    
C9    Br3   1.927249 S    
C5    O9    1.349877 S    
C15   I1    2.136707 S    
O5    Cu1   1.952105 S    
C28   C37   1.388263 A    
O6    C4    1.280887 A    
C25   H1    1.083145 S    
C26   H2    1.083193 S    
C32   C38   1.416616 A    
C1    C41   1.412447 S    
C10   C14   1.404230 A    
C8    N2    1.369983 A    
C3    C29   1.463651 S    
O1    Cu1   1.945667 S    
C32   C33   1.422636 A    
C28   H4    1.083117 S    
O6    Cu2   1.952102 S    
C19   C36   1.422734 A    
C8    O12   1.349860 S    
C16   C30   1.407124 A    
C14   C30   1.407273 A    
C25   C40   1.388244 A    
O4    C1    1.273024 A    
C26   C39   1.388360 A    
C14   I4    2.136796 S    
C37   H5    1.075000 S    
C39   H7    1.074929 S    
C40   H8    1.074990 S    
C31   C34   1.422525 A    
C20   C22   1.406211 A    
C20   C35   1.422722 A    
C31   C35   1.421806 A    
C21   C25   1.393687 A    
O2    Cu2   1.945666 S    
O7    C4    1.280912 A    
N2    C18   1.442489 S    
O8    C3    1.280888 A    
C24   C28   1.393653 A    
C41   C42   1.192351 T    
C15   C29   1.407241 A    
C9    C17   1.410251 A    
C11   Br1   1.927323 S    
C32   C36   1.421836 A    
C6    C22   1.403794 A    
C13   I3    2.136845 S    
Cu1   N4    1.980120 S    
