data_mof_unit_26361.cif
_audit_creation_date              2012-12-10T20:30:15-0500
_audit_creation_method            fapswitch 2.2
_symmetry_space_group_name_H-M    P1
_symmetry_Int_Tables_number       1
_space_group_crystal_system       triclinic
_cell_length_a                    9.858941
_cell_length_b                    10.767601
_cell_length_c                    13.135671
_cell_angle_alpha                 89.391945
_cell_angle_beta                  71.504943
_cell_angle_gamma                 89.74174
_cell_volume                      1322.34820876

loop_
_atom_site_label
_atom_site_type_symbol
_atom_type_description
_atom_site_fract_x
_atom_site_fract_y
_atom_site_fract_z
_atom_type_partial_charge
C1    C     C_R   0.501184 0.739908 0.497366 1.005904
C2    C     C_R   0.443721 0.413202 0.976873 0.054184
C3    C     C_R   0.485521 0.405550 0.864246 -0.014167
C4    C     C_R   0.551323 0.434684 0.025008 0.081460
C5    C     C_R   0.697292 0.433896 0.961464 0.043876
C6    C     C_R   0.735178 0.394980 0.855649 -0.229141
C7    C     C_R   0.629492 0.373473 0.809023 0.374380
C8    C     C_R   0.517652 0.463385 0.133074 -0.211025
C9    C     C_R   0.767675 0.499806 0.113199 0.380432
C10   C     C_R   0.381667 0.431769 0.812753 -0.101750
C11   C     C_R   0.376994 0.937230 0.507250 -0.149045
C12   C     C_R   0.423836 0.478864 0.701296 0.905954
C13   C     C_R   0.502765 0.871979 0.497503 -0.253021
C14   C     C_R   0.628787 0.935942 0.492894 0.540721
C15   C     C_R   0.628831 0.063517 0.494058 0.609377
C16   C     C_R   0.503329 0.128525 0.498390 -0.249630
C17   C     C_R   0.377946 0.064434 0.506473 -0.147090
C18   C     C_3   0.281871 0.073604 0.438164 0.234823
C19   C     C_3   0.281324 0.932551 0.438561 0.559033
C20   C     C_R   0.890880 0.534226 0.589499 0.176483
C21   C     C_R   0.963621 0.453060 0.416190 0.015751
C22   C     C_R   0.107609 0.453169 0.416102 -0.085859
C23   C     C_R   0.501568 0.260294 0.497717 0.987910
C24   C     C_R   0.033378 0.534178 0.589692 0.143646
C25   C     C_3   0.014363 0.657464 0.643322 0.190558
C26   C     C_3   0.859754 0.656059 0.644524 -0.498718
C27   C     C_R   0.578301 0.501985 0.295737 0.942596
C28   C     C_R   0.803504 0.468315 0.005299 -0.164147
C29   C     C_R   0.623986 0.490815 0.178883 -0.130767
C30   C     C_R   0.236475 0.419576 0.871708 -0.141800
C31   C     C_R   0.195450 0.396542 0.981639 -0.071723
C32   C     C_R   0.296597 0.400283 0.035240 -0.081530
H1    H     H_    0.176110 0.114753 0.482087 0.109256
H2    H     H_    0.174536 0.892330 0.480000 0.047115
H3    H     H_    0.938357 0.416570 0.348025 0.183145
H4    H     H_    0.190576 0.416921 0.347652 0.169316
H5    H     H_    0.080093 0.731376 0.591848 0.137893
H6    H     H_    0.779869 0.647158 0.725884 0.237237
H7    H     H_    0.846252 0.377267 0.810419 0.185511
H8    H     H_    0.835725 0.729769 0.593339 0.260458
H9    H     H_    0.913972 0.472614 0.955061 0.185606
H10   H     H_    0.407641 0.466228 0.182912 0.175538
H11   H     H_    0.155110 0.427358 0.832857 0.187653
H12   H     H_    0.257256 0.388672 0.121311 0.146998
H13   H     H_    0.084344 0.380839 0.026346 0.175984
N1    N     N_R   0.856940 0.500860 0.500710 -0.088615
N2    N     N_R   0.142580 0.500820 0.500710 -0.132192
O1    O     O_R   0.385310 0.683210 0.499990 -0.608697
O2    O     O_R   0.614650 0.683240 0.500000 -0.566570
O3    O     O_R   0.328390 0.499940 0.653610 -0.597880
O4    O     O_R   0.557730 0.499980 0.653620 -0.607420
O5    O     O_R   0.385350 0.316760 0.500000 -0.620971
O6    O     O_R   0.614690 0.316790 0.500010 -0.532142
O7    O     O_R   0.442270 0.500020 0.346380 -0.623815
O8    O     O_R   0.671610 0.500060 0.346390 -0.583725
Zn1   Zn    Zn3+2 0.346870 0.499980 0.499990 1.009043
Zn2   Zn    Zn3+2 0.653130 0.500020 0.500010 1.073232
Cl1   Cl    Cl    0.904319 0.556281 0.160017 -0.591725
F1    F     F_    0.754369 0.121960 0.484039 -0.577969
Cl2   Cl    Cl    0.365503 0.142209 0.308365 -0.521221
F2    F     F_    0.349156 0.880689 0.339137 -0.576966
Cl3   Cl    Cl    0.030813 0.649017 0.774381 -0.600028
Cl4   Cl    Cl    0.675591 0.273847 0.698453 -0.551338
F3    F     F_    0.754831 0.876803 0.480352 -0.620386

loop_
_geom_bond_atom_site_label_1
_geom_bond_atom_site_label_2
_ccdc_geom_bond_type
C2    C4    A    
C26   H8    S    
C1    O1    A    
C6    C7    A    
C21   H3    S    
C27   C29   S    
C5    C28   A    
C22   H4    S    
C10   C30   A    
C27   O8    A    
C12   O3    A    
C31   C32   A    
C14   C15   A    
C9    C29   A    
C4    C8    A    
C14   F3    S    
C17   C18   S    
C32   H12   S    
C27   O7    A    
O3    Zn1   S    
C3    C10   A    
C13   C14   A    
C11   C13   A    
C7    Cl4   S    
C23   O5    A    
C30   C31   A    
C10   C12   S    
C19   F2    S    
O4    Zn2   S    
C8    C29   A    
C18   Cl2   S    
N2    Zn1   S    
C8    H10   S    
C23   O6    A    
C16   C23   S    
C2    C3    A    
C25   Cl3   S    
O8    Zn2   S    
N1    Zn2   S    
C11   C19   S    
C5    C6    A    
C18   H1    S    
O7    Zn1   S    
C30   H11   S    
C1    C13   S    
C15   C16   A    
C21   N1    A    
C16   C17   A    
C20   C24   A    
C28   H9    S    
C12   O4    A    
O2    Zn2   S    
C24   C25   S    
C2    C32   A    
C9    Cl1   S    
C31   H13   S    
O1    Zn1   S    
C18   C19   S    
O6    Zn2   S    
C6    H7    S    
C26   H6    S    
C3    C7    A    
C25   H5    S    
C25   C26   S    
C21   C22   A    
C24   N2    A    
C15   F1    S    
C11   C17   A    
C22   N2    A    
C20   N1    A    
O5    Zn1   S    
C9    C28   A    
C4    C5    A    
C20   C26   S    
C19   H2    S    
C1    O2    A    
