data_mof_unit_41793.cif
_audit_creation_date              2012-12-10T19:11:29-0500
_audit_creation_method            fapswitch 2.2
_symmetry_space_group_name_H-M    P1
_symmetry_Int_Tables_number       1
_space_group_crystal_system       triclinic
_cell_length_a                    10.780188
_cell_length_b                    9.704942
_cell_length_c                    10.495386
_cell_angle_alpha                 90.308196
_cell_angle_beta                  88.75286
_cell_angle_gamma                 91.297917
_cell_volume                      1097.48394496

loop_
_atom_site_label
_atom_site_type_symbol
_atom_type_description
_atom_site_fract_x
_atom_site_fract_y
_atom_site_fract_z
_atom_type_partial_charge
C1    C     C_R   0.257869 0.498499 0.506650 1.006533
C2    C     C_3   0.508795 0.498984 0.122603 -0.019223
C3    C     C_3   0.068793 0.582009 0.626917 0.283140
C4    C     C_3   0.065773 0.344151 0.507702 0.178353
C5    C     C_3   0.926444 0.561037 0.633297 0.111714
C6    C     C_3   0.926619 0.350479 0.478959 0.202432
C7    C     C_3   0.080444 0.573710 0.389537 -0.548490
C8    C     C_3   0.121848 0.496238 0.512322 -0.241304
C9    C     C_3   0.879906 0.503026 0.499700 -0.238738
C10   C     C_3   0.938450 0.591026 0.390527 -0.334782
C11   C     C_3   0.383784 0.077404 0.444244 -0.224281
C12   C     C_3   0.380792 0.915267 0.451232 -0.232369
C13   C     C_3   0.603417 0.083329 0.418113 -0.169487
C14   C     C_3   0.599332 0.920873 0.412469 -0.235566
C15   C     C_3   0.514313 0.081974 0.627261 -0.249689
C16   C     C_3   0.517765 0.920204 0.626698 -0.218917
C17   C     C_R   0.504600 0.499734 0.257294 0.905064
C18   C     C_R   0.743043 0.501425 0.497843 0.964990
C19   C     C_R   0.504084 0.500224 0.742788 1.014399
C20   C     C_3   0.393274 0.524481 0.045827 -0.138151
C21   C     C_3   0.544202 0.375286 0.040014 -0.174578
C22   C     C_3   0.428450 0.400671 0.960779 -0.121604
C23   C     C_3   0.506967 0.500012 0.878067 0.003805
C24   C     C_3   0.472208 0.623673 0.961159 -0.084584
C25   C     C_3   0.622996 0.474208 0.954689 -0.135132
C26   C     C_3   0.588148 0.597887 0.040595 -0.150606
H1    H     H_    0.364885 0.317782 0.926161 0.189089
H2    H     H_    0.916580 0.701259 0.403222 0.233227
H3    H     H_    0.900797 0.560686 0.296531 0.238107
H4    H     H_    0.374509 0.110275 0.343531 0.144565
H5    H     H_    0.360652 0.870988 0.355707 0.155410
H6    H     H_    0.301727 0.117159 0.495584 0.233503
H7    H     H_    0.302943 0.881038 0.515769 0.191251
H8    H     H_    0.600265 0.125359 0.319958 0.187437
H9    H     H_    0.584667 0.886309 0.312555 0.146642
H10   H     H_    0.600988 0.124864 0.669232 0.169008
H11   H     H_    0.607998 0.887496 0.663629 0.234360
H12   H     H_    0.437648 0.115801 0.690930 0.190687
H13   H     H_    0.444761 0.878508 0.693381 0.171082
H14   H     H_    0.692963 0.118336 0.458637 0.222008
H15   H     H_    0.690480 0.880849 0.438876 0.221684
H16   H     H_    0.299887 0.544734 0.087609 0.146664
H17   H     H_    0.573622 0.274235 0.076582 0.179049
H18   H     H_    0.442962 0.724976 0.925057 0.169482
H19   H     H_    0.716289 0.453600 0.912833 0.186430
H20   H     H_    0.653280 0.677737 0.078151 0.153384
H21   H     H_    0.088435 0.692084 0.602412 0.172184
H22   H     H_    0.113968 0.290685 0.427553 0.177420
H23   H     H_    0.900730 0.481653 0.704985 0.166052
H24   H     H_    0.874456 0.282712 0.547425 0.152058
H25   H     H_    0.124744 0.678317 0.382803 0.207056
H26   H     H_    0.111965 0.518441 0.302430 0.246768
N1    N     N_3   0.499750 0.138610 0.497240 -0.070318
N2    N     N_3   0.499750 0.861390 0.497240 -0.063854
O1    O     O_R   0.314910 0.616040 0.499970 -0.649413
O2    O     O_R   0.314910 0.383960 0.499970 -0.587133
O3    O     O_R   0.500080 0.616020 0.313900 -0.654573
O4    O     O_R   0.500080 0.383980 0.313900 -0.618812
O5    O     O_R   0.685320 0.616040 0.499930 -0.572651
O6    O     O_R   0.685320 0.383960 0.499930 -0.627561
O7    O     O_R   0.500150 0.616060 0.686000 -0.592651
O8    O     O_R   0.500150 0.383940 0.686000 -0.632317
Zn1   Zn    Zn3+2 0.500150 0.654960 0.499940 0.974928
Zn2   Zn    Zn3+2 0.500150 0.345040 0.499940 0.980568
S1    S     S_3+6 0.139617 0.566819 0.781059 0.046742
O9    O     O_2   0.241405 0.465663 0.776397 -0.307636
O10   O     O_2   0.194334 0.704977 0.817502 -0.308978
O11   O     O_3   0.035008 0.517706 0.894219 -0.528983
H27   H     H_    0.081827 0.516898 0.974365 0.377549
S2    S     S_3+6 0.085454 0.229377 0.642680 0.034743
O12   O     O_2   0.003943 0.269514 0.753963 -0.275375
O13   O     O_2   0.046147 0.086970 0.600531 -0.250878
O14   O     O_3   0.231947 0.221359 0.691494 -0.537767
H28   H     H_    0.227444 0.160415 0.766957 0.373976
S3    S     S_3+6 0.858752 0.719129 0.694499 0.030679
O15   O     O_2   0.851523 0.825716 0.592171 -0.282018
O16   O     O_2   0.731294 0.688433 0.748107 -0.381897
O17   O     O_3   0.943993 0.788114 0.812162 -0.435038
H29   H     H_    0.904085 0.754903 0.892531 0.380508
S4    S     S_3+6 0.897619 0.274265 0.321928 -0.023305
O18   O     O_2   0.896387 0.120074 0.334777 -0.296674
O19   O     O_2   0.775567 0.317728 0.270705 -0.345114
O20   O     O_3   0.009736 0.318390 0.214953 -0.601733
H30   H     H_    0.984691 0.273261 0.134336 0.407453

loop_
_geom_bond_atom_site_label_1
_geom_bond_atom_site_label_2
_ccdc_geom_bond_type
C7    C10   S    
C1    C8    S    
O14   H28   S    
C4    C8    S    
C6    C9    S    
C4    S2    S    
C7    C8    S    
C15   N1    S    
C1    O2    A    
C24   C26   S    
C7    H26   S    
N1    Zn2   S    
N2    Zn1   S    
C19   O8    A    
C15   C16   S    
O7    Zn1   S    
C13   H14   S    
O8    Zn2   S    
C21   H17   S    
C20   C24   S    
C11   H4    S    
O11   H27   S    
S1    O10   D    
O1    Zn1   S    
C23   C24   S    
O2    Zn2   S    
S2    O12   D    
C9    C10   S    
C11   N1    S    
C16   H11   S    
C13   C14   S    
C2    C17   S    
C5    H23   S    
C3    S1    S    
S2    O14   S    
S4    O20   S    
O3    Zn1   S    
C13   N1    S    
O4    Zn2   S    
C2    C20   S    
S4    O19   D    
C3    C8    S    
C14   H9    S    
O17   H29   S    
C25   C26   S    
C5    S3    S    
C19   C23   S    
S3    O15   D    
C15   H12   S    
C5    C9    S    
C18   O5    A    
C6    S4    S    
O20   H30   S    
S1    O11   S    
C2    C21   S    
C2    C26   S    
C6    H24   S    
S3    O16   D    
C14   H15   S    
C18   O6    A    
C14   N2    S    
C20   C22   S    
C11   H6    S    
C22   H1    S    
C12   H5    S    
C24   H18   S    
C4    C6    S    
C25   H19   S    
C15   H10   S    
C4    H22   S    
C10   H2    S    
C21   C25   S    
S4    O18   D    
C3    C5    S    
C20   H16   S    
C11   C12   S    
C17   O4    A    
O5    Zn1   S    
O6    Zn2   S    
C1    O1    A    
C7    H25   S    
C13   H8    S    
C10   H3    S    
C19   O7    A    
C3    H21   S    
C23   C25   S    
S3    O17   S    
C16   N2    S    
C26   H20   S    
C16   H13   S    
C9    C18   S    
S1    O9    D    
C22   C23   S    
S2    O13   D    
C12   H7    S    
C21   C22   S    
C12   N2    S    
C17   O3    A    
