data_mof_unit_37211.cif
_audit_creation_date              2012-10-26T20:09:45-0400
_audit_creation_method            fapswitch 2.2
_symmetry_space_group_name_H-M    P1
_symmetry_Int_Tables_number       1
_space_group_crystal_system       triclinic
_cell_length_a                    10.725445
_cell_length_b                    9.458606
_cell_length_c                    15.863077
_cell_angle_alpha                 89.788849
_cell_angle_beta                  89.063603
_cell_angle_gamma                 89.993416
_cell_volume                      1609.04776037

loop_
_atom_site_label
_atom_site_type_symbol
_atom_type_description
_atom_site_fract_x
_atom_site_fract_y
_atom_site_fract_z
_atom_type_partial_charge
C1    C     C_R   0.260038 0.500044 0.496839 0.551013
C2    C     C_3   0.926508 0.508643 0.587998 -0.103412
C3    C     C_3   0.072713 0.363583 0.453371 -0.243607
C4    C     C_3   0.122099 0.500338 0.495236 0.010774
C5    C     C_3   0.877945 0.500193 0.495596 -0.008154
C6    C     C_R   0.500428 0.500289 0.340320 0.540259
C7    C     C_3   0.929668 0.364048 0.452347 -0.253751
C8    C     C_3   0.626192 0.083701 0.482251 -0.134012
C9    C     C_3   0.626482 0.916425 0.483200 -0.132936
C10   C     C_3   0.462453 0.083351 0.586326 0.053026
C11   C     C_3   0.460719 0.915243 0.585934 0.056016
C12   C     C_3   0.645675 0.538203 0.949391 0.537524
C13   C     C_3   0.416243 0.083556 0.437032 -0.087617
C14   C     C_3   0.417747 0.917140 0.436136 -0.087515
C15   C     C_R   0.739732 0.500009 0.497362 0.555857
C16   C     C_R   0.499368 0.499797 0.659603 0.576533
C17   C     C_3   0.430026 0.631972 0.049922 -0.187178
C18   C     C_3   0.446161 0.366056 0.049371 -0.213029
C19   C     C_3   0.461593 0.359701 0.951552 -0.103142
C20   C     C_3   0.414634 0.620687 0.952774 -0.083750
C21   C     C_1   0.500844 0.499847 0.748940 -0.040762
C22   C     C_3   0.504825 0.503865 0.082701 -0.041025
C23   C     C_3   0.640712 0.513052 0.048101 -0.141273
C24   C     C_3   0.508614 0.507019 0.916670 0.062431
C25   C     C_2   0.877939 0.648318 0.358336 0.208722
C26   C     C_2   0.876798 0.391069 0.644203 0.215878
C27   C     C_2   0.345131 0.149404 0.624291 0.289092
C28   C     C_2   0.340647 0.850578 0.621074 0.294264
C29   C     C_2   0.541524 0.236865 0.920975 0.296140
C30   C     C_2   0.417812 0.762750 0.907957 0.233019
C31   C     C_3   0.708107 0.721215 0.851214 0.044607
C32   C     C_3   0.777577 0.862349 0.850295 -0.265048
C33   C     C_3   0.809808 0.909796 0.760405 -0.483076
C34   C     C_1   0.503720 0.502458 0.824310 -0.084662
C35   C     C_3   0.850602 0.422493 0.942178 0.033388
C36   C     C_3   0.929049 0.555807 0.957493 -0.278857
C37   C     C_3   0.054982 0.517477 0.994772 -0.496260
C38   C     C_1   0.503384 0.502559 0.175009 -0.076944
C39   C     C_1   0.501952 0.501258 0.250616 -0.028676
C40   C     C_3   0.073744 0.628476 0.443693 -0.213235
C41   C     C_3   0.070920 0.508886 0.586905 -0.249589
C42   C     C_3   0.929510 0.632630 0.446210 -0.097792
Cu1   Cu    Cu3+1 0.499860 0.642410 0.500040 0.912262
Cu2   Cu    Cu3+1 0.499860 0.357590 0.500040 0.919068
H1    H     H_    0.318729 0.580692 0.941966 0.068719
H2    H     H_    0.661951 0.876546 0.421404 0.153459
H3    H     H_    0.536109 0.113539 0.631724 0.055817
H4    H     H_    0.531989 0.882106 0.632388 0.042866
H5    H     H_    0.319444 0.121862 0.446077 0.174416
H6    H     H_    0.321504 0.875973 0.442706 0.174459
H7    H     H_    0.445197 0.122263 0.373434 0.109927
H8    H     H_    0.450010 0.881686 0.372678 0.111408
H9    H     H_    0.336142 0.635837 0.080853 0.109564
H10   H     H_    0.345044 0.364341 0.066537 0.108549
H11   H     H_    0.487573 0.272649 0.081170 0.185729
H12   H     H_    0.367117 0.339007 0.926079 0.069124
H13   H     H_    0.480037 0.730031 0.067962 0.204210
H14   H     H_    0.691019 0.599563 0.080613 0.127905
H15   H     H_    0.685886 0.413070 0.066983 0.119626
H16   H     H_    0.110725 0.621282 0.377796 0.136970
H17   H     H_    0.108715 0.419079 0.624314 0.137287
H18   H     H_    0.109183 0.729303 0.469931 0.176636
H19   H     H_    0.104706 0.607461 0.617116 0.142268
H20   H     H_    0.900778 0.729370 0.481434 0.133645
H21   H     H_    0.894298 0.610806 0.615699 0.134413
H22   H     H_    0.821171 0.566095 0.330875 0.106577
H23   H     H_    0.110239 0.354906 0.387745 0.113972
H24   H     H_    0.902575 0.281994 0.632136 0.116523
H25   H     H_    0.349104 0.198215 0.686039 0.073903
H26   H     H_    0.341353 0.798205 0.682063 0.066807
H27   H     H_    0.539787 0.207739 0.854883 0.115308
H28   H     H_    0.394211 0.768053 0.841773 0.071644
H29   H     H_    0.622080 0.737129 0.814922 0.137844
H30   H     H_    0.766785 0.641630 0.818082 0.202476
H31   H     H_    0.718202 0.944259 0.880946 0.237757
H32   H     H_    0.864846 0.852514 0.886607 0.161515
H33   H     H_    0.723529 0.923830 0.723494 0.134887
H34   H     H_    0.103877 0.268487 0.488337 0.193644
H35   H     H_    0.870720 0.830452 0.728730 0.151433
H36   H     H_    0.860021 0.012396 0.761999 0.170488
H37   H     H_    0.904024 0.356856 0.896241 0.175446
H38   H     H_    0.844598 0.354782 0.999117 0.132388
H39   H     H_    0.946385 0.611774 0.896865 0.165664
H40   H     H_    0.881073 0.627978 0.002271 0.194775
H41   H     H_    0.041724 0.461496 0.055949 0.152891
H42   H     H_    0.109083 0.615526 0.005895 0.153703
H43   H     H_    0.108890 0.448866 0.950695 0.140360
H44   H     H_    0.897675 0.356998 0.386228 0.111122
H45   H     H_    0.894487 0.267274 0.484787 0.125648
H46   H     H_    0.694640 0.121585 0.528989 0.119821
H47   H     H_    0.693746 0.879425 0.531161 0.115854
H48   H     H_    0.659863 0.122661 0.419631 0.129624
N1    N     N_3   0.500250 0.143650 0.501830 -0.241108
N2    N     N_3   0.500250 0.856350 0.501830 -0.243044
O1    O     O_R   0.317570 0.620260 0.500050 -0.487856
O2    O     O_2   0.808159 0.417886 0.704164 -0.517844
O3    O     O_2   0.244790 0.143609 0.589516 -0.518154
O4    O     O_2   0.241839 0.860556 0.584549 -0.516266
O5    O     O_2   0.608559 0.170360 0.968352 -0.499562
O6    O     O_2   0.443883 0.872121 0.944360 -0.486313
O7    O     O_3   0.678668 0.683647 0.936144 -0.563676
O8    O     O_3   0.731616 0.446088 0.905801 -0.546177
O9    O     O_R   0.317570 0.379740 0.500050 -0.484820
O10   O     O_R   0.499890 0.620310 0.379470 -0.508429
O11   O     O_R   0.499890 0.379690 0.379470 -0.515765
O12   O     O_R   0.682190 0.620260 0.500020 -0.519124
O13   O     O_R   0.682190 0.379740 0.500020 -0.508932
O14   O     O_R   0.499870 0.620210 0.620600 -0.522775
O15   O     O_R   0.499870 0.379790 0.620600 -0.500181
O16   O     O_2   0.899535 0.755151 0.317217 -0.523616

loop_
_geom_bond_atom_site_label_1
_geom_bond_atom_site_label_2
_ccdc_geom_bond_type
C19   H12   S    
C10   C27   S    
C23   H14   S    
C5    C42   S    
C16   C21   S    
C40   H16   S    
C42   H20   S    
C35   C36   S    
C41   H17   S    
C2    H21   S    
C9    H47   S    
C32   H31   S    
C35   H37   S    
C20   C30   S    
Cu2   O11   S    
C23   H15   S    
C12   C23   S    
C31   O7    S    
C15   O12   A    
C37   H41   S    
C36   C37   S    
C3    C7    S    
C38   C39   T    
C31   H29   S    
C4    C41   S    
C2    C41   S    
C7    H45   S    
C30   O6    D    
Cu1   N2    S    
C40   H18   S    
C18   C19   S    
C15   O13   A    
Cu1   O10   S    
Cu2   N1    S    
C13   H7    S    
Cu2   O9    S    
C14   H8    S    
C4    C40   S    
C8    C9    S    
Cu1   O1    S    
C8    H48   S    
C6    O10   A    
C1    O9    A    
C20   H1    S    
C27   H25   S    
Cu2   O15   S    
C35   O8    S    
C40   C42   S    
C9    H2    S    
C13   C14   S    
C11   H4    S    
C35   H38   S    
C16   O15   A    
C26   O2    D    
C28   H26   S    
C29   O5    D    
C20   C24   S    
C37   H42   S    
C5    C7    S    
C18   H10   S    
C33   H35   S    
C31   H30   S    
C21   C34   T    
C10   N1    S    
C24   C34   S    
C13   N1    S    
Cu1   O12   S    
Cu1   Cu2   S    
C12   O8    S    
C7    H44   S    
C1    O1    A    
C2    C26   S    
C18   H11   S    
C13   H5    S    
C25   O16   D    
C11   N2    S    
C2    C5    S    
C8    H46   S    
C41   H19   S    
C3    C4    S    
C19   C29   S    
C17   H9    S    
Cu2   O13   S    
C28   O4    D    
C6    C39   S    
C27   O3    D    
C18   C22   S    
C17   C20   S    
C37   H43   S    
C31   C32   S    
C3    H23   S    
C25   H22   S    
C25   C42   S    
C32   H32   S    
C30   H28   S    
C33   H36   S    
C12   C24   S    
C17   C22   S    
C1    C4    S    
C26   H24   S    
C32   C33   S    
C19   C24   S    
C12   O7    S    
C33   H33   S    
C14   H6    S    
C11   C28   S    
C36   H40   S    
C6    O11   A    
Cu1   O14   S    
C5    C15   S    
C10   C11   S    
C16   O14   A    
C8    N1    S    
C10   H3    S    
C22   C23   S    
C36   H39   S    
C3    H34   S    
C9    N2    S    
C14   N2    S    
C17   H13   S    
C29   H27   S    
C22   C38   S    
