data_mof_unit_40366.cif
_audit_creation_date              2012-12-10T22:11:07-0500
_audit_creation_method            fapswitch 2.2
_symmetry_space_group_name_H-M    P1
_symmetry_Int_Tables_number       1
_space_group_crystal_system       triclinic
_cell_length_a                    12.133361
_cell_length_b                    12.338156
_cell_length_c                    22.974635
_cell_angle_alpha                 90.545721
_cell_angle_beta                  90.656575
_cell_angle_gamma                 91.308507
_cell_volume                      3438.09129222

loop_
_atom_site_label
_atom_site_type_symbol
_atom_type_description
_atom_site_fract_x
_atom_site_fract_y
_atom_site_fract_z
_atom_type_partial_charge
C1    C     C_R   0.656806 0.998461 0.579402 0.865244
C2    C     C_R   0.343194 0.001539 0.420598 0.865244
C3    C     C_R   0.896955 0.761289 0.151478 -0.236686
C4    C     C_R   0.103045 0.238710 0.848522 -0.236686
C5    C     C_R   0.082494 0.896299 0.168777 0.136270
C6    C     C_R   0.917506 0.103701 0.831223 0.136270
C7    C     C_R   0.082507 0.814793 0.126963 -0.248704
C8    C     C_R   0.917493 0.185207 0.873037 -0.248704
C9    C     C_R   0.902788 0.124075 0.172871 -0.181513
C10   C     C_R   0.097212 0.875925 0.827129 -0.181513
C11   C     C_R   0.903056 0.205754 0.132371 -0.201895
C12   C     C_R   0.096944 0.794246 0.867629 -0.201895
C13   C     C_R   0.153560 0.911114 0.299522 -0.166431
C14   C     C_R   0.846440 0.088886 0.700478 -0.166432
C15   C     C_R   0.235331 0.909696 0.342072 -0.202804
C16   C     C_R   0.764669 0.090304 0.657928 -0.202804
C17   C     C_R   0.835737 0.099592 0.301844 -0.135246
C18   C     C_R   0.164263 0.900408 0.698156 -0.135247
C19   C     C_R   0.755537 0.097429 0.344058 -0.189941
C20   C     C_R   0.244463 0.902571 0.655942 -0.189941
C21   C     C_3   0.993977 0.007807 0.248496 -0.101460
C22   C     C_3   0.006023 0.992193 0.751504 -0.101460
C23   C     C_R   0.654996 0.002321 0.421151 0.868160
C24   C     C_R   0.345004 0.997679 0.578849 0.868160
C25   C     C_R   0.094564 0.006410 0.289299 0.161252
C26   C     C_R   0.905436 0.993590 0.710701 0.161253
C27   C     C_R   0.257808 0.002353 0.376085 -0.022527
C28   C     C_R   0.742192 0.997646 0.623915 -0.022527
C29   C     C_R   0.900242 0.007782 0.291863 0.114643
C30   C     C_R   0.099758 0.992218 0.708137 0.114641
C31   C     C_R   0.740163 0.004951 0.377921 -0.039620
C32   C     C_R   0.259837 0.995049 0.622079 -0.039620
C33   C     C_R   0.994919 0.107670 0.209208 0.138924
C34   C     C_R   0.005081 0.892330 0.790792 0.138924
C35   C     C_R   0.997027 0.271495 0.125914 -0.017434
C36   C     C_R   0.002973 0.728505 0.874086 -0.017434
C37   C     C_R   0.988575 0.911042 0.204965 0.016172
C38   C     C_R   0.011425 0.088958 0.795035 0.016172
C39   C     C_R   0.990638 0.747683 0.118438 -0.069642
C40   C     C_R   0.009362 0.252317 0.881562 -0.069643
C41   C     C_R   0.992980 0.661851 0.075244 0.891763
C42   C     C_R   0.007020 0.338149 0.924756 0.891763
C43   C     C_R   0.998659 0.353055 0.081268 0.867457
C44   C     C_R   0.001341 0.646945 0.918732 0.867457
C45   C     C_R   0.115288 0.097229 0.325944 -0.186672
C46   C     C_R   0.884712 0.902770 0.674056 -0.186672
C47   C     C_R   0.197377 0.095993 0.367930 -0.196223
C48   C     C_R   0.802623 0.904007 0.632070 -0.196223
C49   C     C_R   0.888329 0.918136 0.329229 -0.122985
C50   C     C_R   0.111671 0.081864 0.670771 -0.122984
C51   C     C_R   0.807518 0.915841 0.370977 -0.154365
C52   C     C_R   0.192481 0.084158 0.629023 -0.154364
C53   C     C_R   0.089209 0.175625 0.202191 -0.159322
C54   C     C_R   0.910791 0.824375 0.797809 -0.159321
C55   C     C_R   0.089848 0.256810 0.161090 -0.212412
C56   C     C_R   0.910152 0.743190 0.838910 -0.212412
C57   C     C_R   0.892511 0.842251 0.193850 -0.043460
C58   C     C_R   0.107489 0.157749 0.806150 -0.043459
H1    H     H_    0.211676 0.167581 0.394877 0.159092
H2    H     H_    0.788324 0.832419 0.605123 0.159092
H3    H     H_    0.939731 0.848081 0.324552 0.135686
H4    H     H_    0.060269 0.151919 0.675448 0.135687
H5    H     H_    0.165496 0.163660 0.225608 0.161900
H6    H     H_    0.834504 0.836340 0.774392 0.161900
H7    H     H_    0.830655 0.072407 0.175001 0.209449
H8    H     H_    0.169345 0.927593 0.824999 0.209448
H9    H     H_    0.134845 0.836329 0.276207 0.140729
H10   H     H_    0.865155 0.163670 0.723792 0.140729
H11   H     H_    0.847440 0.174252 0.278340 0.141976
H12   H     H_    0.152560 0.825748 0.721660 0.141976
H13   H     H_    0.798300 0.844799 0.398000 0.158148
H14   H     H_    0.201699 0.155200 0.602000 0.158148
H15   H     H_    0.163706 0.306736 0.156152 0.159267
H16   H     H_    0.836294 0.693264 0.843848 0.159267
H17   H     H_    0.825519 0.708242 0.143837 0.178186
H18   H     H_    0.174481 0.291758 0.856163 0.178185
H19   H     H_    0.155078 0.805168 0.100462 0.161010
H20   H     H_    0.844922 0.194832 0.899538 0.161010
H21   H     H_    0.830792 0.215052 0.104888 0.165305
H22   H     H_    0.169208 0.784949 0.895111 0.165305
H23   H     H_    0.280225 0.835838 0.348653 0.160822
H24   H     H_    0.719775 0.164162 0.651347 0.160822
H25   H     H_    0.705379 0.168106 0.350084 0.158191
H26   H     H_    0.294621 0.831894 0.649916 0.158191
H27   H     H_    0.066501 0.169316 0.322183 0.139627
H28   H     H_    0.933499 0.830684 0.677817 0.139628
O1    O     O_R   0.621380 0.090460 0.561410 -0.624223
O2    O     O_R   0.378620 0.909540 0.438590 -0.624222
O3    O     O_R   0.617150 0.909540 0.438590 -0.622332
O4    O     O_R   0.382850 0.090460 0.561410 -0.622332
O5    O     O_R   0.619720 0.093230 0.440890 -0.627217
O6    O     O_R   0.380280 0.906770 0.559110 -0.627217
O7    O     O_R   0.618800 0.906770 0.559110 -0.630276
O8    O     O_R   0.381200 0.093230 0.440890 -0.630276
O9    O     O_R   0.087590 0.627480 0.058790 -0.630150
O10   O     O_R   0.912410 0.372520 0.941210 -0.630150
O11   O     O_R   0.905660 0.383870 0.059980 -0.629070
O12   O     O_R   0.094340 0.616130 0.940020 -0.629070
O13   O     O_R   0.092570 0.390420 0.063230 -0.625618
O14   O     O_R   0.907430 0.609580 0.936770 -0.625618
O15   O     O_R   0.900680 0.620930 0.055550 -0.624062
O16   O     O_R   0.099320 0.379070 0.944450 -0.624062
Zn1   Zn    Zn3+2 0.501730 0.123520 0.501540 0.957712
Zn2   Zn    Zn3+2 0.498270 0.876480 0.498460 0.957712
Zn3   Zn    Zn3+2 0.125690 0.504390 0.002180 0.955821
Zn4   Zn    Zn3+2 0.874310 0.495610 0.997820 0.955821
C59   C     C_2   0.783716 0.847366 0.222558 0.896317
O17   O     O_2   0.749717 0.768920 0.249780 -0.630886
O18   O     O_R   0.716682 0.936859 0.215530 -0.831456
H29   H     H_    0.644466 0.929044 0.237027 0.348288
C60   C     C_2   0.216284 0.152634 0.777442 0.896319
O19   O     O_2   0.250282 0.231079 0.750219 -0.630886
O20   O     O_R   0.283318 0.063142 0.784471 -0.831456
H30   H     H_    0.355534 0.070957 0.762974 0.348288
N1    N     N_3   0.179371 0.964669 0.174040 -0.462842
H31   H     H_    0.192672 0.002044 0.133976 0.194608
H32   H     H_    0.246905 0.915968 0.182784 0.185452
N2    N     N_3   0.820629 0.035331 0.825960 -0.462842
H33   H     H_    0.807327 0.997956 0.866024 0.194608
H34   H     H_    0.753095 0.084032 0.817216 0.185452

loop_
_geom_bond_atom_site_label_1
_geom_bond_atom_site_label_2
_ccdc_geom_bond_type
C16   C28   A    
C9    C33   A    
C1    O1    A    
C5    C37   A    
C53   H5    S    
C17   C29   A    
C60   O19   D    
C19   C31   A    
C39   C41   S    
C29   C49   A    
C17   H11   S    
O12   Zn3   S    
C42   O10   A    
C43   O13   A    
C20   C32   A    
C21   C33   S    
N1    H31   S    
C22   C38   S    
C24   O6    A    
O16   Zn3   S    
C45   C47   A    
N2    H33   S    
C32   C52   A    
C21   C25   S    
O9    Zn3   S    
C38   C58   A    
C44   O12   A    
C11   C35   A    
C60   O20   S    
C4    C40   A    
N1    H32   S    
C1    C28   S    
C50   C52   A    
C59   O17   D    
C6    C38   A    
C2    O2    A    
C2    C27   S    
C18   C30   A    
C12   C36   A    
C3    H17   S    
C18   C20   A    
C7    H19   S    
C10   H8    S    
C30   C50   A    
C3    C39   A    
C5    N1    S    
C8    H20   S    
C59   O18   S    
C13   C25   A    
C11   H21   S    
C51   H13   S    
C19   H25   S    
C42   O16   A    
O7    Zn2   S    
C16   H24   S    
O2    Zn2   S    
C48   H2    S    
C46   C48   A    
C53   C55   A    
C33   C53   A    
C22   C34   S    
C54   C56   A    
C56   H16   S    
C35   C55   A    
C58   C60   S    
C2    O8    A    
C49   H3    S    
C15   H23   S    
C31   C51   A    
C5    C7    A    
C26   C46   A    
C6    C8    A    
C49   C51   A    
C21   C29   S    
C23   C31   S    
C45   H27   S    
C24   C32   S    
C52   H14   S    
C15   C27   A    
C9    H7    S    
C23   O3    A    
C10   C34   A    
C14   C26   A    
C9    C11   A    
C10   C12   A    
O1    Zn1   S    
O11   Zn4   S    
C3    C57   A    
C57   C59   S    
O8    Zn1   S    
C34   C54   A    
C13   C15   A    
O3    Zn2   S    
C50   H4    S    
C14   C16   A    
C36   C44   S    
C25   C45   A    
C35   C43   S    
O20   H30   S    
C13   H9    S    
C27   C47   A    
O15   Zn4   S    
O10   Zn4   S    
C28   C48   A    
C7    C39   A    
C22   C30   S    
C43   O11   A    
O5    Zn1   S    
C24   O4    A    
O14   Zn4   S    
C18   H12   S    
C20   H26   S    
O18   H29   S    
C44   O14   A    
C41   O9    A    
C54   H6    S    
C12   H22   S    
C40   C42   S    
C36   C56   A    
C17   C19   A    
C41   O15   A    
C23   O5    A    
O13   Zn3   S    
N2    H34   S    
O4    Zn1   S    
C4    H18   S    
O6    Zn2   S    
C47   H1    S    
C55   H15   S    
C21   C37   S    
C1    O7    A    
C22   C26   S    
C4    C58   A    
C14   H10   S    
C8    C40   A    
C6    N2    S    
C37   C57   A    
C46   H28   S    
