data_mof_unit_12539.cif
_audit_creation_date              2012-12-10T17:26:16-0500
_audit_creation_method            fapswitch 2.2
_symmetry_space_group_name_H-M    P1
_symmetry_Int_Tables_number       1
_space_group_crystal_system       triclinic
_cell_length_a                    10.140284
_cell_length_b                    10.762601
_cell_length_c                    27.748622
_cell_angle_alpha                 89.734563
_cell_angle_beta                  81.088557
_cell_angle_gamma                 95.046376
_cell_volume                      2979.70352546

loop_
_atom_site_label
_atom_site_type_symbol
_atom_type_description
_atom_site_fract_x
_atom_site_fract_y
_atom_site_fract_z
_atom_type_partial_charge
C1    C     C_R   0.555920 0.732841 0.498440 0.951891
C2    C     C_R   0.483835 0.607882 0.128137 -0.021000
C3    C     C_R   0.501935 0.500652 0.646515 -0.036652
C4    C     C_R   0.498717 0.498411 0.353496 -0.041790
C5    C     C_R   0.491165 0.611834 0.025872 0.046641
C6    C     C_R   0.507614 0.384510 0.974035 0.046659
C7    C     C_R   0.512388 0.384709 0.024804 0.046591
C8    C     C_R   0.499466 0.613452 0.974430 0.046665
C9    C     C_R   0.500911 0.497930 0.050600 0.070056
C10   C     C_R   0.504265 0.499325 0.948979 0.070157
C11   C     C_R   0.472189 0.720434 0.053735 -0.215498
C12   C     C_R   0.444032 0.267155 0.504897 0.950561
C13   C     C_R   0.504933 0.272903 0.947286 -0.214649
C14   C     C_R   0.469116 0.718305 0.103836 -0.137896
C15   C     C_R   0.504553 0.274620 0.897365 -0.136700
C16   C     C_R   0.500447 0.500107 0.593938 0.870362
C17   C     C_R   0.499616 0.499714 0.406077 0.878055
C18   C     C_R   0.504173 0.725832 0.947274 -0.214733
C19   C     C_R   0.529248 0.275333 0.050851 -0.215414
C20   C     C_2   0.587388 0.864901 0.503308 -0.374831
C21   C     C_2   0.412130 0.134965 0.513051 -0.366819
C22   C     C_2   0.487641 0.933244 0.520368 -0.135528
C23   C     C_R   0.505544 0.500013 0.897842 -0.051739
C24   C     C_2   0.510958 0.066108 0.519549 -0.146185
C25   C     C_2   0.924039 0.498303 0.507667 -0.147312
C26   C     C_2   0.070270 0.479039 0.501251 -0.142779
C27   C     C_R   0.506755 0.611840 0.821766 0.503167
C28   C     C_R   0.511343 0.387477 0.177161 0.500374
C29   C     C_R   0.506322 0.390079 0.821819 0.504013
C30   C     C_R   0.483175 0.605306 0.178568 0.502396
C31   C     C_R   0.386638 0.519629 0.728890 -0.102522
C32   C     C_R   0.615239 0.477847 0.271406 -0.103330
C33   C     C_R   0.384768 0.518953 0.678948 -0.214761
C34   C     C_R   0.499218 0.497259 0.101761 -0.051798
C35   C     C_R   0.616156 0.478907 0.321393 -0.212653
C36   C     C_R   0.620847 0.482980 0.664744 -0.213109
C37   C     C_R   0.380430 0.516336 0.334943 -0.216463
C38   C     C_R   0.622236 0.483326 0.714718 -0.103427
C39   C     C_R   0.379840 0.515039 0.284926 -0.108339
C40   C     C_R   0.505219 0.501653 0.746702 0.323484
C41   C     C_R   0.497199 0.495988 0.253174 0.321826
C42   C     C_R   0.124329 0.670300 0.537598 0.264447
C43   C     C_R   0.136567 0.701432 0.585762 -0.163544
C44   C     C_R   0.111886 0.820661 0.602709 -0.163295
C45   C     C_R   0.506158 0.613364 0.872195 -0.021443
C46   C     C_R   0.076238 0.909843 0.571450 -0.119714
C47   C     C_R   0.065639 0.880055 0.523144 -0.177337
C48   C     C_R   0.090462 0.760993 0.506084 -0.172451
C49   C     C_R   0.893281 0.388008 0.436597 0.273818
C50   C     C_R   0.864366 0.259084 0.432654 -0.162075
C51   C     C_R   0.908870 0.199427 0.389265 -0.165365
C52   C     C_R   0.981026 0.268583 0.349463 -0.086246
C53   C     C_R   0.008655 0.397486 0.352999 -0.176252
C54   C     C_R   0.964831 0.457302 0.396410 -0.191646
C55   C     C_R   0.513028 0.385996 0.126669 -0.020539
C56   C     C_R   0.506970 0.725457 0.897183 -0.136677
C57   C     C_R   0.529065 0.276165 0.100805 -0.137949
C58   C     C_R   0.505975 0.387334 0.872232 -0.021716
H1    H     H_    0.712592 0.468796 0.640508 0.159962
H2    H     H_    0.541983 0.189875 0.119074 0.190804
H3    H     H_    0.708602 0.464690 0.334803 0.175909
H4    H     H_    0.291835 0.532461 0.665856 0.151918
H5    H     H_    0.706191 0.463500 0.246756 0.142253
H6    H     H_    0.296067 0.533503 0.753827 0.137725
H7    H     H_    0.454898 0.804093 0.123484 0.190658
H8    H     H_    0.502729 0.186635 0.878544 0.190434
H9    H     H_    0.456581 0.808763 0.038193 0.139302
H10   H     H_    0.500226 0.181693 0.963869 0.138103
H11   H     H_    0.508476 0.816603 0.963379 0.138206
H12   H     H_    0.288671 0.531549 0.358973 0.163486
H13   H     H_    0.545654 0.187353 0.033689 0.139279
H14   H     H_    0.612867 0.106868 0.519834 0.178598
H15   H     H_    0.385117 0.892360 0.530910 0.205775
H16   H     H_    0.164513 0.633175 0.610145 0.138173
H17   H     H_    0.120898 0.844060 0.640019 0.154045
H18   H     H_    0.057627 0.002211 0.584564 0.140731
H19   H     H_    0.039166 0.949476 0.498843 0.137704
H20   H     H_    0.084214 0.739381 0.468383 0.131906
H21   H     H_    0.808325 0.204986 0.463241 0.129296
H22   H     H_    0.887045 0.099697 0.386448 0.142334
H23   H     H_    0.310390 0.093758 0.512801 0.154920
H24   H     H_    0.015041 0.222399 0.315838 0.144768
H25   H     H_    0.063342 0.451093 0.322034 0.137582
H26   H     H_    0.985580 0.557332 0.398764 0.130541
H27   H     H_    0.689559 0.906369 0.492558 0.147040
H28   H     H_    0.104931 0.398256 0.481555 0.169771
H29   H     H_    0.882683 0.554099 0.537825 0.171662
H30   H     H_    0.713968 0.469524 0.728678 0.136756
H31   H     H_    0.288540 0.529000 0.270711 0.131984
H32   H     H_    0.509850 0.813952 0.878091 0.190431
N1    N     N_R   0.506492 0.501227 0.797917 -0.358599
N2    N     N_R   0.496900 0.496170 0.201827 -0.357183
N3    N     N_2   0.842700 0.448890 0.480020 -0.139643
N4    N     N_2   0.157300 0.551110 0.519980 -0.139230
O1    O     O_R   0.431060 0.692470 0.504020 -0.609679
O2    O     O_2   0.523161 0.281214 0.201561 -0.555515
O3    O     O_2   0.470239 0.711062 0.204185 -0.555320
O4    O     O_2   0.505632 0.282760 0.796822 -0.551427
O5    O     O_R   0.568940 0.307530 0.495980 -0.616187
O6    O     O_R   0.651120 0.659650 0.491200 -0.614082
O7    O     O_R   0.348880 0.340350 0.508800 -0.619196
O8    O     O_R   0.389980 0.516390 0.577660 -0.627063
O9    O     O_R   0.610020 0.483610 0.422340 -0.612765
O10   O     O_R   0.610040 0.483570 0.564830 -0.627428
O11   O     O_R   0.389960 0.516430 0.435170 -0.619923
O12   O     O_2   0.507916 0.719750 0.796637 -0.552137
Zn1   Zn    Zn3+2 0.353060 0.521910 0.508560 0.946264
Zn2   Zn    Zn3+2 0.646940 0.478090 0.491440 0.948069

loop_
_geom_bond_atom_site_label_1
_geom_bond_atom_site_label_2
_ccdc_geom_bond_type
O7    Zn1   S    
C23   C58   A    
C26   N4    D    
C23   C45   A    
C19   H13   S    
C29   N1    A    
C36   H1    S    
C50   H21   S    
C46   H18   S    
C39   C41   A    
C53   C54   A    
C19   C57   A    
C25   N3    D    
O5    Zn2   S    
O11   Zn1   S    
C30   O3    S    
C29   O4    S    
C5    C11   A    
N3    Zn2   S    
C11   C14   A    
C3    C33   A    
C49   C54   A    
C25   H29   S    
C31   C40   A    
C48   H20   S    
C51   H22   S    
C12   O5    A    
C16   O10   A    
C45   C56   A    
C11   H9    S    
C33   H4    S    
C32   C41   A    
C31   C33   A    
C27   N1    A    
O9    Zn2   S    
C26   H28   S    
C2    C34   A    
C18   H11   S    
C56   H32   S    
C4    C35   A    
C34   C55   A    
C37   H12   S    
C1    O6    A    
C54   H26   S    
C28   C55   A    
C44   C46   A    
N4    Zn1   S    
O6    Zn2   S    
C51   C52   A    
C32   C35   A    
C2    C30   A    
C30   N2    A    
C57   H2    S    
C27   O12   S    
C25   C26   S    
C15   H8    S    
C12   C21   S    
C8    C18   A    
C38   H30   S    
C44   H17   S    
C43   C44   A    
C5    C9    A    
C17   O11   A    
C47   C48   A    
C1    O1    A    
C20   H27   S    
C50   C51   A    
O8    Zn1   S    
C35   H3    S    
C42   C48   A    
C4    C37   A    
C52   H24   S    
O1    Zn1   S    
C4    C17   S    
C16   O8    A    
C20   C22   D    
C7    C19   A    
C55   C57   A    
C9    C34   A    
C15   C58   A    
C22   C24   S    
C42   C43   A    
C47   H19   S    
O10   Zn2   S    
C52   C53   A    
C24   H14   S    
C7    C9    A    
C46   C47   A    
C1    C20   S    
C42   N4    S    
C31   H6    S    
C32   H5    S    
C21   H23   S    
C6    C10   A    
C5    C8    A    
C6    C7    A    
C18   C56   A    
C10   C23   A    
C28   O2    S    
C53   H25   S    
C13   C15   A    
C17   O9    A    
C12   O7    A    
C37   C39   A    
C6    C13   A    
C38   C40   A    
C27   C45   A    
C3    C36   A    
C43   H16   S    
C36   C38   A    
C14   H7    S    
C40   N1    S    
C2    C14   A    
C28   N2    A    
C41   N2    S    
C29   C58   A    
C8    C10   A    
C49   C50   A    
C21   C24   D    
C22   H15   S    
C49   N3    S    
C39   H31   S    
C3    C16   S    
C13   H10   S    
