data_mof_unit_50800.cif
_audit_creation_date              2012-12-10T20:26:27-0500
_audit_creation_method            fapswitch 2.2
_symmetry_space_group_name_H-M    P1
_symmetry_Int_Tables_number       1
_space_group_crystal_system       triclinic
_cell_length_a                    10.779946
_cell_length_b                    10.71659
_cell_length_c                    9.934496
_cell_angle_alpha                 88.676763
_cell_angle_beta                  90.789507
_cell_angle_gamma                 91.268366
_cell_volume                      1146.98706085

loop_
_atom_site_label
_atom_site_type_symbol
_atom_type_description
_atom_site_fract_x
_atom_site_fract_y
_atom_site_fract_z
_atom_type_partial_charge
C1    C     C_R   0.508464 0.260465 0.501222 0.932876
C2    C     C_R   0.534823 0.129646 0.503700 -0.149086
C3    C     C_R   0.579337 0.069988 0.388427 -0.019138
C4    C     C_R   0.575195 0.937840 0.385689 0.404732
C5    C     C_R   0.526980 0.871578 0.498571 -0.170858
C6    C     C_R   0.511079 0.932948 0.618296 -0.113965
C7    C     C_3   0.415793 0.920282 0.728264 0.199193
C8    C     C_3   0.427305 0.064094 0.735826 0.229066
C9    C     C_R   0.393785 0.475557 0.070098 0.159397
C10   C     C_R   0.597915 0.548480 0.073241 0.175684
C11   C     C_R   0.599177 0.546535 0.929839 0.020748
C12   C     C_R   0.263273 0.494953 0.498840 0.813534
C13   C     C_R   0.392209 0.480232 0.928565 0.129580
C14   C     C_3   0.301926 0.373094 0.923428 0.140693
C15   C     C_3   0.311633 0.362566 0.077042 0.161495
C16   C     C_R   0.505206 0.739820 0.498733 0.908735
C17   C     C_R   0.737138 0.505656 0.500290 0.842599
C18   C     C_2   0.933634 0.493499 0.393052 0.392277
C19   C     C_2   0.868296 0.532199 0.497510 0.273566
C20   C     C_2   0.064851 0.521988 0.394813 0.002073
C21   C     C_2   0.132806 0.468678 0.493259 0.369634
C22   C     C_R   0.517995 0.059797 0.622017 -0.042908
H1    H     H_    0.336044 0.292986 0.869760 0.107698
H2    H     H_    0.359965 0.278293 0.116839 0.074096
N1    N     N_R   0.499170 0.499140 0.142800 -0.148344
N2    N     N_R   0.499170 0.499180 0.857150 -0.166735
O1    O     O_R   0.500020 0.316790 0.614690 -0.623156
O2    O     O_R   0.500000 0.316760 0.385350 -0.596619
O3    O     O_R   0.319080 0.500020 0.614640 -0.589073
O4    O     O_R   0.319070 0.499980 0.385300 -0.579268
O5    O     O_R   0.500000 0.683240 0.614650 -0.661860
O6    O     O_R   0.499980 0.683210 0.385310 -0.541941
O7    O     O_R   0.680930 0.500020 0.614700 -0.659623
O8    O     O_R   0.680920 0.499980 0.385360 -0.550465
Zn1   Zn    Zn3+2 0.500010 0.500020 0.653130 0.935335
Zn2   Zn    Zn3+2 0.499990 0.499980 0.346870 1.035205
O9    O     O_3   0.882132 0.416890 0.295844 -0.784922
H3    H     H_    0.947975 0.396518 0.231695 0.343595
N3    N     N_3   0.486344 0.110040 0.860172 -0.455442
H4    H     H_    0.568954 0.063450 0.880377 0.178102
H5    H     H_    0.515114 0.202675 0.843220 0.194672
N4    N     N_3   0.699252 0.605451 0.144912 -0.344776
H6    H     H_    0.706473 0.698978 0.113274 0.202021
H7    H     H_    0.780746 0.562074 0.117689 0.212403
N5    N     N_3   0.705741 0.599064 0.864715 -0.477343
H8    H     H_    0.677649 0.658646 0.786138 0.225491
H9    H     H_    0.759743 0.526303 0.832201 0.242094
O10   O     O_3   0.185545 0.412987 0.877474 -0.665383
H10   H     H_    0.130206 0.337772 0.880555 0.343032
O11   O     O_3   0.200353 0.386409 0.141588 -0.721261
H11   H     H_    0.154388 0.305267 0.146688 0.323741
O12   O     O_3   0.925445 0.604661 0.595396 -0.770416
H12   H     H_    0.860950 0.642049 0.650650 0.329662
N6    N     N_3   0.114171 0.616345 0.303906 -0.438514
H13   H     H_    0.069462 0.699661 0.322534 0.178250
H14   H     H_    0.090373 0.591239 0.205730 0.244394
O13   O     O_3   0.079167 0.381626 0.581361 -0.750148
H15   H     H_    0.146107 0.338264 0.631782 0.344605
N7    N     N_3   0.624182 0.143336 0.275659 -0.408889
H16   H     H_    0.716552 0.121307 0.258610 0.195694
H17   H     H_    0.569907 0.123033 0.190561 0.180945
O14   O     O_3   0.612535 0.871911 0.275656 -0.765766
H18   H     H_    0.646267 0.928823 0.205020 0.319261
N8    N     N_3   0.292853 0.874079 0.682013 -0.441976
H19   H     H_    0.291511 0.776603 0.681169 0.221267
H20   H     H_    0.276182 0.902868 0.582205 0.164073
N9    N     N_3   0.459589 0.853996 0.851007 -0.415866
H21   H     H_    0.556596 0.852339 0.853664 0.173474
H22   H     H_    0.429682 0.760674 0.849907 0.216345
N10   N     N_3   0.313610 0.131374 0.700918 -0.460202
H23   H     H_    0.243524 0.101165 0.766533 0.203161
H24   H     H_    0.283898 0.112979 0.602588 0.169439

loop_
_geom_bond_atom_site_label_1
_geom_bond_atom_site_label_2
_ccdc_geom_bond_type
C14   H1    S    
C2    C22   A    
C1    O2    A    
C8    C22   S    
C21   O13   S    
C6    C7    S    
C8    N3    S    
C12   O3    A    
C16   O6    A    
O3    Zn1   S    
C18   C20   S    
C17   O8    A    
C14   C15   S    
O4    Zn2   S    
O1    Zn1   S    
N8    H19   S    
C2    C3    A    
C9    C15   S    
C9    N1    A    
C7    C8    S    
N3    H5    S    
C13   C14   S    
O12   H12   S    
C16   O5    A    
C17   O7    A    
O13   H15   S    
O14   H18   S    
N4    H7    S    
C15   O11   S    
C12   C21   S    
C4    C5    A    
O6    Zn2   S    
C10   N1    A    
C15   H2    S    
C17   C19   S    
O9    H3    S    
C18   C19   D    
O8    Zn2   S    
N5    H9    S    
C5    C6    A    
O7    Zn1   S    
N6    H14   S    
C7    N8    S    
C11   N5    S    
C10   N4    S    
N4    H6    S    
C13   N2    A    
N1    Zn2   S    
C7    N9    S    
N9    H21   S    
C6    C22   A    
C4    O14   S    
N2    Zn1   S    
N7    H16   S    
N10   H23   S    
C20   C21   D    
O2    Zn2   S    
C20   N6    S    
C1    C2    S    
C10   C11   A    
N7    H17   S    
N3    H4    S    
C1    O1    A    
C14   O10   S    
C9    C13   A    
N6    H13   S    
O10   H10   S    
C5    C16   S    
O5    Zn1   S    
O11   H11   S    
C11   N2    A    
C12   O4    A    
N10   H24   S    
C8    N10   S    
C19   O12   S    
C18   O9    S    
C3    C4    A    
N8    H20   S    
N5    H8    S    
N9    H22   S    
C3    N7    S    
