data_mof_unit_45860.cif
_audit_creation_date              2012-12-10T17:51:24-0500
_audit_creation_method            fapswitch 2.2
_symmetry_space_group_name_H-M    P1
_symmetry_Int_Tables_number       1
_space_group_crystal_system       triclinic
_cell_length_a                    9.866847
_cell_length_b                    10.722561
_cell_length_c                    16.692402
_cell_angle_alpha                 91.886623
_cell_angle_beta                  85.458862
_cell_angle_gamma                 89.924575
_cell_volume                      1759.50862406

loop_
_atom_site_label
_atom_site_type_symbol
_atom_type_description
_atom_site_fract_x
_atom_site_fract_y
_atom_site_fract_z
_atom_type_partial_charge
C1    C     C_R   0.499900 0.739483 0.492983 0.870399
C2    C     C_R   0.353764 0.484701 0.786469 -0.209129
C3    C     C_R   0.442505 0.343002 0.153082 -0.160805
C4    C     C_R   0.429354 0.390115 0.231246 -0.228169
C5    C     C_R   0.648021 0.495540 0.210461 -0.009854
C6    C     C_R   0.658790 0.448807 0.131010 -0.220230
C7    C     C_R   0.554842 0.375561 0.101706 0.190790
C8    C     C_2   0.444543 0.344171 0.976853 -0.236780
C9    C     C_2   0.559080 0.347008 0.015261 -0.225271
C10   C     C_R   0.530479 0.466795 0.260649 -0.083568
C11   C     C_R   0.248584 0.884957 0.463543 -0.164421
C12   C     C_R   0.481513 0.495324 0.653055 0.838293
C13   C     C_R   0.124102 0.944274 0.483521 -0.144867
C14   C     C_R   0.120108 0.057256 0.526797 -0.159129
C15   C     C_R   0.241229 0.116301 0.542976 -0.159183
C16   C     C_R   0.368735 0.062246 0.515724 0.099017
C17   C     C_R   0.371389 0.938240 0.487445 0.099918
C18   C     C_R   0.496772 0.872716 0.486107 -0.128259
C19   C     C_R   0.618977 0.936248 0.492882 -0.234798
C20   C     C_R   0.617928 0.063202 0.503722 -0.221342
C21   C     C_R   0.494098 0.127223 0.513778 -0.128396
C22   C     C_R   0.845558 0.666624 0.604127 -0.165570
C23   C     C_R   0.498364 0.260478 0.506901 0.883805
C24   C     C_R   0.909331 0.749297 0.654815 -0.207080
C25   C     C_R   0.049509 0.748617 0.655128 -0.188296
C26   C     C_R   0.126659 0.665477 0.604604 -0.155174
C27   C     C_R   0.065560 0.581877 0.551428 0.155278
C28   C     C_R   0.920697 0.582121 0.551293 0.164907
C29   C     C_R   0.935060 0.421773 0.450691 -0.107381
C30   C     C_R   0.078487 0.421835 0.450685 -0.134736
C31   C     C_R   0.518750 0.497114 0.346583 0.856580
C32   C     C_R   0.471166 0.458461 0.736066 -0.023439
C33   C     C_R   0.573579 0.382425 0.762037 -0.206265
C34   C     C_R   0.561040 0.336241 0.838651 -0.163322
C35   C     C_R   0.447894 0.369181 0.891197 0.203103
C36   C     C_R   0.342534 0.440564 0.864108 -0.169867
H1    H     H_    0.662209 0.356335 0.722507 0.156977
H2    H     H_    0.745822 0.473836 0.091035 0.127991
H3    H     H_    0.715961 0.888039 0.490098 0.170660
H4    H     H_    0.247017 0.798842 0.428144 0.159189
H5    H     H_    0.030630 0.900935 0.467255 0.134081
H6    H     H_    0.023372 0.100763 0.546046 0.134579
H7    H     H_    0.233369 0.202816 0.578169 0.165682
H8    H     H_    0.714623 0.111018 0.503885 0.166415
H9    H     H_    0.886370 0.358099 0.410435 0.144606
H10   H     H_    0.737601 0.671669 0.608570 0.208610
H11   H     H_    0.849370 0.813696 0.694497 0.150175
H12   H     H_    0.341469 0.362640 0.269659 0.154593
H13   H     H_    0.098936 0.812557 0.694967 0.149785
H14   H     H_    0.233464 0.669644 0.609120 0.206840
H15   H     H_    0.138164 0.358076 0.410497 0.146262
H16   H     H_    0.657358 0.354109 0.981610 0.145729
H17   H     H_    0.254141 0.466099 0.903976 0.125041
H18   H     H_    0.363805 0.282037 0.132974 0.128187
H19   H     H_    0.272239 0.540471 0.766214 0.147197
H20   H     H_    0.345892 0.350030 0.010495 0.144545
H21   H     H_    0.641002 0.276844 0.856974 0.127140
N1    N     N_R   0.857140 0.501200 0.500750 -0.117463
N2    N     N_R   0.142740 0.501280 0.500770 -0.123781
O1    O     O_R   0.385310 0.683220 0.500000 -0.646728
O2    O     O_R   0.614640 0.683250 0.500010 -0.633493
O3    O     O_R   0.371780 0.500010 0.615800 -0.636292
O4    O     O_R   0.601110 0.500030 0.615800 -0.637077
O5    O     O_R   0.385360 0.316750 0.499990 -0.624662
O6    O     O_R   0.614690 0.316780 0.500000 -0.621063
O7    O     O_R   0.398890 0.499970 0.384200 -0.622460
O8    O     O_R   0.628220 0.499990 0.384200 -0.593179
Zn1   Zn    Zn3+2 0.346870 0.499980 0.499990 0.917211
Zn2   Zn    Zn3+2 0.653130 0.500020 0.500010 0.937497
C37   C     C_R   0.759895 0.573418 0.239226 0.136259
C38   C     C_R   0.733271 0.693431 0.273513 -0.112906
C39   C     C_R   0.837569 0.762904 0.305227 -0.126131
C40   C     C_R   0.969202 0.713766 0.302360 -0.111428
C41   C     C_R   0.997002 0.595382 0.267342 -0.133562
C42   C     C_R   0.892981 0.525453 0.235682 -0.162357
H22   H     H_    0.631464 0.732179 0.276796 0.099447
H23   H     H_    0.816196 0.854612 0.332366 0.122595
H24   H     H_    0.049674 0.767408 0.327209 0.115603
H25   H     H_    0.098946 0.557313 0.265370 0.133326
H26   H     H_    0.915474 0.432911 0.210070 0.119600

loop_
_geom_bond_atom_site_label_1
_geom_bond_atom_site_label_2
_ccdc_geom_bond_type
C31   O7    A    
O7    Zn1   S    
C30   H15   S    
C16   C21   A    
C40   C41   A    
C35   C36   A    
C8    H20   S    
C13   H5    S    
C31   O8    A    
C1    C18   S    
C5    C37   S    
O5    Zn1   S    
C34   C35   A    
C3    C7    A    
C2    H19   S    
C26   H14   S    
C5    C6    A    
C3    H18   S    
O2    Zn2   S    
C15   C16   A    
C2    C32   A    
C18   C19   A    
C36   H17   S    
C39   H23   S    
C10   C31   S    
C19   C20   A    
C16   C17   A    
C34   H21   S    
C40   H24   S    
C6    H2    S    
C37   C38   A    
C42   H26   S    
C14   H6    S    
C22   C28   A    
C13   C14   A    
C12   C32   S    
C9    H16   S    
C20   H8    S    
C33   C34   A    
C41   C42   A    
O4    Zn2   S    
C24   C25   A    
C1    O1    A    
C12   O4    A    
C8    C9    D    
C25   C26   A    
C33   H1    S    
C29   H9    S    
O8    Zn2   S    
C8    C35   S    
C29   C30   A    
N2    Zn1   S    
C12   O3    A    
C30   N2    A    
C17   C18   A    
C26   C27   A    
C29   N1    A    
C19   H3    S    
C23   O5    A    
C22   H10   S    
C41   H25   S    
C21   C23   S    
C22   C24   A    
C4    C10   A    
C3    C4    A    
C37   C42   A    
C4    H12   S    
C2    C36   A    
C7    C9    S    
C11   C17   A    
C24   H11   S    
C39   C40   A    
C1    O2    A    
N1    Zn2   S    
C6    C7    A    
C28   N1    A    
O3    Zn1   S    
C32   C33   A    
C23   O6    A    
C15   H7    S    
C38   C39   A    
C27   N2    A    
C11   C13   A    
C38   H22   S    
O6    Zn2   S    
C11   H4    S    
C25   H13   S    
C5    C10   A    
C20   C21   A    
O1    Zn1   S    
C27   C28   A    
C14   C15   A    
