data_mof_unit_42525.cif
_audit_creation_date              2012-10-26T19:13:09-0400
_audit_creation_method            fapswitch 2.2
_symmetry_space_group_name_H-M    P1
_symmetry_Int_Tables_number       1
_space_group_crystal_system       triclinic
_cell_length_a                    13.499624
_cell_length_b                    13.810441
_cell_length_c                    15.116948
_cell_angle_alpha                 89.697521
_cell_angle_beta                  89.627687
_cell_angle_gamma                 72.283705
_cell_volume                      2684.60706241

loop_
_atom_site_label
_atom_site_type_symbol
_atom_type_description
_atom_site_fract_x
_atom_site_fract_y
_atom_site_fract_z
_atom_type_partial_charge
C1    C     C_R   0.500467 0.499590 0.670313 0.544762
C2    C     C_R   0.815177 0.414660 0.509066 -0.034895
C3    C     C_R   0.530623 0.401490 0.904935 0.302641
C4    C     C_R   0.700719 0.445690 0.498989 0.607477
C5    C     C_R   0.526237 0.404768 0.812175 -0.109461
C6    C     C_R   0.502483 0.497887 0.766968 -0.023324
C7    C     C_R   0.480674 0.588761 0.814538 -0.140585
C8    C     C_R   0.480113 0.586684 0.906352 -0.116559
C9    C     C_R   0.503332 0.493779 0.951519 0.095040
C10   C     C_R   0.572069 0.530109 0.094765 0.205311
C11   C     C_R   0.564420 0.538413 0.186261 -0.176175
C12   C     C_R   0.966431 0.473128 0.534386 -0.055240
C13   C     C_R   0.494187 0.501340 0.233154 -0.075798
C14   C     C_R   0.423267 0.463797 0.187143 0.232994
C15   C     C_R   0.424833 0.462440 0.094432 0.275033
C16   C     C_R   0.497234 0.500904 0.329818 0.590524
C17   C     C_R   0.500506 0.494258 0.048321 0.010295
C18   C     C_R   0.427426 0.916902 0.453596 0.254227
C19   C     C_R   0.432679 0.812716 0.447325 0.472071
C20   C     C_R   0.570077 0.768616 0.551233 0.019157
C21   C     C_R   0.573592 0.869478 0.552401 -0.155613
C22   C     C_R   0.501595 0.945277 0.503531 0.037942
C23   C     C_R   0.870320 0.485682 0.491803 -0.119380
C24   C     C_R   0.554747 0.091012 0.435429 0.238814
C25   C     C_R   0.551750 0.193900 0.435377 0.081369
C26   C     C_R   0.450090 0.223846 0.566001 0.047235
C27   C     C_R   0.451789 0.121448 0.569141 -0.158589
C28   C     C_R   0.299117 0.554421 0.501847 0.595045
C29   C     C_R   0.504636 0.053205 0.503554 0.059939
C30   C     C_R   0.017185 0.714533 0.478153 -0.081789
C31   C     C_R   0.183746 0.586782 0.503881 0.014453
C32   C     C_R   0.864861 0.324053 0.555519 0.191281
C33   C     C_R   0.953682 0.318547 0.605971 0.260431
C34   C     C_R   0.022065 0.542072 0.513258 0.011314
C35   C     C_R   0.002051 0.394458 0.597983 0.267679
C36   C     C_3   0.736009 0.478097 0.035207 0.006816
C37   C     C_3   0.813224 0.464828 0.111657 -0.247536
C38   C     C_3   0.914889 0.381771 0.092165 -0.466763
C39   C     C_3   0.388408 0.791046 0.304073 0.042021
C40   C     C_3   0.311652 0.756400 0.248027 -0.242094
C41   C     C_3   0.331409 0.765634 0.149269 -0.477209
C42   C     C_3   0.191266 0.372949 0.420288 0.036351
C43   C     C_3   0.144532 0.285209 0.414251 -0.260102
C44   C     C_3   0.156885 0.240495 0.321250 -0.412147
C45   C     C_R   0.968002 0.638838 0.479482 -0.074350
C46   C     C_3   0.876210 0.160485 0.517125 0.024469
C47   C     C_3   0.858664 0.172490 0.416912 -0.283093
C48   C     C_3   0.912117 0.073425 0.368601 -0.438043
C49   C     C_3   0.930231 0.252192 0.740712 0.042784
C50   C     C_3   0.996235 0.197361 0.818229 -0.234200
C51   C     C_3   0.930700 0.202714 0.901648 -0.502291
C52   C     C_3   0.642749 0.236361 0.920495 -0.001730
C53   C     C_3   0.613241 0.146664 0.881835 -0.242308
C54   C     C_3   0.707892 0.066461 0.843685 -0.479172
C55   C     C_R   0.871240 0.653164 0.439442 0.264068
C56   C     C_R   0.831970 0.570512 0.434422 0.281837
C57   C     C_R   0.131363 0.512128 0.511312 0.278118
C58   C     C_R   0.123147 0.690283 0.495610 0.183162
Cl1   Cl    Cl    0.173700 0.793456 0.501620 -0.529194
Cl2   Cl    Cl    0.327529 0.425210 0.244477 -0.600358
Cl3   Cl    Cl    0.329361 0.424728 0.036356 -0.471241
Cl4   Cl    Cl    0.323279 0.012154 0.405411 -0.628203
Cl5   Cl    Cl    0.807514 0.767035 0.382347 -0.501591
Cl6   Cl    Cl    0.620714 0.012253 0.349060 -0.533892
Cl7   Cl    Cl    0.096342 0.396428 0.678375 -0.521969
Cl8   Cl    Cl    0.753398 0.565620 0.343109 -0.614325
Cu1   Cu    Cu3+1 0.500000 0.403570 0.500010 1.015558
Cu2   Cu    Cu3+1 0.500000 0.596430 0.499990 1.073554
H1    H     H_    0.541905 0.334833 0.775259 0.126303
H2    H     H_    0.974520 0.792408 0.461710 0.199622
H3    H     H_    0.773706 0.494152 0.973655 0.157673
H4    H     H_    0.717783 0.405599 0.023279 0.123360
H5    H     H_    0.829936 0.537719 0.123245 0.226966
H6    H     H_    0.778906 0.443665 0.172919 0.194340
H7    H     H_    0.900247 0.307374 0.084519 0.141202
H8    H     H_    0.969452 0.375889 0.148020 0.176521
H9    H     H_    0.951579 0.399902 0.030859 0.176561
H10   H     H_    0.469076 0.742784 0.289068 0.161455
H11   H     H_    0.382300 0.870178 0.284596 0.188455
H12   H     H_    0.462038 0.661475 0.780876 0.148066
H13   H     H_    0.318121 0.676227 0.264284 0.196165
H14   H     H_    0.231049 0.803867 0.263986 0.211866
H15   H     H_    0.317403 0.846623 0.130778 0.169093
H16   H     H_    0.277911 0.734989 0.110803 0.176268
H17   H     H_    0.412604 0.722062 0.131817 0.164522
H18   H     H_    0.274757 0.342946 0.401995 0.225073
H19   H     H_    0.152829 0.432268 0.370304 0.154330
H20   H     H_    0.183459 0.224912 0.462560 0.236254
H21   H     H_    0.060403 0.312516 0.430142 0.146848
H22   H     H_    0.115340 0.299165 0.272620 0.161925
H23   H     H_    0.460649 0.657621 0.942496 0.142037
H24   H     H_    0.123226 0.176504 0.319100 0.175523
H25   H     H_    0.240421 0.211722 0.302551 0.230625
H26   H     H_    0.849464 0.096186 0.540549 0.165066
H27   H     H_    0.960872 0.139176 0.531972 0.182366
H28   H     H_    0.774068 0.195417 0.403043 0.191678
H29   H     H_    0.890221 0.232712 0.391112 0.153832
H30   H     H_    0.997242 0.049704 0.380755 0.182122
H31   H     H_    0.898605 0.084661 0.296380 0.169372
H32   H     H_    0.880089 0.012321 0.391384 0.207740
H33   H     H_    0.866319 0.218533 0.729355 0.161594
H34   H     H_    0.615419 0.571838 0.220467 0.216900
H35   H     H_    0.895751 0.333923 0.759122 0.131099
H36   H     H_    0.033995 0.116294 0.800886 0.188021
H37   H     H_    0.058136 0.233076 0.831524 0.218089
H38   H     H_    0.887012 0.282864 0.917403 0.135367
H39   H     H_    0.982034 0.169213 0.958164 0.165416
H40   H     H_    0.875115 0.158862 0.892280 0.139870
H41   H     H_    0.694684 0.208445 0.977954 0.154955
H42   H     H_    0.689278 0.265628 0.871749 0.091223
H43   H     H_    0.577806 0.111440 0.934658 0.202628
H44   H     H_    0.554771 0.173617 0.828719 0.169436
H45   H     H_    0.624574 0.711766 0.591075 0.137565
H46   H     H_    0.743598 0.099687 0.789693 0.149530
H47   H     H_    0.683648 0.002833 0.816165 0.159364
H48   H     H_    0.766378 0.035934 0.896213 0.161245
H49   H     H_    0.631488 0.888446 0.592138 0.124362
H50   H     H_    0.590560 0.222197 0.383079 0.148106
H51   H     H_    0.408514 0.275525 0.616757 0.174034
H52   H     H_    0.410984 0.095944 0.621887 0.135636
N1    N     N_R   0.500000 0.741310 0.499980 -0.229167
N2    N     N_R   0.500060 0.258650 0.499980 -0.261444
O1    O     O_R   0.499990 0.418570 0.628550 -0.517175
O2    O     O_3   0.363595 0.783539 0.394497 -0.474352
O3    O     O_3   0.185617 0.409057 0.508534 -0.514207
O4    O     O_3   0.817289 0.248506 0.563130 -0.561475
O5    O     O_3   0.994045 0.238945 0.664369 -0.528718
O6    O     O_3   0.552219 0.310676 0.952038 -0.530822
O7    O     O_R   0.499990 0.581440 0.628540 -0.520611
O8    O     O_R   0.650980 0.378820 0.499990 -0.468013
O9    O     O_R   0.650980 0.541690 0.499970 -0.483462
O10   O     O_R   0.500010 0.418560 0.371460 -0.479803
O11   O     O_R   0.500010 0.581430 0.371450 -0.474600
O12   O     O_R   0.349020 0.458310 0.500030 -0.467361
O13   O     O_R   0.349020 0.621180 0.500010 -0.416456
O14   O     O_3   0.646609 0.562318 0.050669 -0.554556

loop_
_geom_bond_atom_site_label_1
_geom_bond_atom_site_label_2
_ccdc_geom_bond_type
C8    C9    A    
C55   C56   A    
C50   H36   S    
C22   C29   S    
C27   C29   A    
C28   O13   A    
C30   C45   A    
Cu1   O10   S    
C37   H6    S    
C25   H50   S    
C52   O6    S    
C7    C8    A    
C38   H8    S    
C53   C54   S    
C12   C23   A    
C26   C27   A    
C43   H21   S    
C28   O12   A    
C43   H20   S    
C31   C58   A    
Cu2   O11   S    
C10   O14   S    
C1    O7    A    
C57   O3    S    
C20   H45   S    
C35   Cl7   S    
C10   C17   A    
C41   H15   S    
C30   C58   A    
C33   O5    S    
C2    C32   A    
C18   C19   A    
C32   O4    S    
C24   C29   A    
C5    H1    S    
C44   H25   S    
C42   O3    S    
C19   N1    A    
C46   H27   S    
C51   H40   S    
C55   Cl5   S    
C50   H37   S    
C21   H49   S    
C47   H28   S    
C42   H18   S    
C25   N2    A    
C44   H24   S    
C36   H3    S    
C53   H43   S    
C24   Cl6   S    
C13   C14   A    
C48   H32   S    
C16   O11   A    
C36   O14   S    
C30   H2    S    
C4    O9    A    
C38   H7    S    
Cu2   O13   S    
C49   O5    S    
C19   O2    S    
Cu1   Cu2   S    
C39   H10   S    
C40   H14   S    
C23   C56   A    
Cu1   O12   S    
C26   H51   S    
C39   C40   S    
C8    H23   S    
C3    O6    S    
C18   Cl4   S    
C4    O8    A    
C58   Cl1   S    
C27   H52   S    
C41   H16   S    
C39   O2    S    
C1    C6    S    
C54   H48   S    
C39   H11   S    
Cu2   O9    S    
C2    C4    S    
C43   C44   S    
C1    O1    A    
C37   C38   S    
C3    C9    A    
C34   C57   A    
C47   C48   S    
C46   H26   S    
C52   H42   S    
C54   H47   S    
C50   C51   S    
C15   Cl3   S    
C34   C45   A    
C24   C25   A    
C12   C35   A    
C20   N1    A    
C53   H44   S    
C9    C17   S    
C40   C41   S    
Cu1   O8    S    
C42   C43   S    
C12   C34   A    
Cu1   N2    S    
C44   H22   S    
C52   C53   S    
C14   Cl2   S    
C15   C17   A    
C48   H31   S    
C37   H5    S    
C46   C47   S    
C36   C37   S    
C18   C22   A    
C40   H13   S    
C46   O4    S    
C28   C31   S    
C3    C5    A    
Cu1   O1    S    
Cu2   N1    S    
C49   H35   S    
C6    C7    A    
C38   H9    S    
C41   H17   S    
C47   H29   S    
C32   C33   A    
C31   C57   A    
C49   H33   S    
C11   C13   A    
C5    C6    A    
C52   H41   S    
C51   H38   S    
C56   Cl8   S    
C54   H46   S    
C33   C35   A    
C11   H34   S    
C48   H30   S    
Cu2   O7    S    
C16   O10   A    
C10   C11   A    
C20   C21   A    
C45   C55   A    
C51   H39   S    
C49   C50   S    
C13   C16   S    
C2    C23   A    
C14   C15   A    
C42   H19   S    
C26   N2    A    
C21   C22   A    
C36   H4    S    
C7    H12   S    
