data_mof_unit_64935.cif
_audit_creation_date              2012-12-10T19:26:29-0500
_audit_creation_method            fapswitch 2.2
_symmetry_space_group_name_H-M    P1
_symmetry_Int_Tables_number       1
_space_group_crystal_system       triclinic
_cell_length_a                    18.714446
_cell_length_b                    18.675828
_cell_length_c                    18.976146
_cell_angle_alpha                 109.755453
_cell_angle_beta                  109.968263
_cell_angle_gamma                 109.126735
_cell_volume                      5077.62542563

loop_
_atom_site_label
_atom_site_type_symbol
_atom_type_description
_atom_site_fract_x
_atom_site_fract_y
_atom_site_fract_z
_atom_type_partial_charge
C1    C     C_R   0.119215 0.998678 0.619565 1.001959
C2    C     C_R   0.234821 0.988500 0.815910 0.619289
C3    C     C_R   0.311442 0.997192 0.813577 -0.336031
C4    C     C_R   0.119602 0.120521 0.500571 0.944269
C5    C     C_R   0.316022 0.991544 0.740278 -0.084244
C6    C     C_3   0.385596 0.047355 0.729373 0.412802
C7    C     C_3   0.310673 0.037532 0.653567 0.303637
C8    C     C_R   0.755708 0.731837 0.428488 -0.052301
C9    C     C_R   0.819662 0.812355 0.503936 -0.186769
C10   C     C_R   0.824630 0.827043 0.583644 0.647648
C11   C     C_R   0.758368 0.765744 0.585321 -0.209782
C12   C     C_R   0.270076 0.240637 0.572449 -0.106688
C13   C     C_R   0.688117 0.689106 0.505467 -0.157779
C14   C     C_R   0.691293 0.671251 0.429692 -0.017157
C15   C     C_3   0.622613 0.638753 0.339292 0.423600
C16   C     C_R   0.879001 0.999845 0.380187 0.952940
C17   C     C_3   0.694692 0.707656 0.337353 -0.364860
C18   C     C_R   0.808851 0.982507 0.235967 -0.115472
C19   C     C_R   0.815593 0.005346 0.316639 -0.229224
C20   C     C_R   0.765845 0.042030 0.338462 0.615924
C21   C     C_R   0.701121 0.043473 0.275197 -0.206193
C22   C     C_R   0.687140 0.006648 0.189928 -0.120057
C23   C     C_R   0.184150 0.188001 0.501465 -0.154414
C24   C     C_R   0.745632 0.983547 0.173668 -0.179518
C25   C     C_3   0.729416 0.904056 0.100964 0.368372
C26   C     C_3   0.799476 0.902632 0.170032 1.143281
C27   C     C_R   0.497366 0.617537 0.619703 0.997129
C28   C     C_R   0.880549 0.879405 0.500243 0.907605
C29   C     C_R   0.379383 0.374788 0.495398 0.961413
C30   C     C_R   0.500157 0.380030 0.380263 0.994113
C31   C     C_R   0.620381 0.621831 0.502202 0.946550
C32   C     C_R   0.501210 0.120472 0.120625 0.992654
C33   C     C_R   0.379474 0.000503 0.880776 0.998607
C34   C     C_R   0.161023 0.194173 0.426892 0.573634
C35   C     C_R   0.500970 0.879458 0.881264 0.972109
C36   C     C_R   0.620156 0.001315 0.120741 0.962709
C37   C     C_R   0.519194 0.762574 0.693790 -0.081084
C38   C     C_R   0.494884 0.680288 0.685959 -0.158734
C39   C     C_R   0.484670 0.666316 0.751800 -0.192973
C40   C     C_R   0.291933 0.253137 0.656153 -0.219374
C41   C     C_R   0.489791 0.733933 0.818812 0.653272
C42   C     C_R   0.505007 0.813117 0.819539 -0.251962
C43   C     C_R   0.525852 0.828529 0.760614 -0.080726
C44   C     C_3   0.491068 0.863182 0.704933 1.182770
C45   C     C_R   0.222968 0.257512 0.424608 -0.184968
C46   C     C_3   0.483801 0.790217 0.630263 -0.417555
C47   C     C_R   0.425171 0.242089 0.243916 -0.074644
C48   C     C_R   0.502350 0.316171 0.315323 -0.226878
C49   C     C_R   0.583065 0.326447 0.322497 0.525854
C50   C     C_R   0.583687 0.262412 0.257711 0.543776
C51   C     C_R   0.503678 0.187199 0.187356 -0.271853
C52   C     C_R   0.379658 0.297542 0.721289 0.668839
C53   C     C_R   0.426472 0.179280 0.183956 -0.108927
C54   C     C_3   0.329226 0.120650 0.131649 0.460567
C55   C     C_3   0.326505 0.192375 0.201480 -0.314300
C56   C     C_R   0.313043 0.301223 0.490175 -0.134618
C57   C     C_R   0.445027 0.316796 0.699980 0.544230
C58   C     C_R   0.423121 0.301793 0.615611 -0.229177
C59   C     C_R   0.336716 0.280719 0.558062 -0.018587
C60   C     C_2   0.298635 0.987147 0.565401 1.054737
C61   C     C_2   0.760716 0.786817 0.669333 1.024223
C62   C     C_2   0.587489 0.542547 0.279272 0.890227
C63   C     C_2   0.721503 0.669807 0.273159 1.004208
C64   C     C_2   0.678186 0.781250 0.333351 1.001648
C65   C     C_2   0.649964 0.082789 0.300339 1.016194
C66   C     C_2   0.462325 0.580725 0.748740 1.004830
C67   C     C_R   0.249245 0.985054 0.673712 -0.094108
C68   C     C_2   0.390969 0.723736 0.555817 1.053876
C69   C     C_2   0.299651 0.031626 0.124756 0.977012
C70   C     C_2   0.281518 0.236224 0.165237 1.057607
C71   C     C_2   0.295338 0.165056 0.256922 0.892059
C72   C     C_2   0.483038 0.289401 0.583630 1.079510
C73   C     C_2   0.188756 0.277444 0.355242 1.030403
C74   C     C_2   0.448230 0.140257 0.805303 1.029924
C75   C     C_R   0.180719 0.992137 0.682958 -0.262140
C76   C     C_R   0.170214 0.988161 0.751453 0.568005
F1    F     F_    0.075907 0.144811 0.360572 -0.615797
F2    F     F_    0.475323 0.721076 0.880176 -0.550925
F3    F     F_    0.411862 0.856646 0.694967 -0.617706
F4    F     F_    0.553339 0.946456 0.731315 -0.565818
F5    F     F_    0.400353 0.312832 0.802657 -0.568025
F6    F     F_    0.660313 0.398485 0.390618 -0.576670
F7    F     F_    0.661563 0.272659 0.264844 -0.582895
F8    F     F_    0.295326 0.114179 0.050986 -0.550721
F9    F     F_    0.528053 0.344581 0.759909 -0.541824
F10   F     F_    0.099168 0.986173 0.756925 -0.530694
F11   F     F_    0.225170 0.986025 0.882900 -0.517323
F12   F     F_    0.428508 0.005437 0.703712 -0.555995
F13   F     F_    0.310575 0.114794 0.667397 -0.702441
F14   F     F_    0.890678 0.903183 0.658420 -0.548183
F15   F     F_    0.556010 0.656743 0.338252 -0.568790
F16   F     F_    0.774739 0.069327 0.418658 -0.579745
F17   F     F_    0.646265 0.833082 0.061402 -0.546300
F18   F     F_    0.768060 0.829634 0.178501 -0.559690
F19   F     F_    0.874241 0.919744 0.163972 -0.615474
H1    H     H_    0.242227 0.229834 0.672262 0.220547
H2    H     H_    0.472501 0.516789 0.815474 0.363603
H3    H     H_    0.267231 0.636775 0.515538 0.371661
H4    H     H_    0.217267 0.900694 0.048188 0.356934
H5    H     H_    0.292770 0.340820 0.150663 0.370850
H6    H     H_    0.197350 0.082120 0.260650 0.386533
H7    H     H_    0.606576 0.318018 0.611642 0.356479
H8    H     H_    0.127419 0.234604 0.226951 0.375473
H9    H     H_    0.466256 0.246829 0.900925 0.396736
H10   H     H_    0.747146 0.917930 0.054923 0.097064
H11   H     H_    0.530640 0.815265 0.609358 0.204739
H12   H     H_    0.345146 0.987555 0.484006 0.371598
H13   H     H_    0.834481 0.844213 0.799582 0.369229
H14   H     H_    0.612572 0.443307 0.241449 0.369332
H15   H     H_    0.813709 0.648399 0.253391 0.373499
H16   H     H_    0.659874 0.846086 0.268784 0.356161
H17   H     H_    0.650431 0.177658 0.392319 0.363532
O1    O     O_R   0.091620 0.948280 0.539900 -0.612552
O2    O     O_R   0.448300 0.040010 0.091670 -0.602851
O3    O     O_R   0.460120 0.051750 0.908420 -0.624529
O4    O     O_R   0.091590 0.051710 0.643320 -0.568573
O5    O     O_R   0.356670 0.948360 0.908460 -0.573918
O6    O     O_R   0.551700 0.960090 0.908430 -0.597463
O7    O     O_R   0.448250 0.856700 0.908470 -0.564736
O8    O     O_R   0.643330 0.051740 0.091640 -0.624891
O9    O     O_R   0.539880 0.948350 0.091680 -0.553115
O10   O     O_R   0.091630 0.039900 0.448300 -0.581713
O11   O     O_R   0.091610 0.143340 0.551720 -0.644252
O12   O     O_R   0.551680 0.591610 0.643340 -0.598546
O13   O     O_R   0.908410 0.948290 0.356680 -0.570793
O14   O     O_R   0.908380 0.051720 0.460100 -0.562118
O15   O     O_R   0.908390 0.856660 0.448280 -0.601978
O16   O     O_R   0.908370 0.960100 0.551700 -0.545574
O17   O     O_R   0.448240 0.591630 0.539920 -0.612020
O18   O     O_2   0.235977 0.912917 0.512051 -0.581559
O19   O     O_R   0.359696 0.026870 0.544859 -0.717508
O20   O     O_2   0.692579 0.765183 0.671273 -0.647192
O21   O     O_R   0.841349 0.833302 0.746807 -0.659795
O22   O     O_2   0.508924 0.494324 0.226259 -0.489091
O23   O     O_R   0.356630 0.408410 0.448290 -0.617103
O24   O     O_R   0.644282 0.508462 0.284999 -0.769098
O25   O     O_2   0.670317 0.633090 0.195081 -0.488953
O26   O     O_R   0.804058 0.676269 0.302725 -0.723497
O27   O     O_2   0.668628 0.826590 0.389342 -0.531891
O28   O     O_R   0.672761 0.796689 0.265055 -0.696766
O29   O     O_2   0.571772 0.050614 0.250431 -0.606946
O30   O     O_R   0.691616 0.156632 0.382623 -0.668001
O31   O     O_2   0.416499 0.511835 0.678923 -0.661744
O32   O     O_R   0.492324 0.578767 0.826045 -0.651181
O33   O     O_2   0.372722 0.707948 0.482001 -0.545710
O34   O     O_R   0.460070 0.408390 0.551710 -0.627693
O35   O     O_R   0.326389 0.679959 0.570901 -0.736966
O36   O     O_2   0.335797 0.024926 0.187537 -0.596774
O37   O     O_R   0.231128 0.956573 0.045435 -0.646732
O38   O     O_2   0.201337 0.197405 0.121645 -0.517403
O39   O     O_R   0.330867 0.319348 0.178881 -0.723495
O40   O     O_2   0.343637 0.203780 0.335702 -0.599766
O41   O     O_R   0.210617 0.094869 0.217298 -0.687548
O42   O     O_2   0.453172 0.241382 0.506215 -0.563164
O43   O     O_R   0.573274 0.331811 0.641673 -0.694766
O44   O     O_2   0.186993 0.345996 0.373525 -0.568799
O45   O     O_R   0.448260 0.408420 0.356690 -0.602269
O46   O     O_R   0.151193 0.214533 0.268431 -0.717311
O47   O     O_2   0.526040 0.174994 0.827648 -0.485097
O48   O     O_R   0.417553 0.186065 0.850400 -0.739681
O49   O     O_R   0.551700 0.408400 0.460110 -0.581680
O50   O     O_R   0.539880 0.591640 0.448310 -0.559570
O51   O     O_R   0.643310 0.591620 0.551740 -0.608524
O52   O     O_R   0.551750 0.143400 0.091630 -0.586723
Zn1   Zn    Zn3+2 0.000020 0.930940 0.430940 1.167462
Zn2   Zn    Zn3+2 0.999980 0.069060 0.569060 1.183868
Zn3   Zn    Zn3+2 0.430910 0.500030 0.430960 1.152134
Zn4   Zn    Zn3+2 0.569030 0.500000 0.569070 1.127151
Zn5   Zn    Zn3+2 0.569070 0.069080 0.000020 1.154176
Zn6   Zn    Zn3+2 0.430930 0.931020 0.000080 1.184957

loop_
_geom_bond_atom_site_label_1
_geom_bond_atom_site_label_2
_ccdc_geom_bond_type
C26   F18   S    
C30   O45   A    
C33   O5    A    
C55   C70   S    
C41   C42   A    
C35   O7    A    
C19   C20   A    
C18   C26   S    
O3    Zn5   S    
C44   F4    S    
O45   Zn3   S    
C54   F8    S    
C61   O21   S    
C39   C41   A    
C53   C54   S    
C25   F17   S    
H4    O37   S    
C12   C23   A    
C74   O47   D    
C18   C24   A    
C30   C48   S    
C40   H1    S    
C17   C64   S    
O1    Zn1   S    
C38   C39   A    
O8    Zn5   S    
C66   O32   S    
H3    O35   S    
C3    C33   S    
C27   C38   S    
C62   O24   S    
C7    F13   S    
C46   H11   S    
C6    F12   S    
C45   C73   S    
C18   C19   A    
H17   O30   S    
C35   C42   S    
C61   O20   D    
C64   O28   S    
O12   Zn4   S    
C12   C59   A    
O5    Zn6   S    
C71   O40   D    
C45   C56   A    
C8    C9    A    
C70   O38   D    
H16   O28   S    
C1    O4    A    
C9    C10   A    
C28   O15   A    
C5    C67   A    
C47   C53   A    
O9    Zn6   S    
C31   O50   A    
O10   Zn1   S    
C13   C14   A    
H14   O24   S    
O16   Zn2   S    
C63   O25   D    
O4    Zn2   S    
O52   Zn5   S    
C1    O1    A    
H9    O48   S    
C60   O19   S    
C44   C46   S    
C50   F7    S    
C6    C74   S    
H5    O39   S    
C31   O51   A    
C33   O3    A    
C72   O42   D    
O17   Zn3   S    
C25   H10   S    
C1    C75   S    
H15   O26   S    
C24   C25   S    
H12   O19   S    
C65   O29   D    
C52   C57   A    
C60   O18   D    
C29   O34   A    
C4    C23   S    
C66   O31   D    
O6    Zn5   S    
C3    C5    A    
C25   C26   S    
C40   C52   A    
C7    C67   S    
C73   O46   S    
C4    O11   A    
C51   C53   A    
C49   F6    S    
C12   C40   A    
O13   Zn1   S    
C75   C76   A    
H2    O32   S    
C46   C68   S    
C37   C38   A    
C20   F16   S    
C47   C48   A    
H6    O41   S    
O15   Zn1   S    
C23   C34   A    
C50   C51   A    
C4    O10   A    
C2    F11   S    
C34   C45   A    
C68   O35   S    
C48   C49   A    
C29   O23   A    
C43   C44   S    
C27   O17   A    
C63   O26   S    
C22   C24   A    
C37   C43   A    
C67   C75   A    
C42   C43   A    
C76   F10   S    
C7    C60   S    
C41   F2    S    
C2    C76   A    
C47   C55   S    
C16   O13   A    
C32   C51   S    
C26   F19   S    
O2    Zn6   S    
O34   Zn4   S    
C54   C55   S    
C8    C14   A    
C21   C65   S    
C13   C31   S    
C44   F3    S    
C70   O39   S    
O14   Zn2   S    
C27   O12   A    
H8    O46   S    
C15   C17   S    
C6    C7    S    
C29   C56   S    
C22   C36   S    
C8    C17   S    
C56   C59   A    
C74   O48   S    
C69   O37   S    
C62   O22   D    
C36   O9    A    
C58   C59   A    
O51   Zn4   S    
H13   O21   S    
C34   F1    S    
C17   C63   S    
C65   O30   S    
C11   C13   A    
C58   C72   S    
C57   C58   A    
C5    C6    S    
C54   C69   S    
C16   C19   S    
C32   O52   A    
C73   O44   D    
C39   C66   S    
C15   C62   S    
C57   F9    S    
C2    C3    A    
O11   Zn2   S    
C11   C61   S    
C52   F5    S    
C36   O8    A    
O49   Zn4   S    
C10   C11   A    
O7    Zn6   S    
C15   F15   S    
O50   Zn3   S    
C20   C21   A    
C10   F14   S    
C49   C50   A    
C72   O43   S    
C69   O36   D    
O23   Zn3   S    
C14   C15   S    
C35   O6    A    
C30   O49   A    
C32   O2    A    
C37   C46   S    
C21   C22   A    
C16   O14   A    
H7    O43   S    
C55   C71   S    
C68   O33   D    
C28   O16   A    
C9    C28   S    
C64   O27   D    
C71   O41   S    
