data_mof_unit_40378.cif
_audit_creation_date              2012-12-11T15:43:45-0500
_audit_creation_method            fapswitch 2.2
_symmetry_space_group_name_H-M    P1
_symmetry_Int_Tables_number       1
_space_group_crystal_system       triclinic
_cell_length_a                    14.862368
_cell_length_b                    16.027483
_cell_length_c                    6.934065
_cell_angle_alpha                 90.396082
_cell_angle_beta                  98.890729
_cell_angle_gamma                 89.960598
_cell_volume                      1631.85338007

loop_
_atom_site_label
_atom_site_type_symbol
_atom_type_description
_atom_site_fract_x
_atom_site_fract_y
_atom_site_fract_z
_atom_type_partial_charge
O1    O     O_R   0.831700 0.662810 0.581550 -0.550441
O2    O     O_R   0.168300 0.337190 0.418450 -0.525370
O3    O     O_R   0.168300 0.162810 0.418450 -0.533955
O4    O     O_R   0.831700 0.837190 0.581550 -0.517897
O5    O     O_R   0.842890 0.834390 0.255500 -0.541144
O6    O     O_R   0.157110 0.165610 0.744500 -0.520257
O7    O     O_R   0.157110 0.334390 0.744500 -0.523536
O8    O     O_R   0.842890 0.665610 0.255500 -0.551035
O9    O     O_R   0.661690 0.835580 0.024130 -0.507439
O10   O     O_R   0.338310 0.164420 0.975870 -0.523844
O11   O     O_R   0.338310 0.335580 0.975870 -0.517842
O12   O     O_R   0.661690 0.664420 0.024130 -0.518515
C1    C     C_R   0.862395 0.866757 0.431315 0.784292
C2    C     C_R   0.136104 0.133965 0.567912 0.812921
C3    C     C_R   0.137557 0.366918 0.568693 0.824842
C4    C     C_R   0.862181 0.632759 0.430490 0.810585
C5    C     C_R   0.067462 0.063966 0.531489 -0.206615
C6    C     C_R   0.930134 0.936729 0.467691 -0.218420
C7    C     C_R   0.929815 0.562100 0.465034 -0.213660
C8    C     C_R   0.069175 0.436587 0.530377 -0.217363
H1    H     H_    0.002056 0.892720 0.243048 0.200772
H2    H     H_    0.992445 0.109927 0.750143 0.173454
H3    H     H_    0.999465 0.395329 0.759731 0.201568
H4    H     H_    0.000462 0.604652 0.238628 0.204628
C9    C     C_R   0.000317 0.939783 0.355129 -0.218510
C10   C     C_R   0.996376 0.061231 0.643108 -0.211281
C11   C     C_R   0.000059 0.440859 0.645277 -0.194432
C12   C     C_R   0.999119 0.557976 0.350083 -0.193926
O13   O     O_3   0.687240 0.750000 0.366320 -0.315357
O14   O     O_3   0.312760 0.250000 0.633680 -0.364096
V1    V     V_3+5 0.757720 0.750000 0.115230 1.724459
V2    V     V_3+5 0.242280 0.250000 0.884770 1.773255
O15   O     O_R   0.650500 0.664000 0.690740 -0.519767
O16   O     O_R   0.349500 0.336000 0.309260 -0.525804
O17   O     O_R   0.349500 0.164000 0.309260 -0.521415
O18   O     O_R   0.650500 0.836000 0.690740 -0.500400
C13   C     C_R   0.631415 0.633772 0.853993 0.811885
C14   C     C_R   0.367664 0.366752 0.145876 0.840709
C15   C     C_R   0.368589 0.133598 0.143850 0.873597
C16   C     C_R   0.624716 0.860882 0.854709 0.855176
C17   C     C_R   0.068127 0.001696 0.383357 0.368951
C18   C     C_R   0.927461 0.999935 0.612194 0.483320
C19   C     C_R   0.929634 0.500007 0.611851 0.451271
C20   C     C_R   0.067361 0.496307 0.377112 0.473128
V3    V     V_3+5 0.735670 0.750000 0.607790 1.795121
V4    V     V_3+5 0.264330 0.250000 0.392210 1.770107
O19   O     O_3   0.806150 0.750000 0.906560 -0.410500
O20   O     O_3   0.193850 0.250000 0.093440 -0.367597
C21   C     C_2   0.552118 0.925593 0.852976 -0.344283
C22   C     C_2   0.434515 0.063547 0.142894 -0.364743
C23   C     C_2   0.437329 0.433031 0.155250 -0.298236
C24   C     C_2   0.560653 0.568298 0.844528 -0.253336
C25   C     C_2   0.503418 0.940206 0.002702 0.337316
C26   C     C_2   0.435088 0.008301 0.990861 0.359339
C27   C     C_2   0.452988 0.480051 0.000306 0.240534
C28   C     C_2   0.544635 0.521033 0.998904 0.334660
H5    H     H_    0.486074 0.057579 0.271357 0.122391
H6    H     H_    0.539230 0.964821 0.724590 0.135646
H7    H     H_    0.515912 0.564268 0.706260 0.197404
H8    H     H_    0.481463 0.438005 0.294151 0.201595
S1    S     S_3+6 0.148277 0.999906 0.219773 0.093507
O21   O     O_2   0.242984 0.006359 0.330152 -0.281998
O22   O     O_2   0.140528 0.920882 0.100237 -0.276844
O23   O     O_3   0.127984 0.081450 0.069039 -0.465117
H9    H     H_    0.064651 0.098737 0.076575 0.303760
S2    S     S_3+6 0.835558 0.009768 0.745973 -0.001556
O24   O     O_2   0.843521 0.944278 0.901594 -0.342969
O25   O     O_2   0.836626 0.094469 0.841068 -0.333936
O26   O     O_3   0.736854 0.997344 0.593501 -0.498708
H10   H     H_    0.690298 0.024787 0.660015 0.355049
S3    S     S_3+6 0.844412 0.491202 0.760699 0.061166
O27   O     O_2   0.752515 0.510411 0.647928 -0.323525
O28   O     O_2   0.842187 0.404779 0.842768 -0.283084
O29   O     O_3   0.870431 0.558823 0.945505 -0.488071
H11   H     H_    0.820710 0.599960 0.925882 0.360171
S4    S     S_3+6 0.148352 0.499108 0.215228 0.069257
O30   O     O_2   0.136650 0.423309 0.085769 -0.322554
O31   O     O_2   0.135347 0.575481 0.088948 -0.312989
O32   O     O_3   0.253663 0.500407 0.343510 -0.451133
H12   H     H_    0.289171 0.538743 0.272814 0.385993
S5    S     S_3+6 0.346191 0.000694 0.790512 0.057438
O33   O     O_2   0.255898 0.016493 0.854801 -0.276418
O34   O     O_2   0.362579 0.063906 0.641280 -0.346780
O35   O     O_3   0.345185 0.904145 0.693319 -0.473223
H13   H     H_    0.281980 0.895292 0.626672 0.409112
S6    S     S_3+6 0.504868 0.873178 0.204277 0.061465
O36   O     O_2   0.508743 0.783228 0.143330 -0.304948
O37   O     O_2   0.587426 0.894841 0.348617 -0.349783
O38   O     O_3   0.410912 0.887103 0.307922 -0.426802
H14   H     H_    0.427166 0.931724 0.406275 0.382803
S7    S     S_3+6 0.634513 0.499748 0.194695 0.044824
O39   O     O_2   0.726470 0.517126 0.140650 -0.302868
O40   O     O_2   0.619445 0.554108 0.363782 -0.322937
O41   O     O_3   0.633149 0.398727 0.259137 -0.500949
H15   H     H_    0.681763 0.393533 0.373415 0.404471
S8    S     S_3+6 0.362559 0.500008 0.804564 0.034073
O42   O     O_2   0.377239 0.444486 0.637244 -0.315289
O43   O     O_2   0.270792 0.482364 0.859915 -0.288023
O44   O     O_3   0.362532 0.600231 0.733784 -0.470297
H16   H     H_    0.358569 0.633170 0.853596 0.365802

loop_
_geom_bond_atom_site_label_1
_geom_bond_atom_site_label_2
_ccdc_geom_bond_type
O6    V2    S    
C27   C28   S    
S1    O23   S    
O15   V3    S    
S2    O25   D    
S4    O32   S    
C17   S1    S    
S5    O33   D    
C25   C26   S    
O2    V4    S    
C22   C26   D    
C1    C6    S    
C5    C10   A    
O8    V1    S    
S4    O31   D    
C6    C18   A    
S6    O37   D    
S2    O26   S    
S7    O40   D    
C16   C21   S    
S8    O44   S    
O12   C13   A    
S1    O22   D    
O4    C1    A    
C20   S4    S    
C8    C20   A    
C28   S7    S    
S8    O43   D    
C25   S6    S    
O16   V4    S    
H3    C11   S    
O5    C1    A    
S1    O21   D    
O7    C3    A    
S2    O24   D    
O8    C4    A    
V1    O19   S    
V2    O20   S    
C2    C5    S    
O26   H10   S    
C6    C9    A    
S5    O34   D    
C7    C19   A    
O4    V3    S    
V3    O19   S    
C3    C8    S    
V4    O20   S    
O29   H11   S    
O18   C16   A    
O35   H13   S    
C9    C17   A    
S7    O39   D    
S3    O28   D    
C13   C24   S    
S6    O36   D    
C14   C23   S    
C12   C20   A    
O9    C16   A    
O15   C13   A    
C21   H6    S    
O13   V3    S    
O10   C15   A    
O11   C14   A    
O17   C15   A    
O2    C3    A    
C24   H7    S    
O10   V2    S    
O6    C2    A    
O44   H16   S    
S8    O42   D    
O18   V3    S    
O1    C4    A    
S4    O30   D    
C7    C12   A    
O3    C2    A    
O11   V2    S    
O12   V1    S    
S5    O35   S    
C10   C18   A    
H1    C9    S    
C19   S3    S    
O7    V2    S    
O16   C14   A    
C22   H5    S    
O14   V4    S    
H4    C12   S    
C27   S8    S    
S6    O38   S    
S3    O29   S    
C8    C11   A    
O3    V4    S    
O23   H9    S    
S3    O27   D    
O13   V1    S    
S7    O41   S    
O14   V2    S    
O1    V3    S    
C4    C7    S    
C21   C25   D    
C23   C27   D    
O41   H15   S    
C5    C17   A    
O9    V1    S    
O32   H12   S    
C11   C19   A    
C15   C22   S    
H2    C10   S    
C18   S2    S    
C23   H8    S    
O38   H14   S    
O17   V4    S    
C26   S5    S    
C24   C28   D    
O5    V1    S    
