data_mof_unit_60817.cif
_audit_creation_date              2012-10-26T20:56:56-0400
_audit_creation_method            fapswitch 2.2
_symmetry_space_group_name_H-M    P1
_symmetry_Int_Tables_number       1
_space_group_crystal_system       triclinic
_cell_length_a                    16.127441
_cell_length_b                    17.237871
_cell_length_c                    19.383685
_cell_angle_alpha                 92.227123
_cell_angle_beta                  92.671479
_cell_angle_gamma                 97.18268
_cell_volume                      5335.18742213

loop_
_atom_site_label
_atom_site_type_symbol
_atom_type_description
_atom_site_fract_x
_atom_site_fract_y
_atom_site_fract_z
_atom_type_partial_charge
C1    C     C_R   0.488813 0.349677 0.502149 0.580907
C2    C     C_R   0.528375 0.898161 0.481982 0.003393
C3    C     C_R   0.411742 0.134842 0.478344 0.463595
C4    C     C_R   0.588257 0.865158 0.521655 0.463594
C5    C     C_R   0.417042 0.215512 0.474261 0.412019
C6    C     C_R   0.582957 0.784488 0.525738 0.412018
C7    C     C_2   0.469126 0.016563 0.514382 0.416529
C8    C     C_2   0.530874 0.983436 0.485613 0.416528
C9    C     C_R   0.747672 0.464229 0.462251 0.117807
C10   C     C_R   0.252328 0.535770 0.537749 0.117807
C11   C     C_R   0.834591 0.470381 0.458828 0.331922
C12   C     C_R   0.511187 0.650323 0.497851 0.580908
C13   C     C_R   0.165409 0.529619 0.541172 0.331923
C14   C     C_R   0.885889 0.521639 0.505055 0.050962
C15   C     C_R   0.114111 0.478361 0.494945 0.050963
C16   C     C_R   0.500068 0.500605 0.367595 0.569804
C17   C     C_R   0.499932 0.499395 0.632405 0.569805
C18   C     C_R   0.848544 0.566970 0.553347 0.352395
C19   C     C_R   0.151456 0.433030 0.446653 0.352396
C20   C     C_R   0.760927 0.560067 0.554887 0.089650
C21   C     C_R   0.239073 0.439933 0.445113 0.089651
C22   C     C_2   0.978164 0.530994 0.501230 0.501650
C23   C     C_R   0.482399 0.264672 0.510006 -0.056667
C24   C     C_2   0.021836 0.469006 0.498770 0.501650
C25   C     C_R   0.423118 0.498862 0.253077 -0.162050
C26   C     C_R   0.576882 0.501141 0.746923 -0.162050
C27   C     C_R   0.420467 0.499475 0.180978 -0.028148
C28   C     C_R   0.579533 0.500529 0.819022 -0.028148
C29   C     C_R   0.495744 0.503606 0.145941 -0.038491
C30   C     C_R   0.504256 0.496395 0.854059 -0.038491
C31   C     C_R   0.572169 0.508726 0.184615 -0.054937
C32   C     C_R   0.427830 0.491271 0.815384 -0.054937
C33   C     C_R   0.574472 0.508121 0.256469 0.395341
C34   C     C_R   0.517601 0.735328 0.489993 -0.056667
C35   C     C_R   0.425528 0.491876 0.743530 0.395340
C36   C     C_R   0.499641 0.502306 0.291509 0.014586
C37   C     C_R   0.500359 0.497694 0.708491 0.014586
C38   C     C_R   0.502806 0.497530 0.930160 0.346682
C39   C     C_R   0.497193 0.502471 0.069840 0.346681
C40   C     C_1   0.697640 0.408086 0.415623 0.439070
C41   C     C_1   0.302360 0.591913 0.584378 0.439068
C42   C     C_1   0.275688 0.394995 0.393270 0.406050
C43   C     C_1   0.724312 0.605005 0.606730 0.406047
C44   C     C_1   0.339846 0.498660 0.145019 0.281312
C45   C     C_R   0.540391 0.231879 0.553759 -0.102662
C46   C     C_1   0.660155 0.501346 0.854981 0.281312
C47   C     C_1   0.603654 0.281591 0.596459 0.268764
C48   C     C_1   0.396349 0.718406 0.403536 0.268763
C49   C     C_1   0.406738 0.884405 0.397321 0.319910
C50   C     C_1   0.593265 0.115593 0.602673 0.319911
C51   C     C_R   0.459610 0.768120 0.446237 -0.102662
C52   C     C_R   0.534918 0.150079 0.557602 -0.081970
C53   C     C_R   0.465084 0.849920 0.442394 -0.081968
C54   C     C_R   0.471625 0.101839 0.518014 0.003392
Cu1   Cu    Cu3+1 0.415410 0.495980 0.496480 1.055550
Cu2   Cu    Cu3+1 0.584590 0.504020 0.503520 1.055548
F1    F     F_    0.981446 0.394963 0.500825 -0.522043
F2    F     F_    0.359692 0.245255 0.433146 -0.541903
F3    F     F_    0.598803 0.028143 0.462589 -0.572865
F4    F     F_    0.401197 0.971856 0.537405 -0.572864
F5    F     F_    0.349975 0.088447 0.440951 -0.495114
F6    F     F_    0.650023 0.911554 0.559048 -0.495117
F7    F     F_    0.018554 0.605037 0.499175 -0.522044
F8    F     F_    0.897083 0.616922 0.599119 -0.509076
F9    F     F_    0.102917 0.383078 0.400881 -0.509076
F10   F     F_    0.131458 0.571234 0.591252 -0.522846
F11   F     F_    0.868541 0.428765 0.408748 -0.522846
F12   F     F_    0.650194 0.513444 0.291123 -0.581085
F13   F     F_    0.349806 0.486550 0.708877 -0.581084
F14   F     F_    0.640305 0.754746 0.566857 -0.541903
H1    H     H_    0.364890 0.496156 0.279171 0.164324
H2    H     H_    0.635111 0.503849 0.720830 0.164323
H3    H     H_    0.630751 0.512182 0.159044 0.191082
H4    H     H_    0.369248 0.487812 0.840956 0.191083
N1    N     N_R   0.564213 0.538885 0.038924 -0.189720
N2    N     N_1   0.695758 0.640931 0.649170 -0.146091
N3    N     N_1   0.275166 0.498055 0.116365 -0.170747
N4    N     N_1   0.724836 0.501955 0.883635 -0.170746
N5    N     N_1   0.654043 0.321247 0.630534 -0.232303
N6    N     N_1   0.345962 0.678750 0.369461 -0.232307
N7    N     N_1   0.360216 0.911928 0.361379 -0.110698
N8    N     N_1   0.639788 0.088069 0.638613 -0.110690
N9    N     N_R   0.435786 0.461115 0.961076 -0.189721
N10   N     N_R   0.566777 0.536751 0.970420 -0.172371
N11   N     N_R   0.433223 0.463250 0.029580 -0.172371
N12   N     N_R   0.711660 0.510070 0.508820 -0.352668
N13   N     N_R   0.288340 0.489930 0.491180 -0.352668
N14   N     N_1   0.658233 0.362547 0.377959 -0.174580
N15   N     N_1   0.341767 0.637452 0.622042 -0.174582
N16   N     N_1   0.304242 0.359070 0.350829 -0.146093
O1    O     O_R   0.420280 0.382610 0.496690 -0.448825
O2    O     O_R   0.579720 0.617390 0.503310 -0.448828
O3    O     O_R   0.563150 0.389410 0.502640 -0.524435
O4    O     O_R   0.436850 0.610590 0.497360 -0.524433
O5    O     O_R   0.428540 0.496590 0.397170 -0.532283
O6    O     O_R   0.571460 0.503410 0.602830 -0.532283
O7    O     O_R   0.571410 0.503390 0.403120 -0.448726
O8    O     O_R   0.428590 0.496610 0.596880 -0.448725

loop_
_geom_bond_atom_site_label_1
_geom_bond_atom_site_label_2
_ccdc_geom_bond_type
C41   N15   T    
Cu1   Cu2   S    
C21   N13   A    
C23   C45   A    
C38   N9    A    
C27   C29   A    
C26   H2    S    
C14   C18   A    
C47   N5    T    
C18   F8    S    
C7    C8    D    
C15   C19   A    
C28   C46   S    
C34   C51   A    
C5    F2    S    
C44   N3    T    
C35   C37   A    
C8    F3    S    
C32   H4    S    
C3    C54   A    
N1    N10   A    
C31   H3    S    
C4    F6    S    
C33   C36   A    
C30   C38   S    
Cu2   O6    S    
C49   N7    T    
Cu1   O1    S    
C22   F7    S    
C27   C44   S    
C48   C51   S    
C52   C54   A    
C24   F1    S    
C20   N12   A    
C50   C52   S    
C31   C33   A    
C25   H1    S    
C39   N1    A    
C17   O8    A    
C3    F5    S    
C1    O1    A    
C10   C41   S    
C12   O4    A    
Cu2   O7    S    
Cu1   O4    S    
C11   F11   S    
C13   F10   S    
C45   C47   S    
Cu2   O3    S    
C10   N13   A    
C32   C35   A    
Cu1   O5    S    
C46   N4    T    
C45   C52   A    
C10   C13   A    
C9    C40   S    
C6    C34   A    
C42   N16   T    
C2    C4    A    
C9    N12   A    
Cu2   N12   S    
C5    C23   A    
C29   C39   S    
C17   O6    A    
C17   C37   S    
C9    C11   A    
C4    C6    A    
C15   C24   S    
N9    N11   A    
C1    C23   S    
C13   C15   A    
C22   C24   D    
C39   N11   A    
C12   C34   S    
C7    F4    S    
C20   C43   S    
C50   N8    T    
C43   N2    T    
C6    F14   S    
C16   O5    A    
C38   N10   A    
C12   O2    A    
C2    C8    S    
C3    C5    A    
C2    C53   A    
C26   C37   A    
C25   C27   A    
C26   C28   A    
C14   C22   S    
C28   C30   A    
C29   C31   A    
C16   C36   S    
C30   C32   A    
C48   N6    T    
C49   C53   S    
Cu1   O8    S    
C11   C14   A    
C19   F9    S    
C18   C20   A    
Cu1   N13   S    
C16   O7    A    
C25   C36   A    
C21   C42   S    
Cu2   O2    S    
C35   F13   S    
C1    O3    A    
C7    C54   S    
C51   C53   A    
C40   N14   T    
C33   F12   S    
C19   C21   A    
