data_mof_unit_45169.cif
_audit_creation_date              2012-12-10T16:50:57-0500
_audit_creation_method            fapswitch 2.2
_symmetry_space_group_name_H-M    P1
_symmetry_Int_Tables_number       1
_space_group_crystal_system       triclinic
_cell_length_a                    7.810091
_cell_length_b                    8.558764
_cell_length_c                    10.622448
_cell_angle_alpha                 91.673294
_cell_angle_beta                  84.959675
_cell_angle_gamma                 93.537623
_cell_volume                      705.759196515

loop_
_atom_site_label
_atom_site_type_symbol
_atom_type_description
_atom_site_fract_x
_atom_site_fract_y
_atom_site_fract_z
_atom_type_partial_charge
C1    C     C_R   0.545550 0.794493 0.494629 0.957777
C2    C     C_R   0.972184 0.490690 0.024433 -0.117239
C3    C     C_R   0.049053 0.632967 0.071687 -0.086538
C4    C     C_R   0.983562 0.566133 0.907994 -0.159417
C5    C     C_R   0.196603 0.620054 0.136735 -0.176466
C6    C     C_R   0.831816 0.595727 0.855584 -0.169992
C7    C     C_R   0.357080 0.589223 0.069384 0.082791
C8    C     C_R   0.671033 0.568922 0.922401 0.125209
C9    C     C_R   0.374018 0.629242 0.941492 0.052773
C10   C     C_R   0.659224 0.512451 0.044390 -0.042889
C11   C     C_R   0.501303 0.526860 0.121973 -0.215252
C12   C     C_R   0.454500 0.205407 0.500863 1.007313
C13   C     C_R   0.520630 0.589670 0.866299 -0.187983
C14   C     C_2   0.297803 0.846192 0.802732 0.941230
C15   C     C_2   0.786514 0.281119 0.139228 0.962572
C16   C     C_2   0.569768 0.957927 0.490920 -0.292384
C17   C     C_2   0.430795 0.041795 0.496245 -0.280617
C18   C     C_R   0.507162 0.535168 0.735584 0.893702
C19   C     C_R   0.499019 0.502235 0.257918 0.896456
C20   C     C_R   0.247849 0.719380 0.895204 -0.114981
C21   C     C_R   0.806023 0.437781 0.078388 -0.105880
C22   C     C_R   0.076897 0.699594 0.950986 -0.215446
H1    H     H_    0.056122 0.501462 0.833371 0.194529
H2    H     H_    0.989725 0.629659 0.584888 0.175620
H3    H     H_    0.062519 0.849235 0.735139 0.286547
H4    H     H_    0.557706 0.216325 0.069726 0.307399
H5    H     H_    0.957195 0.696101 0.134585 0.175464
H6    H     H_    0.012402 0.808425 0.946258 0.176065
H7    H     H_    0.058106 0.394629 0.022107 0.175045
H8    H     H_    0.181398 0.650602 0.235753 0.186574
H9    H     H_    0.841476 0.658293 0.768359 0.138227
H10   H     H_    0.701199 0.008807 0.487119 0.184438
H11   H     H_    0.299594 0.990827 0.498366 0.202299
H12   H     H_    0.012160 0.374484 0.410784 0.231241
N1    N     N_2   0.950330 0.457950 0.466250 -0.169643
N2    N     N_2   0.049670 0.542050 0.533750 -0.191096
O1    O     O_R   0.389250 0.738570 0.508280 -0.613449
O2    O     O_R   0.178905 0.907914 0.729584 -0.788782
O3    O     O_2   0.901996 0.238430 0.198088 -0.615841
O4    O     O_R   0.639876 0.180247 0.129904 -0.776150
O5    O     O_R   0.610750 0.261430 0.491720 -0.595527
O6    O     O_R   0.678390 0.711630 0.486650 -0.644770
O7    O     O_R   0.321610 0.288370 0.513350 -0.612134
O8    O     O_R   0.355430 0.513480 0.694040 -0.630129
O9    O     O_R   0.644570 0.486520 0.305960 -0.614452
O10   O     O_R   0.644570 0.486540 0.672410 -0.619105
O11   O     O_R   0.355430 0.513460 0.327590 -0.639423
O12   O     O_2   0.446072 0.901694 0.792464 -0.611348
Zn1   Zn    Zn3+2 0.306940 0.517990 0.514440 0.956093
Zn2   Zn    Zn3+2 0.693060 0.482010 0.485560 0.977567

loop_
_geom_bond_atom_site_label_1
_geom_bond_atom_site_label_2
_ccdc_geom_bond_type
O8    Zn1   S    
C12   C17   S    
C2    C4    A    
C19   O9    A    
C8    C13   A    
C18   O8    A    
H3    O2    S    
C14   O2    S    
C4    C22   A    
O10   Zn2   S    
C9    C20   A    
N1    N2    D    
C1    O1    A    
C15   O3    D    
N1    Zn2   S    
C3    H5    S    
C2    C3    A    
O11   Zn1   S    
C1    C16   S    
C22   H6    S    
C7    C11   A    
C11   C19   S    
C14   O12   D    
H2    N2    S    
C2    C21   A    
C17   H11   S    
C13   C18   S    
O6    Zn2   S    
C2    H7    S    
C18   O10   A    
C4    C6    A    
C20   C22   A    
C6    H9    S    
C12   O7    A    
C5    C7    A    
C10   C21   A    
C19   O11   A    
C15   O4    S    
C16   H10   S    
C10   C11   A    
C15   C21   S    
C14   C20   S    
C1    O6    A    
H4    O4    S    
O1    Zn1   S    
C12   O5    A    
C8    C10   A    
H12   N1    S    
C5    H8    S    
C7    C9    A    
O5    Zn2   S    
C9    C13   A    
O7    Zn1   S    
C3    C22   A    
C6    C8    A    
O9    Zn2   S    
C4    H1    S    
N2    Zn1   S    
C16   C17   D    
C3    C5    A    
