data_mof_unit_55409.cif
_audit_creation_date              2012-12-10T18:05:13-0500
_audit_creation_method            fapswitch 2.2
_symmetry_space_group_name_H-M    P1
_symmetry_Int_Tables_number       1
_space_group_crystal_system       triclinic
_cell_length_a                    9.684226
_cell_length_b                    10.758381
_cell_length_c                    16.988656
_cell_angle_alpha                 87.186251
_cell_angle_beta                  95.81003
_cell_angle_gamma                 88.092833
_cell_volume                      1757.47127975

loop_
_atom_site_label
_atom_site_type_symbol
_atom_type_description
_atom_site_fract_x
_atom_site_fract_y
_atom_site_fract_z
_atom_type_partial_charge
C1    C     C_R   0.501303 0.262899 0.498619 0.820616
C2    C     C_R   0.498725 0.737008 0.501841 0.840069
C3    C     C_R   0.588807 0.930110 0.558206 0.241044
C4    C     C_R   0.409767 0.069578 0.443310 0.246993
C5    C     C_R   0.496495 0.870961 0.504021 -0.079213
C6    C     C_R   0.503168 0.128855 0.496941 -0.065629
C7    C     C_R   0.084508 0.402997 0.536119 0.282309
C8    C     C_R   0.914545 0.595829 0.462625 0.261259
C9    C     C_R   0.936749 0.400757 0.531936 -0.009994
C10   C     C_R   0.062906 0.596162 0.463637 -0.010190
C11   C     C_R   0.519251 0.499741 0.651555 0.828768
C12   C     C_R   0.480865 0.495390 0.348551 0.863681
C13   C     C_R   0.533538 0.511690 0.739231 -0.178666
C14   C     C_R   0.468793 0.483751 0.260446 -0.229027
C15   C     C_R   0.434015 0.584229 0.774902 0.095667
C16   C     C_R   0.575395 0.418941 0.225121 0.152533
C17   C     C_R   0.455771 0.605909 0.856586 0.215832
C18   C     C_R   0.568358 0.415915 0.141663 0.197069
C19   C     C_R   0.571607 0.548974 0.903437 0.195215
C20   C     C_R   0.469015 0.493344 0.094432 0.149073
C21   C     C_R   0.675965 0.486719 0.867412 -0.119360
C22   C     C_R   0.360389 0.552400 0.128874 -0.086614
C23   C     C_R   0.651952 0.459457 0.787130 0.081590
C24   C     C_R   0.349302 0.532136 0.211218 0.115354
C25   C     C_R   0.590597 0.059313 0.554302 -0.342855
C26   C     C_R   0.408375 0.940490 0.447144 -0.251615
Cu1   Cu    Cu3+1 0.640660 0.500020 0.500000 0.984855
Cu2   Cu    Cu3+1 0.359340 0.499980 0.500000 0.983946
H1    H     H_    0.657366 0.105401 0.597672 0.184780
H2    H     H_    0.342416 0.894445 0.403553 0.167340
N1    N     N_2   0.577426 0.542178 0.987607 -0.174762
N2    N     N_2   0.467764 0.503054 0.010752 -0.178850
N3    N     N_R   0.852070 0.500030 0.499980 -0.243950
N4    N     N_R   0.147930 0.499970 0.500020 -0.241281
O1    O     O_R   0.618740 0.319660 0.500000 -0.566876
O2    O     O_R   0.381260 0.680340 0.500000 -0.557887
O3    O     O_R   0.381170 0.319630 0.500010 -0.561252
O4    O     O_R   0.618830 0.680370 0.499990 -0.530992
O5    O     O_R   0.631780 0.498870 0.613920 -0.580849
O6    O     O_R   0.368220 0.501130 0.386080 -0.558952
O7    O     O_R   0.394210 0.498840 0.613930 -0.572064
O8    O     O_R   0.605790 0.501160 0.386070 -0.551345
N5    N     N_2   0.674757 0.339741 0.273450 -0.413464
H3    H     H_    0.683630 0.249377 0.256408 0.268691
C27   C     C_3   0.806338 0.392543 0.299459 -0.573492
H4    H     H_    0.804401 0.494218 0.284987 0.204453
H5    H     H_    0.828576 0.375021 0.364297 0.265177
H6    H     H_    0.892646 0.347272 0.272008 0.187483
N6    N     N_2   0.315351 0.639269 0.727728 -0.416205
H7    H     H_    0.296940 0.732591 0.735514 0.247103
C28   C     C_3   0.191040 0.567672 0.726722 -0.576361
H8    H     H_    0.139219 0.579510 0.781313 0.205090
H9    H     H_    0.215967 0.467054 0.722199 0.231679
H10   H     H_    0.117466 0.600161 0.674841 0.224166
N7    N     N_2   0.648691 0.324982 0.105553 -0.427868
H11   H     H_    0.606391 0.297000 0.051385 0.267203
C29   C     C_3   0.797809 0.336232 0.111851 -0.589064
H12   H     H_    0.836680 0.322341 0.053834 0.237596
H13   H     H_    0.847701 0.260846 0.152889 0.213890
H14   H     H_    0.828884 0.428959 0.131937 0.242851
N8    N     N_2   0.364399 0.687501 0.892471 -0.385505
H15   H     H_    0.263311 0.695087 0.867113 0.262119
C30   C     C_3   0.420522 0.807166 0.909939 -0.646603
H16   H     H_    0.439910 0.859125 0.854191 0.198152
H17   H     H_    0.518903 0.795238 0.949705 0.252299
H18   H     H_    0.345112 0.862483 0.940388 0.248155
C31   C     C_2   0.812021 0.452948 0.913776 0.877333
O9    O     O_2   0.859299 0.521834 0.964156 -0.599634
O10   O     O_R   0.888182 0.345260 0.899148 -0.738826
H19   H     H_    0.979963 0.335064 0.933699 0.334004
C32   C     C_2   0.265406 0.639600 0.077610 0.912003
O11   O     O_2   0.262468 0.750477 0.090363 -0.609537
O12   O     O_R   0.180985 0.595175 0.014248 -0.735871
H20   H     H_    0.119216 0.663422 0.984341 0.342519
N9    N     N_2   0.740948 0.369061 0.757989 -0.360174
H21   H     H_    0.794867 0.399296 0.712119 0.304350
C33   C     C_3   0.683584 0.246819 0.752391 -0.518339
H22   H     H_    0.767359 0.176693 0.745330 0.253285
H23   H     H_    0.602976 0.246332 0.701048 0.175037
H24   H     H_    0.636837 0.219413 0.807514 0.211393
N10   N     N_2   0.218451 0.539573 0.244465 -0.360401
H25   H     H_    0.204217 0.462727 0.281026 0.273075
C34   C     C_3   0.088774 0.577013 0.197993 -0.590972
H26   H     H_    0.002428 0.567488 0.235647 0.201586
H27   H     H_    0.068599 0.516275 0.147434 0.222393
H28   H     H_    0.087673 0.676908 0.178816 0.266249
N11   N     N_2   0.678967 0.860387 0.616853 -0.420309
H29   H     H_    0.773253 0.900480 0.630167 0.252067
C35   C     C_3   0.614565 0.825670 0.687351 -0.680026
H30   H     H_    0.686547 0.762265 0.726990 0.229652
H31   H     H_    0.517715 0.776603 0.671391 0.233132
H32   H     H_    0.589840 0.909845 0.719478 0.214543
N12   N     N_2   0.316840 0.138928 0.385838 -0.424272
H33   H     H_    0.222960 0.097744 0.373321 0.257164
C36   C     C_3   0.377959 0.175516 0.314652 -0.686944
H34   H     H_    0.303055 0.236847 0.275452 0.222993
H35   H     H_    0.405017 0.092069 0.282448 0.229202
H36   H     H_    0.472751 0.227397 0.329964 0.237384
N13   N     N_2   0.164708 0.309315 0.585433 -0.426781
H37   H     H_    0.250367 0.334520 0.620464 0.278137
C37   C     C_3   0.166336 0.180752 0.563254 -0.578895
H38   H     H_    0.272428 0.138251 0.576301 0.212068
H39   H     H_    0.131966 0.173836 0.499330 0.249025
H40   H     H_    0.099162 0.125725 0.599742 0.232469
N14   N     N_2   0.829863 0.684270 0.412096 -0.383367
H41   H     H_    0.837416 0.674151 0.352685 0.227192
C38   C     C_3   0.830010 0.813672 0.432520 -0.582398
H42   H     H_    0.901413 0.866745 0.397634 0.214938
H43   H     H_    0.859238 0.822352 0.496920 0.240453
H44   H     H_    0.724987 0.856979 0.416152 0.220136
C39   C     C_2   0.879095 0.280556 0.550713 0.917756
O13   O     O_2   0.863301 0.249214 0.618946 -0.655999
O14   O     O_R   0.860673 0.195945 0.490880 -0.783215
H45   H     H_    0.843084 0.108844 0.511884 0.321104
C40   C     C_2   0.122643 0.706342 0.428456 0.900775
O15   O     O_2   0.138177 0.798567 0.467245 -0.630071
O16   O     O_R   0.149621 0.709529 0.349479 -0.755890
H46   H     H_    0.177206 0.794324 0.329328 0.315192

loop_
_geom_bond_atom_site_label_1
_geom_bond_atom_site_label_2
_ccdc_geom_bond_type
C9    C39   S    
N7    H11   S    
C30   H17   S    
N12   H33   S    
C5    C26   A    
O12   H20   S    
C36   H34   S    
C24   N10   S    
C19   N1    S    
C8    N14   S    
N10   H25   S    
C36   H36   S    
C27   H4    S    
Cu1   N3    S    
N14   C38   S    
C37   H38   S    
C7    N13   S    
C19   C21   A    
C33   H24   S    
C6    C25   A    
Cu2   O6    S    
Cu1   O4    S    
C40   O15   D    
Cu2   O7    S    
C13   C23   A    
C15   C17   A    
C14   C24   A    
N8    C30   S    
C12   O8    A    
C17   N8    S    
C39   O13   D    
Cu1   O5    S    
C40   O16   S    
C38   H42   S    
C35   H31   S    
C18   C20   A    
C1    O3    A    
C33   H23   S    
C30   H18   S    
Cu2   N4    S    
C37   H39   S    
C21   C31   S    
C9    N3    A    
C38   H43   S    
N8    H15   S    
N10   C34   S    
C27   H5    S    
C25   H1    S    
C3    N11   S    
C28   H8    S    
C10   N4    A    
C3    C25   A    
C4    C6    A    
C23   N9    S    
C32   O12   S    
C17   C19   A    
C29   H14   S    
N6    C28   S    
C33   H22   S    
C31   O9    D    
C28   H9    S    
C12   O6    A    
N9    H21   S    
N9    C33   S    
C2    O4    A    
C34   H26   S    
C13   C15   A    
C39   O14   S    
C35   H32   S    
C11   O5    A    
N5    C27   S    
C16   N5    S    
C18   N7    S    
C16   C18   A    
C34   H27   S    
C20   C22   A    
C26   H2    S    
C37   H40   S    
N7    C29   S    
N5    H3    S    
C38   H44   S    
C14   C16   A    
C2    C5    S    
C22   C32   S    
Cu1   Cu2   S    
C1    O1    A    
O14   H45   S    
C20   N2    S    
C27   H6    S    
C2    O2    A    
C7    C9    A    
N13   C37   S    
N1    N2    D    
C12   C14   S    
C30   H16   S    
C3    C5    A    
C4    C26   A    
C36   H35   S    
N14   H41   S    
N13   H37   S    
C28   H10   S    
Cu1   O1    S    
C21   C23   A    
C32   O11   D    
O16   H46   S    
C11   C13   S    
Cu1   O8    S    
C29   H12   S    
N12   C36   S    
Cu2   O3    S    
C7    N4    A    
C11   O7    A    
C22   C24   A    
C8    N3    A    
C15   N6    S    
O10   H19   S    
C29   H13   S    
C4    N12   S    
C34   H28   S    
Cu2   O2    S    
N11   H29   S    
C8    C10   A    
N6    H7    S    
C1    C6    S    
N11   C35   S    
C31   O10   S    
C35   H30   S    
C10   C40   S    
