data_mof_unit_27193.cif
_audit_creation_date              2012-12-11T16:17:56-0500
_audit_creation_method            fapswitch 2.2
_symmetry_space_group_name_H-M    P1
_symmetry_Int_Tables_number       1
_space_group_crystal_system       triclinic
_cell_length_a                    14.024347
_cell_length_b                    14.030185
_cell_length_c                    30.061214
_cell_angle_alpha                 97.156348
_cell_angle_beta                  97.161655
_cell_angle_gamma                 61.343337
_cell_volume                      5135.66727171

loop_
_atom_site_label
_atom_site_type_symbol
_atom_type_description
_atom_site_fract_x
_atom_site_fract_y
_atom_site_fract_z
_atom_type_partial_charge
C1    C     C_R   0.383983 0.713697 0.442856 0.552899
C2    C     C_R   0.423648 0.270935 0.219239 0.131615
C3    C     C_R   0.431637 0.274778 0.266574 0.032761
C4    C     C_R   0.348915 0.362604 0.290592 -0.092146
C5    C     C_R   0.331524 0.351178 0.196398 0.017342
C6    C     C_1   0.313095 0.334180 0.148466 -0.034002
C7    C     C_1   0.356764 0.365423 0.339050 -0.105233
C8    C     C_1   0.296562 0.310366 0.109504 -0.023857
C9    C     C_R   0.783388 0.353278 0.403668 -0.069779
C10   C     C_R   0.788979 0.256845 0.379032 -0.007401
C11   C     C_R   0.812526 0.235278 0.333296 -0.049637
C12   C     C_R   0.399261 0.381690 0.426138 0.548381
C13   C     C_R   0.841209 0.303667 0.314081 -0.034438
C14   C     C_R   0.858295 0.384710 0.341083 0.148517
C15   C     C_R   0.831345 0.408619 0.386398 -0.000463
C16   C     C_R   0.855380 0.382132 0.163744 0.113120
C17   C     C_R   0.862650 0.387434 0.117817 0.001465
C18   C     C_R   0.872483 0.207945 0.101770 -0.005717
C19   C     C_R   0.874667 0.198757 0.148445 -0.010219
C20   C     C_R   0.866103 0.286671 0.179054 -0.005106
C21   C     C_1   0.862928 0.284002 0.226719 -0.021623
C22   C     C_1   0.855610 0.289937 0.266527 -0.054038
C23   C     C_R   0.714112 0.402615 0.443206 0.529777
C24   C     C_R   0.885799 0.293758 0.087861 -0.045205
C25   C     C_R   0.357227 0.778855 0.403321 -0.008758
C26   C     C_R   0.435555 0.802663 0.389175 0.095063
C27   C     C_R   0.430152 0.823077 0.343763 0.126212
C28   C     C_R   0.340919 0.830089 0.314420 -0.003723
C29   C     C_R   0.252692 0.828313 0.331132 0.110740
C30   C     C_R   0.259461 0.804557 0.375449 0.115593
C31   C     C_R   0.258759 0.822823 0.149799 -0.030604
C32   C     C_R   0.249168 0.837529 0.103562 -0.037277
C33   C     C_R   0.391021 0.893386 0.116256 0.107983
C34   C     C_R   0.389517 0.711962 0.568124 0.542378
C35   C     C_R   0.396228 0.885148 0.162783 0.123096
C36   C     C_R   0.327693 0.853071 0.179560 0.020618
C37   C     C_1   0.333562 0.846016 0.227324 0.061650
C38   C     C_1   0.338232 0.839848 0.267124 0.029587
C39   C     C_R   0.306074 0.886062 0.088129 0.029951
C40   C     C_R   0.363608 0.357724 0.591915 0.026612
C41   C     C_R   0.439132 0.270111 0.617733 0.079282
C42   C     C_R   0.420999 0.267347 0.662485 0.015418
C43   C     C_R   0.324492 0.349510 0.680649 -0.020327
C44   C     C_R   0.240932 0.426658 0.653168 -0.006360
C45   C     C_R   0.401454 0.381920 0.552244 0.589015
C46   C     C_R   0.259825 0.429928 0.608227 0.011903
C47   C     C_R   0.215294 0.415773 0.837441 0.150327
C48   C     C_R   0.215653 0.409292 0.883919 0.146397
C49   C     C_R   0.402416 0.259852 0.884131 0.007412
C50   C     C_R   0.408162 0.278975 0.839513 -0.020434
C51   C     C_R   0.311569 0.350862 0.815541 -0.039119
C52   C     C_1   0.310305 0.355229 0.767833 -0.020600
C53   C     C_1   0.313347 0.354914 0.728070 -0.000103
C54   C     C_R   0.301349 0.316624 0.904178 -0.013107
C55   C     C_1   0.763197 0.376418 0.612264 -0.008223
C56   C     C_R   0.713671 0.407511 0.568359 0.554926
C57   C     C_R   0.742046 0.412106 0.728804 0.127303
C58   C     C_R   0.759971 0.392011 0.774549 0.143860
C59   C     C_R   0.929611 0.224707 0.758941 0.012754
C60   C     C_R   0.909459 0.243837 0.712783 0.087463
C61   C     C_R   0.816374 0.337654 0.697999 0.016467
C62   C     C_R   0.854041 0.299814 0.789682 0.004924
C63   C     C_1   0.877972 0.290245 0.837484 0.046384
C64   C     C_1   0.792611 0.356077 0.650822 -0.043229
C65   C     C_1   0.905399 0.281957 0.876927 0.048425
C66   C     C_1   0.375820 0.757218 0.613546 0.029705
C67   C     C_1   0.371071 0.369625 0.379333 -0.024092
C68   C     C_R   0.351949 0.725512 0.726005 0.038719
C69   C     C_R   0.345064 0.746264 0.772965 0.093566
C70   C     C_R   0.347075 0.919447 0.769501 0.007237
C71   C     C_R   0.352692 0.899127 0.722371 0.071989
C72   C     C_R   0.353975 0.803587 0.700852 0.024062
C73   C     C_R   0.340919 0.843374 0.794419 0.025826
C74   C     C_1   0.318742 0.870065 0.841254 0.036441
C75   C     C_1   0.365434 0.782577 0.653047 0.041894
C76   C     C_1   0.295483 0.900396 0.879481 0.050306
C77   C     C_R   0.947380 0.274199 0.047515 0.545498
C78   C     C_R   0.261808 0.449138 0.267874 0.008572
C79   C     C_R   0.276033 0.270971 0.065116 0.544118
C80   C     C_R   0.263160 0.949899 0.047725 0.591081
C81   C     C_R   0.951855 0.269215 0.922196 0.556382
C82   C     C_R   0.278181 0.269471 0.940963 0.570743
C83   C     C_R   0.261881 0.950222 0.923093 0.563810
C84   C     C_R   0.253474 0.442640 0.220229 0.143403
Cr1   Cr    Cr6+3 0.581000 0.584320 0.508140 1.023165
Cr2   Cr    Cr6+3 0.339110 0.576430 0.496080 1.066303
Cr3   Cr    Cr6+3 0.579910 0.339270 0.495810 1.072816
Cr4   Cr    Cr6+3 0.082090 0.079210 0.982490 1.078867
Cr5   Cr    Cr6+3 0.082460 0.324610 0.994920 1.064671
Cr6   Cr    Cr6+3 0.323630 0.087860 0.996130 1.071498
O1    O     O_R   0.688580 0.499770 0.460490 -0.548917
O2    O     O_R   0.348600 0.476260 0.536540 -0.463390
O3    O     O_R   0.494840 0.313840 0.539010 -0.476617
O4    O     O_R   0.672120 0.351750 0.545910 -0.484297
O5    O     O_3   0.500010 0.500010 0.500010 -0.262117
O6    O     O_R   0.167510 0.972920 0.030390 -0.474226
O7    O     O_R   0.990840 0.178580 0.027590 -0.527791
O8    O     O_R   0.972840 0.345510 0.038590 -0.461628
O9    O     O_R   0.181550 0.320660 0.045200 -0.499264
O10   O     O_R   0.346150 0.177650 0.050510 -0.522933
O11   O     O_R   0.314200 0.996600 0.036060 -0.483712
O12   O     O_R   0.480400 0.672610 0.462660 -0.474165
O13   O     O_R   0.168690 0.969990 0.933130 -0.488221
O14   O     O_R   0.991920 0.175870 0.937430 -0.480587
O15   O     O_R   0.974010 0.342590 0.941330 -0.493272
O16   O     O_R   0.182630 0.317940 0.955040 -0.501139
O17   O     O_R   0.347320 0.174720 0.953250 -0.464686
O18   O     O_R   0.315290 0.993890 0.945900 -0.481929
O19   O     O_3   0.162730 0.163890 0.991180 -0.267925
O20   O     O_R   0.315310 0.685650 0.451800 -0.529510
O21   O     O_R   0.346220 0.474990 0.446280 -0.484963
O22   O     O_R   0.492270 0.312460 0.441630 -0.518157
O23   O     O_R   0.669740 0.350480 0.455640 -0.461603
O24   O     O_R   0.691150 0.501150 0.557860 -0.499247
O25   O     O_R   0.482790 0.673890 0.552920 -0.499078
O26   O     O_R   0.317880 0.687030 0.549170 -0.496097
C85   C     C_2   0.180202 0.544404 0.294459 0.223589
H1    H     H_    0.202037 0.564877 0.328857 0.123885
O27   O     O_2   0.087014 0.599252 0.278994 -0.495567
C86   C     C_2   0.893431 0.096133 0.166049 0.290401
H2    H     H_    0.860057 0.098341 0.197001 0.080540
O28   O     O_2   0.951432 0.007603 0.147385 -0.429348
C87   C     C_2   0.841724 0.139239 0.067034 0.294187
H3    H     H_    0.840265 0.147233 0.031551 0.130863
O29   O     O_2   0.808597 0.079295 0.077158 -0.468522
C88   C     C_2   0.806695 0.142686 0.304700 0.189730
H4    H     H_    0.786471 0.148380 0.268860 0.114374
O30   O     O_2   0.827758 0.057848 0.320258 -0.490154
C89   C     C_2   0.180301 0.801412 0.071796 0.257957
H5    H     H_    0.108388 0.803435 0.082666 0.144580
O31   O     O_2   0.205638 0.765399 0.033501 -0.492817
C90   C     C_2   0.195460 0.776930 0.166457 0.219167
H6    H     H_    0.197768 0.702422 0.150172 0.103589
O32   O     O_2   0.135347 0.825531 0.196618 -0.506640
N1    N     N_2   0.158796 0.841550 0.302762 -0.458588
H7    H     H_    0.176242 0.787235 0.274851 0.295537
C91   C     C_3   0.082533 0.952889 0.293569 -0.199876
H8    H     H_    0.010271 0.955004 0.272948 0.212689
H9    H     H_    0.120106 0.987733 0.274610 0.141756
H10   H     H_    0.055351 0.003577 0.325503 0.169697
N2    N     N_2   0.166526 0.805414 0.390382 -0.465403
H11   H     H_    0.172788 0.730799 0.394569 0.280565
C92   C     C_3   0.107195 0.893477 0.422936 -0.228726
H12   H     H_    0.031676 0.891634 0.429066 0.182980
H13   H     H_    0.083752 0.973118 0.409907 0.167369
H14   H     H_    0.157326 0.885618 0.455250 0.144172
N3    N     N_2   0.512919 0.815213 0.421547 -0.522981
H15   H     H_    0.506853 0.891920 0.424641 0.243213
C93   C     C_3   0.623914 0.728151 0.422081 -0.221566
H16   H     H_    0.674781 0.750570 0.404637 0.162658
H17   H     H_    0.627808 0.650912 0.405865 0.180228
H18   H     H_    0.658002 0.714922 0.457456 0.173791
N4    N     N_2   0.463802 0.916822 0.193440 -0.490019
H19   H     H_    0.458820 0.990471 0.188629 0.272377
C94   C     C_3   0.573337 0.831783 0.202466 -0.274819
H20   H     H_    0.620521 0.808097 0.172393 0.138563
H21   H     H_    0.570447 0.760142 0.212414 0.133413
H22   H     H_    0.614891 0.860998 0.230339 0.197473
N5    N     N_2   0.479307 0.890866 0.096285 -0.498962
H23   H     H_    0.549570 0.817217 0.096690 0.260667
C95   C     C_3   0.496825 0.985094 0.104128 -0.247283
H24   H     H_    0.566072 0.969764 0.129631 0.133040
H25   H     H_    0.422263 0.058038 0.115423 0.153504
H26   H     H_    0.518404 0.000313 0.072431 0.195854
N6    N     N_2   0.172441 0.530909 0.195793 -0.494784
H27   H     H_    0.156606 0.608194 0.208768 0.296970
C96   C     C_3   0.078318 0.520439 0.175613 -0.260382
H28   H     H_    0.003990 0.584238 0.191280 0.171641
H29   H     H_    0.086390 0.439092 0.179708 0.146640
H30   H     H_    0.068708 0.532011 0.139170 0.148642
N7    N     N_2   0.515595 0.832770 0.327062 -0.487893
H31   H     H_    0.548433 0.873904 0.348900 0.268266
C97   C     C_3   0.597753 0.732060 0.306736 -0.291011
H32   H     H_    0.659150 0.747402 0.293518 0.158047
H33   H     H_    0.560267 0.698447 0.278863 0.135884
H34   H     H_    0.640367 0.669953 0.331579 0.154751
N8    N     N_2   0.131993 0.493491 0.910421 -0.478274
H35   H     H_    0.152590 0.490697 0.944527 0.265610
C98   C     C_3   0.084612 0.605176 0.898444 -0.257836
H36   H     H_    0.049160 0.662341 0.928122 0.149006
H37   H     H_    0.016612 0.622551 0.872204 0.193767
H38   H     H_    0.147371 0.621842 0.887183 0.149042
N9    N     N_2   0.116530 0.483300 0.812590 -0.522843
H39   H     H_    0.125110 0.517949 0.786107 0.238366
C99   C     C_3   0.043829 0.436297 0.801066 -0.278497
H40   H     H_    0.966878 0.496039 0.783958 0.146436
H41   H     H_    0.023580 0.415475 0.831856 0.183594
H42   H     H_    0.082150 0.361721 0.778028 0.144646
C100  C     C_2   0.134868 0.503414 0.672307 0.215405
H43   H     H_    0.132956 0.533630 0.707347 0.097945
O33   O     O_2   0.048480 0.530205 0.649761 -0.512848
C101  C     C_2   0.171852 0.510532 0.579094 0.320503
H44   H     H_    0.121467 0.593217 0.592566 0.151333
O34   O     O_2   0.153033 0.484045 0.540081 -0.497894
N10   N     N_2   0.533536 0.184417 0.598210 -0.492108
H45   H     H_    0.606861 0.165862 0.616320 0.237487
C102  C     C_3   0.521648 0.090480 0.579222 -0.279453
H46   H     H_    0.511113 0.049417 0.606113 0.148528
H47   H     H_    0.595630 0.031934 0.561916 0.149975
H48   H     H_    0.450181 0.115419 0.554170 0.163578
C103  C     C_2   0.512673 0.226999 0.816999 0.264144
H49   H     H_    0.521108 0.265787 0.789786 0.121483
O35   O     O_2   0.589155 0.140250 0.827294 -0.497148
C104  C     C_2   0.501799 0.186297 0.910920 0.313080
H50   H     H_    0.555612 0.104782 0.897525 0.184467
O36   O     O_2   0.523437 0.216550 0.948887 -0.493706
C105  C     C_2   0.504939 0.178707 0.690081 0.213771
H51   H     H_    0.590715 0.143572 0.684983 0.110861
O37   O     O_2   0.479042 0.141919 0.718359 -0.523745
N11   N     N_2   0.647305 0.506720 0.714040 -0.527621
H52   H     H_    0.605324 0.492308 0.685607 0.264533
C106  C     C_3   0.665382 0.598965 0.711236 -0.292731
H53   H     H_    0.721029 0.581377 0.684570 0.167987
H54   H     H_    0.701091 0.618691 0.743900 0.156171
H55   H     H_    0.586681 0.671134 0.702883 0.158410
N12   N     N_2   0.510561 0.188010 0.194767 -0.462010
H56   H     H_    0.485936 0.154863 0.166183 0.235647
C107  C     C_3   0.592022 0.217734 0.186614 -0.266773
H57   H     H_    0.660325 0.146394 0.170419 0.170162
H58   H     H_    0.624616 0.243491 0.218737 0.140305
H59   H     H_    0.556416 0.285258 0.163903 0.140943
N13   N     N_2   0.683705 0.465059 0.805818 -0.504909
H60   H     H_    0.646441 0.545935 0.799187 0.279704
C108  C     C_3   0.606575 0.431156 0.815626 -0.287459
H61   H     H_    0.552101 0.433011 0.785151 0.146890
H62   H     H_    0.556217 0.487321 0.842692 0.150487
H63   H     H_    0.649770 0.347697 0.827445 0.167359
C109  C     C_2   0.031508 0.127046 0.773870 0.223222
H64   H     H_    0.097731 0.084701 0.751947 0.130884
O38   O     O_2   0.042340 0.090686 0.810060 -0.512782
N14   N     N_2   0.983497 0.168228 0.681334 -0.557031
H65   H     H_    0.996244 0.203260 0.656027 0.264628
C110  C     C_3   0.962905 0.078037 0.664667 -0.307166
H66   H     H_    0.882790 0.107940 0.644884 0.154829
H67   H     H_    0.963557 0.033743 0.692963 0.168881
H68   H     H_    0.027680 0.020161 0.642612 0.145756
C111  C     C_2   0.359956 0.620001 0.704664 0.216805
H69   H     H_    0.385629 0.551831 0.724974 0.138597
O39   O     O_2   0.335874 0.608020 0.664697 -0.550666
N15   N     N_2   0.342227 0.668675 0.798615 -0.553126
H70   H     H_    0.382966 0.661094 0.830056 0.254268
C112  C     C_3   0.235406 0.677504 0.799550 -0.315955
H71   H     H_    0.180338 0.756372 0.817072 0.171540
H72   H     H_    0.242597 0.610160 0.817873 0.143504
H73   H     H_    0.199655 0.671110 0.764908 0.154400
C113  C     C_2   0.345254 0.021656 0.791758 0.248688
H74   H     H_    0.315948 0.092925 0.773008 0.128509
O40   O     O_2   0.379089 0.026942 0.830936 -0.497634
N16   N     N_2   0.365316 0.970215 0.696375 -0.528421
H75   H     H_    0.416855 0.999767 0.711424 0.303412
C114  C     C_3   0.265196 0.052256 0.675733 -0.292475
H76   H     H_    0.212844 0.110647 0.701826 0.142040
H77   H     H_    0.220094 0.013806 0.654710 0.162039
H78   H     H_    0.284469 0.097889 0.653799 0.166034
C115  C     C_2   0.525770 0.186796 0.291245 0.260941
H79   H     H_    0.546546 0.200927 0.326531 0.097796
O41   O     O_2   0.580121 0.096720 0.272851 -0.457698
C116  C     C_2   0.837494 0.493088 0.101063 0.253867
H80   H     H_    0.858390 0.550563 0.121510 0.084172
O42   O     O_2   0.788484 0.519044 0.064388 -0.477169
N17   N     N_2   0.840097 0.471389 0.195608 -0.522116
H81   H     H_    0.883562 0.511091 0.191688 0.235133
C117  C     C_3   0.728101 0.543764 0.204575 -0.319410
H82   H     H_    0.681738 0.585958 0.174020 0.147079
H83   H     H_    0.726086 0.604544 0.232224 0.129833
H84   H     H_    0.689488 0.498219 0.215362 0.159701
N18   N     N_2   0.902282 0.442878 0.322667 -0.448918
H85   H     H_    0.866086 0.471404 0.291750 0.272898
C118  C     C_3   0.020013 0.388360 0.324006 -0.238994
H86   H     H_    0.047441 0.441825 0.311658 0.188218
H87   H     H_    0.050044 0.311128 0.302209 0.130227
H88   H     H_    0.055691 0.370617 0.359020 0.171209
C119  C     C_2   0.858541 0.486411 0.416499 0.242330
H89   H     H_    0.869377 0.480502 0.452591 0.138430
O43   O     O_2   0.870174 0.557083 0.401716 -0.489238
C120  C     C_2   0.770040 0.178372 0.400616 0.324455
H90   H     H_    0.712414 0.151255 0.384862 0.139644
O44   O     O_2   0.820731 0.142001 0.435928 -0.506851

loop_
_geom_bond_atom_site_label_1
_geom_bond_atom_site_label_2
_ccdc_geom_bond_type
C58   C62   A    
C117  H84   S    
C55   C56   S    
Cr4   O6    S    
C2    N12   S    
C88   H4    S    
N10   C102  S    
C92   H14   S    
C60   N14   S    
N18   C118  S    
C73   C74   S    
Cr3   O3    S    
C116  O42   D    
C19   C20   A    
C54   C82   S    
N7    H31   S    
C45   O3    A    
C108  H61   S    
C34   C66   S    
C63   C65   T    
C95   H24   S    
C58   N13   S    
C87   H3    S    
C96   H29   S    
N6    H27   S    
C107  H59   S    
C97   H32   S    
C86   H2    S    
C56   O4    A    
N7    C97   S    
C106  H53   S    
N16   H75   S    
C33   C39   A    
C30   N2    S    
C83   O13   A    
Cr5   O9    S    
C18   C24   A    
C79   O9    A    
C28   C29   A    
N3    C93   S    
C37   C38   T    
N12   C107  S    
Cr6   O17   S    
C2    C3    A    
C68   C111  S    
C85   O27   D    
N5    H23   S    
C42   C105  S    
C5    C6    S    
C1    O20   A    
C99   H41   S    
C94   H21   S    
C66   C75   T    
C34   O26   A    
C92   H12   S    
Cr3   O4    S    
Cr5   O19   S    
C115  H79   S    
C118  H86   S    
C83   O18   A    
Cr2   O26   S    
C18   C19   A    
C41   C42   A    
C32   C39   A    
C15   C119  S    
C45   O2    A    
C109  H64   S    
C84   N6    S    
C87   O29   D    
C95   H25   S    
C57   N11   S    
N2    H11   S    
C43   C53   S    
N4    H19   S    
N3    H15   S    
C44   C46   A    
C16   C17   A    
N8    C98   S    
Cr3   O5    S    
Cr5   O16   S    
C8    C79   S    
C112  H72   S    
N5    C95   S    
C77   O7    A    
C70   C71   A    
C119  O43   D    
C101  H44   S    
C28   C38   S    
C80   O6    A    
C29   C30   A    
C110  H66   S    
Cr4   O7    S    
C68   C72   A    
C18   C87   S    
C98   H38   S    
C115  O41   D    
C49   C104  S    
C59   C60   A    
N6    C96   S    
N1    C91   S    
C111  H69   S    
C94   H22   S    
C1    C25   S    
C104  H50   S    
C103  O35   D    
C93   H17   S    
N13   H60   S    
C70   C73   A    
C4    C7    S    
C76   C83   S    
Cr6   O10   S    
C48   N8    S    
Cr4   O14   S    
C86   O28   D    
C119  H89   S    
C96   H30   S    
C113  O40   D    
Cr1   O5    S    
C97   H33   S    
Cr1   O1    S    
C40   C45   S    
C91   H10   S    
C81   O15   A    
N16   C114  S    
C112  H73   S    
C85   H1    S    
C105  H51   S    
C17   C24   A    
C79   O10   A    
N1    H7    S    
C11   C88   S    
N12   H56   S    
C114  H76   S    
C69   N15   S    
Cr2   O5    S    
C93   H18   S    
C32   C89   S    
C96   H28   S    
N17   C117  S    
C5    C84   A    
C68   C69   A    
C99   H42   S    
C47   C51   A    
C12   C67   S    
C34   O25   A    
Cr5   O8    S    
C118  H87   S    
C100  H43   S    
C116  H80   S    
C51   C52   S    
C60   C61   A    
C35   C36   A    
C101  O34   D    
C102  H48   S    
C48   C54   A    
C43   C44   A    
Cr6   O11   S    
C4    C78   A    
C31   C90   S    
C44   C100  S    
C23   O23   A    
N9    C99   S    
C91   H9    S    
C65   C81   S    
C47   C48   A    
N14   H65   S    
C106  H55   S    
Cr1   O25   S    
C16   C20   A    
C55   C64   T    
C78   C85   S    
C62   C63   S    
N15   C112  S    
C50   C51   A    
C26   C27   A    
C57   C58   A    
N9    H39   S    
C77   O8    A    
N14   C110  S    
C82   O17   A    
C120  H90   S    
C102  H47   S    
C69   C73   A    
C59   C109  S    
C110  H67   S    
C74   C76   T    
C70   C113  S    
C90   O32   D    
Cr4   O19   S    
C47   N9    S    
C40   C41   A    
C29   N1    S    
C120  O44   D    
C19   C86   S    
N8    H35   S    
N11   C106  S    
C111  O39   D    
C109  O38   D    
C49   C50   A    
C23   O1    A    
C2    C5    A    
N4    C94   S    
C42   C43   A    
C16   N17   S    
C3    C4    A    
C108  H63   S    
C27   N7    S    
C12   O22   A    
Cr4   O13   S    
C14   N18   S    
C95   H26   S    
C89   H5    S    
C9    C10   A    
C50   C103  S    
C25   C30   A    
C92   H13   S    
C113  H74   S    
Cr1   O24   S    
C59   C62   A    
C88   O30   D    
Cr2   O20   S    
N13   C108  S    
C31   C36   A    
C31   C32   A    
C9    C23   S    
C35   N4    S    
C46   C101  S    
C114  H78   S    
C108  H62   S    
C6    C8    T    
N18   H85   S    
C57   C61   A    
Cr3   O22   S    
C98   H36   S    
C91   H8    S    
C80   O11   A    
C99   H40   S    
C103  H49   S    
C107  H58   S    
C21   C22   T    
N2    C92   S    
Cr2   O21   S    
C25   C26   A    
Cr6   O18   S    
C71   C72   A    
C41   N10   S    
C117  H83   S    
C93   H16   S    
C39   C80   S    
C61   C64   S    
C104  O36   D    
C11   C13   A    
C33   C35   A    
C72   C75   S    
C107  H57   S    
N17   H81   S    
C94   H20   S    
C117  H82   S    
C40   C46   A    
C112  H71   S    
N15   H70   S    
C97   H34   S    
C13   C22   S    
C90   H6    S    
C102  H46   S    
C82   O16   A    
C9    C15   A    
C26   N3    S    
C110  H68   S    
C3    C115  S    
Cr3   O23   S    
C114  H77   S    
C10   C11   A    
C106  H54   S    
C7    C67   T    
N10   H45   S    
C10   C120  S    
C78   C84   A    
C24   C77   S    
C20   C21   S    
C36   C37   S    
N11   H52   S    
C118  H88   S    
Cr5   O15   S    
C27   C28   A    
C105  O37   D    
C56   O24   A    
C14   C15   A    
Cr2   O2    S    
Cr6   O19   S    
C98   H37   S    
C17   C116  S    
C13   C14   A    
C33   N5    S    
C1    O12   A    
C71   N16   S    
C12   O21   A    
Cr1   O12   S    
C49   C54   A    
C52   C53   T    
C100  O33   D    
C89   O31   D    
C81   O14   A    
