data_mof_unit_23260.cif
_audit_creation_date              2012-12-10T20:29:26-0500
_audit_creation_method            fapswitch 2.2
_symmetry_space_group_name_H-M    P1
_symmetry_Int_Tables_number       1
_space_group_crystal_system       triclinic
_cell_length_a                    18.624383
_cell_length_b                    18.592908
_cell_length_c                    18.841621
_cell_angle_alpha                 109.452416
_cell_angle_beta                  109.556984
_cell_angle_gamma                 109.016483
_cell_volume                      5046.36388094

loop_
_atom_site_label
_atom_site_type_symbol
_atom_type_description
_atom_site_fract_x
_atom_site_fract_y
_atom_site_fract_z
_atom_type_partial_charge
C1    C     C_R   0.380517 0.501141 0.380414 0.900436
C2    C     C_R   0.788637 0.181959 0.755877 -0.169147
C3    C     C_R   0.006366 0.740842 0.322893 -0.012731
C4    C     C_R   0.059278 0.849759 0.118420 -0.196895
C5    C     C_R   0.770362 0.751979 0.781558 -0.191891
C6    C     C_R   0.057922 0.862451 0.049004 -0.141996
C7    C     C_R   0.991146 0.798833 0.963834 0.180538
C8    C     C_R   0.925006 0.722571 0.948963 -0.152970
C9    C     C_R   0.926057 0.709901 0.018314 -0.156540
C10   C     C_R   0.993856 0.772946 0.103509 0.131808
C11   C     C_R   0.290118 0.243702 0.822445 0.285476
C12   C     C_R   0.213658 0.243822 0.819213 -0.211756
C13   C     C_R   0.708203 0.174629 0.745698 -0.163535
C14   C     C_R   0.167598 0.268540 0.765006 0.094451
C15   C     C_R   0.199157 0.294596 0.714854 -0.150401
C16   C     C_R   0.276107 0.296183 0.719223 -0.172017
C17   C     C_3   0.204023 0.684887 0.301946 -0.783110
C18   C     C_3   0.694142 0.951578 0.854807 -0.824025
C19   C     C_3   0.023687 0.239613 0.202993 -0.820427
C20   C     C_3   0.320733 0.520490 0.757408 -0.839547
C21   C     C_3   0.068613 0.484927 0.354022 -0.826285
C22   C     C_3   0.344717 0.143351 0.832245 -0.799854
C23   C     C_3   0.587653 0.244481 0.776476 -0.815907
C24   C     C_R   0.672855 0.217585 0.708155 0.318693
C25   C     C_R   0.820928 0.824399 0.576904 -0.252983
C26   C     C_R   0.718177 0.265897 0.678827 -0.196519
C27   C     C_R   0.798711 0.273485 0.689382 -0.215021
C28   C     C_R   0.834701 0.232366 0.728730 0.140174
C29   C     C_R   0.813355 0.811241 0.496886 -0.070691
C30   C     C_R   0.740995 0.737799 0.418449 0.000923
C31   C     C_R   0.680694 0.674816 0.422997 -0.259198
C32   C     C_R   0.770256 0.828420 0.827392 -0.139215
C33   C     C_R   0.688806 0.687223 0.503102 -0.076986
C34   C     C_R   0.757494 0.764272 0.581109 0.013037
C35   C     C_R   0.646232 0.710112 0.271037 -0.202440
C36   C     C_R   0.629840 0.693630 0.187610 -0.143451
C37   C     C_R   0.692225 0.690177 0.162854 0.184579
C38   C     C_R   0.621733 0.620444 0.501788 0.865352
C39   C     C_R   0.771410 0.703474 0.222761 -0.157422
C40   C     C_R   0.788154 0.721036 0.306507 -0.149792
C41   C     C_R   0.725754 0.724201 0.331298 0.134957
C42   C     C_R   0.472953 0.793768 0.541135 -0.146120
C43   C     C_R   0.321549 0.271206 0.772752 -0.120920
C44   C     C_R   0.398316 0.715550 0.471736 -0.099396
C45   C     C_R   0.399963 0.668236 0.397169 0.131715
C46   C     C_R   0.477108 0.699909 0.393031 -0.184915
C47   C     C_R   0.551469 0.778380 0.462413 -0.123941
C48   C     C_R   0.549452 0.825174 0.536477 -0.087592
C49   C     C_R   0.255366 0.582511 0.260335 0.159235
C50   C     C_R   0.622336 0.501672 0.619509 0.859959
C51   C     C_R   0.186284 0.501049 0.187673 -0.117115
C52   C     C_R   0.181527 0.421214 0.179178 -0.051724
C53   C     C_R   0.246048 0.423285 0.244222 -0.229966
C54   C     C_R   0.081636 0.325234 0.819990 0.036085
C55   C     C_R   0.315359 0.503337 0.315554 -0.106028
C56   C     C_R   0.322009 0.583762 0.324206 -0.083824
C57   C     C_R   0.039238 0.276619 0.095284 0.276740
C58   C     C_R   0.977017 0.197366 0.017214 -0.143544
C59   C     C_R   0.989926 0.175328 0.945839 -0.164412
C60   C     C_R   0.064868 0.232025 0.951372 -0.137109
C61   C     C_R   0.126430 0.311755 0.027717 -0.192198
C62   C     C_R   0.378438 0.379970 0.498697 0.876617
C63   C     C_R   0.114045 0.335420 0.099760 0.063372
C64   C     C_R   0.261252 0.548607 0.610004 -0.209508
C65   C     C_R   0.000484 0.314345 0.812902 -0.084608
C66   C     C_R   0.266645 0.472300 0.600536 0.291885
C67   C     C_R   0.235298 0.404963 0.516332 0.008532
C68   C     C_R   0.199051 0.414762 0.444015 -0.220806
C69   C     C_R   0.193678 0.490749 0.454512 0.299231
C70   C     C_R   0.225797 0.557807 0.537798 -0.244337
C71   C     C_R   0.177563 0.257418 0.501388 -0.234853
C72   C     C_R   0.185655 0.184105 0.497188 -0.083240
C73   C     C_R   0.257015 0.175569 0.494170 -0.012861
C74   C     C_R   0.766511 0.884702 0.793413 0.283828
C75   C     C_R   0.318836 0.240659 0.493237 -0.254101
C76   C     C_R   0.920713 0.242144 0.741185 -0.033723
C77   C     C_R   0.311185 0.314095 0.497907 -0.092102
C78   C     C_R   0.241282 0.324241 0.503852 0.010342
C79   C     C_R   0.337434 0.111007 0.561990 -0.135848
C80   C     C_R   0.350500 0.040201 0.558188 -0.134375
C81   C     C_R   0.295466 0.958043 0.483136 -0.136547
C82   C     C_R   0.226983 0.946481 0.412014 -0.133001
C83   C     C_R   0.213088 0.016927 0.415890 -0.137619
C84   C     C_R   0.268485 0.099680 0.490910 0.136428
C85   C     C_R   0.780406 0.517395 0.611248 -0.192470
C86   C     C_R   0.763867 0.863587 0.713418 -0.243118
C87   C     C_R   0.922613 0.180484 0.677237 -0.262146
C88   C     C_R   0.852197 0.516550 0.603985 -0.135152
C89   C     C_R   0.909792 0.503417 0.660746 -0.145991
C90   C     C_R   0.897375 0.493812 0.726679 -0.185203
C91   C     C_R   0.826686 0.497711 0.737244 0.092141
C92   C     C_R   0.765396 0.505668 0.676509 0.082680
C93   C     C_R   0.691467 0.502772 0.683814 -0.118031
C94   C     C_R   0.679789 0.495202 0.750742 -0.230211
C95   C     C_R   0.740817 0.489967 0.811411 -0.235470
C96   C     C_R   0.814362 0.492557 0.805950 -0.108353
C97   C     C_R   0.999614 0.878532 0.380505 0.874668
C98   C     C_R   0.002500 0.189234 0.685300 -0.100153
C99   C     C_R   0.763276 0.786391 0.666819 0.114892
C100  C     C_R   0.879778 0.878110 0.498053 0.869182
C101  C     C_R   0.000586 0.120965 0.619688 0.892256
C102  C     C_R   0.120089 0.119051 0.498852 0.881694
C103  C     C_R   0.999917 0.379817 0.879630 0.906473
C104  C     C_R   0.120128 0.499839 0.120043 0.918570
C105  C     C_R   0.998034 0.620176 0.118024 0.875250
C106  C     C_R   0.880025 0.496543 0.876537 0.866198
C107  C     C_R   0.108410 0.767013 0.547153 -0.160450
C108  C     C_R   0.097319 0.781324 0.476857 -0.087064
C109  C     C_R   0.082856 0.260968 0.756487 -0.039943
C110  C     C_R   0.016626 0.729226 0.399172 0.118039
C111  C     C_R   0.767997 0.731508 0.702167 -0.114718
C112  C     C_R   0.948985 0.659478 0.391388 -0.193486
C113  C     C_R   0.960163 0.645477 0.461859 -0.127818
C114  C     C_R   0.039703 0.699452 0.539830 -0.112242
C115  C     C_R   0.000323 0.676413 0.254116 -0.257443
C116  C     C_R   0.996887 0.686179 0.183053 -0.080657
C117  C     C_R   0.996391 0.759691 0.177528 0.001586
C118  C     C_R   0.997294 0.821872 0.244031 -0.278373
C119  C     C_R   0.002043 0.812893 0.315954 -0.090402
H1    H     H_    0.773877 0.844023 0.889622 0.136144
H2    H     H_    0.918091 0.152733 0.011472 0.148849
H3    H     H_    0.941945 0.114044 0.886204 0.132586
H4    H     H_    0.074995 0.214106 0.896229 0.141334
H5    H     H_    0.184432 0.355181 0.031333 0.135949
H6    H     H_    0.222853 0.617189 0.546563 0.140589
H7    H     H_    0.285618 0.602262 0.673100 0.151586
H8    H     H_    0.175839 0.363723 0.379749 0.147124
H9    H     H_    0.760702 0.906530 0.686644 0.115650
H10   H     H_    0.123174 0.263873 0.505874 0.151436
H11   H     H_    0.374022 0.234789 0.490322 0.159048
H12   H     H_    0.819878 0.699950 0.204486 0.145012
H13   H     H_    0.380820 0.174582 0.620149 0.117197
H14   H     H_    0.403593 0.049159 0.613212 0.145166
H15   H     H_    0.305919 0.903353 0.480004 0.124563
H16   H     H_    0.184972 0.882979 0.353805 0.142603
H17   H     H_    0.160159 0.007432 0.360277 0.106967
H18   H     H_    0.622604 0.492427 0.755477 0.160709
H19   H     H_    0.737908 0.528399 0.565909 0.148652
H20   H     H_    0.862694 0.525307 0.553611 0.128809
H21   H     H_    0.769165 0.672744 0.667921 0.102732
H22   H     H_    0.964439 0.500836 0.653810 0.135199
H23   H     H_    0.849474 0.731856 0.352113 0.117116
H24   H     H_    0.942649 0.481463 0.767603 0.153528
H25   H     H_    0.731749 0.486193 0.864234 0.159038
H26   H     H_    0.048393 0.688317 0.594226 0.125639
H27   H     H_    0.170481 0.807929 0.607104 0.119728
H28   H     H_    0.151612 0.832693 0.482808 0.135745
H29   H     H_    0.887653 0.616004 0.330739 0.136365
H30   H     H_    0.907400 0.592346 0.455783 0.127038
H31   H     H_    0.001749 0.619707 0.257503 0.155184
H32   H     H_    0.994908 0.878032 0.240069 0.159114
H33   H     H_    0.772356 0.708540 0.807670 0.147945
H34   H     H_    0.607155 0.885684 0.590286 0.117925
H35   H     H_    0.111933 0.899341 0.183761 0.134199
H36   H     H_    0.109258 0.921613 0.061412 0.139209
H37   H     H_    0.872827 0.672988 0.883754 0.134598
H38   H     H_    0.874218 0.650901 0.005612 0.109397
H39   H     H_    0.381290 0.273540 0.775471 0.123218
H40   H     H_    0.188659 0.222327 0.856962 0.111278
H41   H     H_    0.163811 0.312853 0.672003 0.140160
H42   H     H_    0.300397 0.315770 0.680380 0.158494
H43   H     H_    0.875252 0.883346 0.636256 0.151801
H44   H     H_    0.861573 0.124599 0.621561 0.161027
H45   H     H_    0.471606 0.829871 0.598688 0.115315
H46   H     H_    0.815375 0.149046 0.785488 0.127833
H47   H     H_    0.673285 0.134980 0.766524 0.129506
H48   H     H_    0.691537 0.298434 0.648583 0.146325
H49   H     H_    0.833045 0.311232 0.666797 0.146204
H50   H     H_    0.625571 0.616723 0.363461 0.160647
H51   H     H_    0.596964 0.712039 0.288750 0.129045
H52   H     H_    0.568299 0.683048 0.141958 0.137091
H53   H     H_    0.670184 0.724952 0.070608 0.175780
H54   H     H_    0.725595 0.669775 0.067691 0.175104
H55   H     H_    0.318547 0.714698 0.295759 0.233620
H56   H     H_    0.339971 0.691289 0.476733 0.102969
H57   H     H_    0.233173 0.704499 0.371745 0.218339
H58   H     H_    0.136788 0.628494 0.266081 0.232304
H59   H     H_    0.200010 0.740543 0.294729 0.242279
H60   H     H_    0.780926 0.007497 0.818339 0.206043
H61   H     H_    0.701732 0.016600 0.892297 0.237387
H62   H     H_    0.691035 0.917249 0.892819 0.245299
H63   H     H_    0.632069 0.913495 0.791750 0.238447
H64   H     H_    0.060294 0.362443 0.213948 0.264934
H65   H     H_    0.087871 0.241455 0.226724 0.236843
H66   H     H_    0.970814 0.171322 0.153695 0.248833
H67   H     H_    0.479597 0.663667 0.336292 0.117624
H68   H     H_    0.011512 0.261073 0.258204 0.245677
H69   H     H_    0.354919 0.447499 0.676701 0.230816
H70   H     H_    0.374164 0.587699 0.784894 0.238981
H71   H     H_    0.340497 0.496002 0.802820 0.252466
H72   H     H_    0.259589 0.521390 0.751104 0.247687
H73   H     H_    0.196760 0.559073 0.388802 0.228677
H74   H     H_    0.043441 0.489720 0.294322 0.242716
H75   H     H_    0.067057 0.534806 0.405408 0.248883
H76   H     H_    0.025224 0.418347 0.339502 0.256375
H77   H     H_    0.978396 0.863277 0.897296 0.185395
H78   H     H_    0.610781 0.802741 0.458954 0.140196
H79   H     H_    0.941974 0.756616 0.834011 0.187451
H80   H     H_    0.316057 0.212032 0.920573 0.218581
H81   H     H_    0.380860 0.128139 0.880082 0.237614
H82   H     H_    0.382277 0.158321 0.799266 0.238234
H83   H     H_    0.279073 0.084842 0.783849 0.235551
H84   H     H_    0.201927 0.381810 0.924589 0.170766
H85   H     H_    0.194365 0.434787 0.867132 0.195360
H86   H     H_    0.562920 0.229496 0.655184 0.220614
H87   H     H_    0.521017 0.234753 0.760818 0.226063
H88   H     H_    0.635419 0.315774 0.818054 0.253055
H89   H     H_    0.242922 0.362204 0.238690 0.159438
H90   H     H_    0.602250 0.209910 0.812599 0.242166
N1    N     N_3   0.673746 0.672137 0.076618 -0.470346
N2    N     N_2   0.590664 0.209854 0.697064 -0.323242
N3    N     N_2   0.257234 0.662204 0.267812 -0.286639
N4    N     N_2   0.767670 0.963448 0.840280 -0.321646
N5    N     N_2   0.024286 0.297376 0.167053 -0.315934
N6    N     N_2   0.305982 0.462873 0.673911 -0.315469
N7    N     N_2   0.157098 0.500196 0.381172 -0.315761
N8    N     N_3   0.992055 0.812262 0.893389 -0.465713
N9    N     N_2   0.335809 0.217375 0.876654 -0.314871
N10   N     N_3   0.162100 0.401566 0.891754 -0.438656
O1    O     O_R   0.408360 0.551710 0.460090 -0.610396
O2    O     O_R   0.948270 0.356620 0.908410 -0.612871
O3    O     O_R   0.143330 0.551680 0.091590 -0.594831
O4    O     O_R   0.408390 0.448280 0.356670 -0.628731
O5    O     O_R   0.039890 0.448260 0.091620 -0.632771
O6    O     O_R   0.051700 0.643310 0.091570 -0.599539
O7    O     O_R   0.948260 0.539890 0.091600 -0.632833
O8    O     O_R   0.960080 0.551670 0.908360 -0.626154
O9    O     O_R   0.856640 0.448250 0.908390 -0.618349
O10   O     O_R   0.591600 0.643340 0.551710 -0.597239
O11   O     O_R   0.591630 0.539900 0.448290 -0.635530
O12   O     O_R   0.948280 0.908380 0.356650 -0.620965
O13   O     O_R   0.591610 0.551720 0.643330 -0.619005
O14   O     O_R   0.591640 0.448290 0.539910 -0.626205
O15   O     O_R   0.408370 0.460100 0.551710 -0.627613
O16   O     O_R   0.408400 0.356660 0.448290 -0.621386
O17   O     O_R   0.051730 0.908360 0.460070 -0.619025
O18   O     O_R   0.960110 0.908350 0.551690 -0.618984
O19   O     O_R   0.856660 0.908370 0.448270 -0.617029
O20   O     O_R   0.051720 0.091580 0.643310 -0.614407
O21   O     O_R   0.948270 0.091600 0.539890 -0.627424
O22   O     O_R   0.143340 0.091590 0.551680 -0.603726
O23   O     O_R   0.039890 0.091610 0.448270 -0.629163
O24   O     O_R   0.051710 0.460040 0.908380 -0.619583
Zn1   Zn    Zn3+2 0.499980 0.569070 0.569050 0.970852
Zn2   Zn    Zn3+2 0.500020 0.430930 0.430950 0.942997
Zn3   Zn    Zn3+2 0.069080 0.999960 0.569030 0.965249
Zn4   Zn    Zn3+2 0.930920 0.999990 0.430930 0.953317
Zn5   Zn    Zn3+2 0.069060 0.569020 0.999970 0.975607
Zn6   Zn    Zn3+2 0.930920 0.430910 0.000010 0.957795

loop_
_geom_bond_atom_site_label_1
_geom_bond_atom_site_label_2
_ccdc_geom_bond_type
C17   H59   S    
C14   C109  S    
C87   H44   S    
C48   H34   S    
C93   C94   A    
C62   O15   A    
C40   H23   S    
C101  O20   A    
C2    C28   A    
C62   C77   S    
C4    H35   S    
C95   C96   A    
C44   H56   S    
C55   C56   A    
C43   H39   S    
C20   H72   S    
C81   C82   A    
C57   C58   A    
C7    C8    A    
C38   O11   A    
C54   C65   A    
C97   O12   A    
C45   C46   A    
O4    Zn2   S    
O1    Zn1   S    
C26   C27   A    
C65   C76   A    
C72   C102  S    
C85   C92   A    
C61   H5    S    
H55   N3    S    
C22   H81   S    
C36   C37   A    
C88   H20   S    
C24   C26   A    
C5    H33   S    
H53   N1    S    
C106  O8    A    
C32   C74   A    
C79   C84   A    
C35   H51   S    
C42   H45   S    
C39   H12   S    
H86   N2    S    
C3    C110  S    
C115  C116  A    
C66   N6    S    
C53   H89   S    
C116  C117  A    
C115  H31   S    
C82   H16   S    
C61   C63   A    
C2    C13   A    
C118  C119  A    
C105  C116  S    
H79   N8    S    
C19   H68   S    
O8    Zn5   S    
O3    Zn5   S    
C24   N2    S    
H54   N1    S    
C45   C56   S    
C108  C110  A    
C68   C69   A    
C49   C51   A    
O19   Zn4   S    
O21   Zn4   S    
C103  O24   A    
C107  C108  A    
C31   C33   A    
C30   C41   S    
C50   O13   A    
C102  O23   A    
C64   C70   A    
C21   H75   S    
C9    C10   A    
C73   C84   S    
C6    H36   S    
C29   C100  S    
C17   H57   S    
C27   H49   S    
C72   C73   A    
C108  H28   S    
C17   N3    S    
O6    Zn5   S    
C66   C67   A    
C91   C96   A    
C18   H61   S    
C59   C60   A    
C98   C109  A    
C101  O21   A    
C73   C75   A    
C118  H32   S    
C67   C78   S    
C42   C44   A    
C32   H1    S    
C8    H37   S    
O9    Zn6   S    
C104  O3    A    
C112  C113  A    
H69   N6    S    
C111  H21   S    
H77   N8    S    
C38   O10   A    
C53   C55   A    
C25   C29   A    
C26   H48   S    
C22   H83   S    
H85   N10   S    
C86   H9    S    
C51   C52   A    
C20   N6    S    
O17   Zn3   S    
C54   N10   S    
C114  H26   S    
C4    C6    A    
C91   C92   A    
C107  H27   S    
C8    C9    A    
C31   H50   S    
C18   H62   S    
C51   C104  S    
C77   C78   A    
C97   O17   A    
C100  O19   A    
C74   C86   A    
C80   H14   S    
C67   C68   A    
C13   C24   A    
C60   C61   A    
C35   C36   A    
C64   C66   A    
C97   C119  S    
C50   O14   A    
C5    C111  A    
C20   H70   S    
C107  C114  A    
C29   C30   A    
C113  H30   S    
C57   N5    S    
C71   H10   S    
O22   Zn3   S    
C47   C48   A    
C16   C43   A    
C9    H38   S    
C25   H43   S    
C99   C111  A    
H60   N4    S    
C34   C99   S    
C21   N7    S    
C100  O18   A    
C102  O22   A    
C42   C48   A    
C105  O7    A    
C21   H76   S    
C11   C43   A    
C86   C99   A    
C75   C77   A    
C2    H46   S    
C83   H17   S    
O11   Zn2   S    
C3    C119  A    
O5    Zn6   S    
C69   N7    S    
C70   H6    S    
C40   C41   A    
O7    Zn6   S    
O2    Zn6   S    
C82   C83   A    
C94   C95   A    
C105  O6    A    
O20   Zn3   S    
C74   N4    S    
C106  O9    A    
C83   C84   A    
C18   N4    S    
C65   C103  S    
C4    C10   A    
C28   C76   S    
C49   C56   A    
C39   C40   A    
C52   C53   A    
C15   H41   S    
C113  C114  A    
C85   C88   A    
C17   H58   S    
O10   Zn1   S    
C96   C106  S    
C46   C47   A    
C58   H2    S    
C62   O16   A    
C22   H82   S    
C23   H88   S    
O13   Zn1   S    
C87   C98   A    
O12   Zn4   S    
C44   C45   A    
C90   H24   S    
C57   C63   A    
C12   C14   A    
C80   C81   A    
C52   C63   S    
C19   H65   S    
C76   C87   A    
C11   C12   A    
C75   H11   S    
C50   C93   S    
C6    C7    A    
C54   C109  A    
C16   H42   S    
C98   C101  S    
C23   H90   S    
C25   C34   A    
C64   H7    S    
O23   Zn4   S    
H84   N10   S    
C1    O4    A    
C19   N5    S    
C5    C32   A    
H73   N7    S    
C58   C59   A    
C71   C72   A    
C23   H87   S    
C10   C117  S    
H80   N9    S    
C117  C118  A    
C19   H66   S    
C20   H71   S    
C36   H52   S    
O14   Zn2   S    
C90   C91   A    
C30   C31   A    
C23   N2    S    
C59   H3    S    
C89   H22   S    
C79   H13   S    
C49   N3    S    
C92   C93   A    
C33   C34   A    
O18   Zn3   S    
C1    C55   S    
C1    O1    A    
C12   H40   S    
C22   N9    S    
C69   C70   A    
C35   C41   A    
C110  C112  A    
C37   N1    S    
C68   H8    S    
C79   C80   A    
C7    N8    S    
C112  H29   S    
H64   N5    S    
C95   H25   S    
C60   H4    S    
C104  O5    A    
C88   C89   A    
C46   H67   S    
C37   C39   A    
O24   Zn5   S    
C27   C28   A    
C94   H18   S    
C18   H63   S    
C14   C15   A    
C47   H78   S    
C33   C38   S    
C3    C115  A    
C21   H74   S    
C89   C90   A    
C11   N9    S    
C85   H19   S    
O16   Zn2   S    
C71   C78   A    
C103  O2    A    
C13   H47   S    
C15   C16   A    
O15   Zn1   S    
C81   H15   S    
