data_mof_unit_17404.cif
_audit_creation_date              2012-12-11T16:34:28-0500
_audit_creation_method            fapswitch 2.2
_symmetry_space_group_name_H-M    P1
_symmetry_Int_Tables_number       1
_space_group_crystal_system       triclinic
_cell_length_a                    8.279029
_cell_length_b                    17.371657
_cell_length_c                    26.878204
_cell_angle_alpha                 94.822169
_cell_angle_beta                  92.407914
_cell_angle_gamma                 83.957868
_cell_volume                      3828.4081329

loop_
_atom_site_label
_atom_site_type_symbol
_atom_type_description
_atom_site_fract_x
_atom_site_fract_y
_atom_site_fract_z
_atom_type_partial_charge
Ba1   Ba    Ba6+2 0.856110 0.463800 0.523550 1.780981
Ba2   Ba    Ba6+2 0.333710 0.536130 0.476450 1.760047
C1    C     C_3   0.768109 0.194640 0.668079 -0.287020
C2    C     C_R   0.843812 0.557209 0.174206 0.674941
C3    C     C_2   0.716026 0.504787 0.270085 -0.000018
C4    C     C_3   0.260317 0.234985 0.648220 0.794430
C5    C     C_3   0.675205 0.501094 0.324573 0.089167
C6    C     C_1   0.969920 0.481001 0.342312 -0.064565
C7    C     C_2   0.005421 0.488500 0.295322 -0.106358
C8    C     C_2   0.872708 0.498222 0.255672 0.247621
C9    C     C_R   0.998942 0.500388 0.102085 -0.081002
C10   C     C_R   0.066281 0.440799 0.131388 -0.031159
C11   C     C_R   0.177882 0.382498 0.110044 -0.037659
C12   C     C_3   0.711873 0.266993 0.641456 0.380350
C13   C     C_R   0.886200 0.558743 0.123696 -0.045828
C14   C     C_2   0.823959 0.504666 0.358927 -0.265532
C15   C     C_2   0.350936 0.482441 0.641589 -0.275592
C16   C     C_3   0.342832 0.151669 0.647932 -0.239521
C17   C     C_R   0.204535 0.443215 0.979466 0.021870
C18   C     C_R   0.017183 0.561869 0.970732 0.018239
C19   C     C_R   0.132845 0.502810 0.949893 0.057842
C20   C     C_R   0.320877 0.386656 0.957064 -0.094286
C21   C     C_R   0.363204 0.387861 0.907619 -0.044328
C22   C     C_R   0.292458 0.445572 0.877866 -0.045553
C23   C     C_3   0.578740 0.673832 0.633265 0.194752
C24   C     C_R   0.177587 0.503324 0.898882 -0.079444
C25   C     C_R   0.108272 0.561740 0.868949 -0.045996
C26   C     C_R   0.154366 0.561605 0.818642 0.644286
C27   C     C_R   0.334655 0.446070 0.827417 0.637314
C28   C     C_3   0.055926 0.294003 0.356808 0.631702
C29   C     C_2   0.460254 0.487426 0.729518 0.086722
C30   C     C_3   0.499951 0.491118 0.674886 -0.012941
C31   C     C_1   0.210236 0.515148 0.657429 0.042667
C32   C     C_2   0.172546 0.515835 0.705039 -0.018084
C33   C     C_2   0.303997 0.501383 0.744708 0.248725
C34   C     C_3   0.665953 0.712498 0.678747 0.239985
C35   C     C_R   0.158573 0.442003 0.030119 0.020378
C36   C     C_R   0.043797 0.501323 0.051123 0.057575
C37   C     C_R   0.973262 0.561437 0.021765 0.019904
C38   C     C_R   0.223064 0.382969 0.060806 -0.097101
C39   C     C_R   0.818572 0.617814 0.094448 -0.016202
C40   C     C_3   0.108286 0.290708 0.302771 -0.219359
C41   C     C_R   0.949480 0.619492 0.939402 -0.093716
C42   C     C_R   0.994246 0.619386 0.889928 -0.019003
C43   C     C_R   0.860652 0.619237 0.044842 -0.089979
C44   C     C_R   0.391556 0.273901 0.511575 -0.260738
C45   C     C_3   0.024184 0.810513 0.350467 0.236119
C46   C     C_R   0.541461 0.251776 0.490486 -0.018811
C47   C     C_R   0.604119 0.173757 0.488061 -0.216915
C48   C     C_R   0.508197 0.116601 0.500200 -0.069386
C49   C     C_R   0.350598 0.138285 0.519421 0.377637
C50   C     C_R   0.297324 0.219116 0.527727 -0.045336
C51   C     C_R   0.584812 0.833202 0.498495 -0.088406
C52   C     C_3   0.995633 0.698011 0.577612 0.290509
C53   C     C_R   0.637746 0.753830 0.495749 0.034462
C54   C     C_R   0.878122 0.777764 0.452890 -0.018622
C55   C     C_R   0.826539 0.857925 0.456494 -0.149712
C56   C     C_3   0.046767 0.815570 0.294780 0.350305
C57   C     C_R   0.677889 0.885583 0.478605 -0.014651
C58   C     C_1   0.624312 0.967846 0.484688 0.070803
C59   C     C_1   0.573422 0.035793 0.491322 0.127710
C60   C     C_R   0.780789 0.726405 0.471603 -0.272504
C61   C     C_3   0.983936 0.785926 0.587722 -0.351789
C62   C     C_3   0.561151 0.274956 0.369812 0.663044
C63   C     C_3   0.626578 0.188869 0.371512 -0.312888
C64   C     C_3   0.566455 0.725483 0.357279 0.396642
C65   C     C_3   0.560725 0.803207 0.334802 -0.293776
C66   C     C_R   0.020481 0.440106 0.181473 0.611339
H1    H     H_    0.817625 0.282554 0.622039 0.108128
H2    H     H_    0.877688 0.204662 0.691797 0.199934
H3    H     H_    0.742541 0.183545 0.393011 0.162098
H4    H     H_    0.644822 0.157565 0.334011 0.178187
H5    H     H_    0.615153 0.253711 0.613125 -0.056969
H6    H     H_    0.798210 0.144757 0.640258 0.089229
H7    H     H_    0.652014 0.619941 0.619509 0.042326
H8    H     H_    0.612257 0.773665 0.685693 0.059144
H9    H     H_    0.796131 0.713287 0.671026 0.066157
H10   H     H_    0.421884 0.142991 0.681688 0.113236
H11   H     H_    0.894787 0.802826 0.355446 -0.039534
H12   H     H_    0.217731 0.249346 0.297032 0.214766
H13   H     H_    0.054074 0.866018 0.370638 -0.008121
H14   H     H_    0.689889 0.711015 0.373753 -0.078609
H15   H     H_    0.592753 0.848656 0.364030 0.043567
H16   H     H_    0.436631 0.819959 0.319676 0.125086
H17   H     H_    0.647385 0.799571 0.304074 0.171006
H18   H     H_    0.130988 0.486173 0.285002 0.163279
H19   H     H_    0.231716 0.335680 0.131529 0.143994
H20   H     H_    0.560122 0.480283 0.756723 0.141151
H21   H     H_    0.452709 0.342728 0.892697 0.136286
H22   H     H_    0.383279 0.340175 0.976632 0.076744
H23   H     H_    0.010940 0.270776 0.276709 0.149855
H24   H     H_    0.617004 0.508678 0.242340 0.109240
H25   H     H_    0.731865 0.663786 0.109905 0.142771
H26   H     H_    0.860397 0.666003 0.951767 0.084264
H27   H     H_    0.340693 0.273334 0.632207 -0.189509
H28   H     H_    0.937975 0.665086 0.867947 0.166328
H29   H     H_    0.046451 0.524194 0.715222 0.169631
H30   H     H_    0.809079 0.527011 0.397609 0.066964
H31   H     H_    0.358456 0.448407 0.605784 0.064392
H32   H     H_    0.476105 0.854540 0.518521 0.143169
H33   H     H_    0.902894 0.898535 0.443622 0.103606
H34   H     H_    0.137397 0.347666 0.293029 0.116405
H35   H     H_    0.724421 0.156845 0.474044 0.148175
H36   H     H_    0.347302 0.334910 0.515217 0.077577
H37   H     H_    0.822649 0.665204 0.470873 0.054995
H38   H     H_    0.420938 0.138096 0.615350 0.018471
H39   H     H_    0.928426 0.319447 0.359903 0.027280
H40   H     H_    0.900285 0.805139 0.618579 0.117959
H41   H     H_    0.589052 0.205096 0.249434 0.362757
H42   H     H_    0.542718 0.157384 0.391191 0.078509
H43   H     H_    0.457457 0.659476 0.643544 0.037568
H44   H     H_    0.402933 0.713357 0.746933 0.346422
H45   H     H_    0.873648 0.680044 0.567965 -0.027696
H46   H     H_    0.672599 0.180713 0.692462 0.133139
H47   H     H_    0.933181 0.655680 0.313225 0.315160
H48   H     H_    0.953950 0.860394 0.280890 -0.008403
H49   H     H_    0.168470 0.833565 0.288653 0.020254
H50   H     H_    0.474021 0.731906 0.386623 0.064268
H51   H     H_    0.132486 0.232354 0.776847 0.371960
H52   H     H_    0.308800 0.335289 0.048056 0.078770
H53   H     H_    0.802211 0.667152 0.025724 0.079990
H54   H     H_    0.996697 0.047816 0.561013 0.353705
H55   H     H_    0.250704 0.109498 0.647152 0.179601
H56   H     H_    0.076070 0.681111 0.545723 0.080502
H57   H     H_    0.263683 0.104048 0.383298 0.373321
H58   H     H_    0.937255 0.814533 0.554007 0.070915
H59   H     H_    0.106063 0.804422 0.598188 0.148942
H60   H     H_    0.437006 0.284259 0.384347 0.026672
N1    N     N_R   0.912245 0.498605 0.202981 -0.429544
N2    N     N_R   0.264359 0.503095 0.797689 -0.429467
O1    O     O_2   0.910880 0.540430 0.617910 -0.474819
O2    O     O_2   0.218064 0.771521 0.461818 -0.478612
O3    O     O_3   0.126652 0.748132 0.367934 -0.570777
O4    O     O_3   0.142880 0.540370 0.557740 -0.492976
O5    O     O_3   0.562610 0.408580 0.475460 -0.465768
O6    O     O_2   0.365880 0.685750 0.523280 -0.448334
O7    O     O_3   0.557035 0.729220 0.597968 -0.665790
O8    O     O_2   0.344215 0.562438 0.328666 -0.418473
O9    O     O_3   0.533070 0.667978 0.319533 -0.540049
O10   O     O_2   0.075644 0.386424 0.205699 -0.583095
O11   O     O_2   0.433687 0.394981 0.810006 -0.527901
O12   O     O_3   0.664155 0.324046 0.397116 -0.629231
O13   O     O_2   0.746834 0.608555 0.192566 -0.502149
O14   O     O_2   0.098081 0.614506 0.793836 -0.530431
O15   O     O_3   0.675650 0.402220 0.588450 -0.519691
O16   O     O_2   0.837158 0.436971 0.673201 -0.417882
O17   O     O_3   0.057483 0.664356 0.620868 -0.626491
O18   O     O_3   0.651186 0.326622 0.676516 -0.563291
O19   O     O_2   0.823810 0.314230 0.476690 -0.407948
O20   O     O_3   0.086630 0.363340 0.564170 -0.483435
O21   O     O_2   0.958797 0.231458 0.537080 -0.406384
O22   O     O_2   0.434112 0.372685 0.301717 -0.308026
O23   O     O_3   0.106997 0.235149 0.623421 -0.611848
O24   O     O_2   0.714987 0.319141 0.291560 -0.355863
O25   O     O_3   0.489779 0.229143 0.266365 -0.519443
O26   O     O_2   0.744455 0.587411 0.730393 -0.306746
O27   O     O_2   0.724821 0.714202 0.777595 -0.246814
O28   O     O_3   0.455842 0.659423 0.746075 -0.536152
O29   O     O_2   0.977135 0.739996 0.206403 -0.241135
O30   O     O_2   0.183853 0.674414 0.260272 -0.243695
O31   O     O_3   0.880514 0.679453 0.283643 -0.497171
O32   O     O_2   0.392730 0.285964 0.735472 -0.257528
O33   O     O_2   0.121226 0.346746 0.712884 -0.302241
O34   O     O_2   0.278810 0.459550 0.382060 -0.426780
O35   O     O_3   0.146524 0.207181 0.742630 -0.533813
O36   O     O_2   0.171874 0.028062 0.479926 -0.288207
O37   O     O_2   0.326976 0.001316 0.556930 -0.335628
O38   O     O_3   0.062192 0.092636 0.563739 -0.514948
O39   O     O_2   0.018840 0.194268 0.426736 -0.292585
O40   O     O_2   0.968061 0.148712 0.338569 -0.326541
O41   O     O_3   0.263609 0.155730 0.370211 -0.549495
O42   O     O_3   0.046820 0.459570 0.442260 -0.462487
O43   O     O_3   0.514050 0.597710 0.411540 -0.507734
O44   O     O_3   0.158739 0.335665 0.389498 -0.625866
O45   O     O_3   0.627090 0.591350 0.524530 -0.486232
O46   O     O_3   0.103080 0.636600 0.435820 -0.470738
P1    P     P_3+3 0.078810 0.562990 0.610370 1.018205
P2    P     P_3+3 0.645380 0.325580 0.462150 1.025508
P3    P     P_3+3 0.114483 0.261129 0.561884 1.070469
P4    P     P_3+3 0.110900 0.436950 0.389630 1.038016
P5    P     P_3+3 0.079847 0.736872 0.429721 0.972887
P6    P     P_3+3 0.667230 0.416829 0.653489 1.042221
P7    P     P_3+3 0.551129 0.689346 0.535922 0.956005
P8    P     P_3+3 0.517257 0.580503 0.346280 1.070233
S1    S     S_3+6 0.550873 0.301288 0.306241 -0.081442
S2    S     S_3+6 0.651716 0.666508 0.734882 -0.093872
S3    S     S_3+6 0.024993 0.725013 0.259528 -0.016281
S4    S     S_3+6 0.230447 0.272008 0.711436 -0.063617
S5    S     S_3+6 0.226729 0.063175 0.530015 -0.092083
S6    S     S_3+6 0.071254 0.195922 0.374077 -0.079297

loop_
_geom_bond_atom_site_label_1
_geom_bond_atom_site_label_2
_ccdc_geom_bond_type
C19   C24   A    
O23   P3    S    
C65   H15   S    
C54   P5    S    
C12   O18   S    
C28   H39   S    
Ba1   O15   S    
C45   H11   S    
C32   H29   S    
C2    O13   D    
C46   P2    S    
O1    P1    D    
C60   H37   S    
C40   H12   S    
C10   C66   A    
C24   C25   A    
Ba2   O4    S    
H44   O28   S    
C5    P8    S    
C30   P6    S    
C17   C19   A    
C22   C24   A    
Ba1   Ba2   S    
C35   C38   A    
C34   H9    S    
Ba2   O43   S    
C36   C37   A    
Ba2   O45   S    
C55   C57   A    
C52   C61   S    
C52   H45   S    
C44   C50   A    
C41   H26   S    
C54   C55   A    
C32   C33   S    
O29   S3    D    
C1    H6    S    
C6    P4    S    
C22   C27   A    
C11   C38   A    
C29   C33   D    
C34   H8    S    
Ba2   O46   S    
C9    C13   A    
C25   C42   A    
C39   H25   S    
C64   O9    S    
C29   C30   S    
O43   P8    S    
C6    C7    D    
C62   H60   S    
C21   C22   A    
C21   H21   S    
Ba1   O19   S    
C26   O14   D    
C17   C35   A    
C7    C8    S    
H51   O35   S    
C34   S2    S    
C62   S1    S    
C49   S5    S    
C16   H55   S    
C37   C43   A    
O42   P4    S    
C28   S6    S    
C64   C65   S    
C57   C58   S    
C6    C14   D    
C45   O3    S    
C56   H48   S    
C11   H19   S    
Ba2   P4    S    
O39   S6    D    
O37   S5    D    
O28   S2    S    
C48   C49   A    
C51   C53   A    
C51   H32   S    
C51   C57   A    
O46   P5    S    
C4    C16   S    
O24   S1    D    
C44   C46   A    
C65   H17   S    
O35   S4    S    
H54   O38   S    
O16   P6    D    
C31   P1    S    
C49   C50   A    
C4    O23   S    
C12   H5    S    
C17   C20   A    
O27   S2    D    
C13   C39   A    
O25   S1    S    
Ba2   O34   S    
C3    C5    S    
C18   C37   A    
C43   H53   S    
C63   H3    S    
C44   H36   S    
O15   P6    S    
C56   H49   S    
Ba2   O6    S    
O38   S5    S    
O41   S6    S    
O33   S4    D    
C23   H7    S    
H47   O31   S    
C9    C36   A    
C23   O7    S    
C41   C42   A    
C16   H38   S    
C35   C36   A    
C42   H28   S    
C7    H18   S    
C64   H14   S    
Ba1   P2    S    
O17   P1    S    
O21   P3    D    
C27   N2    Am   
C16   H10   S    
C27   O11   D    
C1    H2    S    
C31   C32   D    
C20   H22   S    
Ba1   O20   S    
C15   C31   D    
C18   C19   A    
C15   H31   S    
C33   N2    S    
C1    C12   S    
C4    S4    S    
O3    P5    S    
C46   C47   A    
C38   H52   S    
C47   C48   A    
C12   H1    S    
C54   C60   A    
C66   O10   D    
Ba1   O4    S    
O44   P4    S    
C18   C41   A    
O8    P8    D    
O45   P7    S    
H57   O41   S    
C15   C30   S    
C52   H56   S    
Ba1   O45   S    
C39   C43   A    
C29   H20   S    
C56   S3    S    
C28   C40   S    
C5    C14   S    
O5    P2    S    
O22   S1    D    
Ba1   O1    S    
C1    H46   S    
O34   P4    D    
C47   H35   S    
C9    C10   A    
C2    N1    Am   
O7    P7    S    
O26   S2    D    
C63   H4    S    
C55   H33   S    
O40   S6    D    
Ba1   O42   S    
Ba2   O5    S    
O36   S5    D    
C62   C63   S    
C2    C13   A    
C50   P3    S    
C3    C8    D    
O31   S3    S    
C40   H34   S    
C45   C56   S    
O32   S4    D    
C14   H30   S    
O12   P2    S    
C62   O12   S    
O2    P5    D    
C53   C60   A    
O6    P7    D    
O19   P2    D    
C26   N2    Am   
C45   H13   S    
O4    P1    S    
C66   N1    Am   
H41   O25   S    
C63   H42   S    
C8    N1    S    
C3    H24   S    
C23   H43   S    
C23   C34   S    
C61   H58   S    
C65   H16   S    
C10   C11   A    
O18   P6    S    
C4    H27   S    
C64   H50   S    
C25   C26   A    
C48   C59   S    
C53   P7    S    
C20   C21   A    
C58   C59   T    
O30   S3    D    
C61   H40   S    
Ba1   O5    S    
Ba1   P1    S    
C28   O44   S    
C61   H59   S    
O9    P8    S    
C40   H23   S    
Ba2   O42   S    
O20   P3    S    
C52   O17   S    
