data_mof_unit_31792.cif
_audit_creation_date              2013-03-05T15:49:44-0500
_audit_creation_method            fapswitch 2.2
_symmetry_space_group_name_H-M    P1
_symmetry_Int_Tables_number       1
_space_group_crystal_system       triclinic
_cell_length_a                    12.030755
_cell_length_b                    12.864044
_cell_length_c                    13.13168
_cell_angle_alpha                 86.973745
_cell_angle_beta                  113.333148
_cell_angle_gamma                 93.872979
_cell_volume                      1861.09150113

loop_
_atom_site_label
_atom_site_type_symbol
_atom_site_description
_atom_site_fract_x
_atom_site_fract_y
_atom_site_fract_z
_atom_type_partial_charge
O1    O     O_R   0.579910 0.341070 0.505280 -0.630077
O2    O     O_R   0.388440 0.353740 0.492580 -0.620704
C1    C     C_R   0.477563 0.299482 0.499774 0.879551
O3    O     O_R   0.643280 0.490550 0.663120 -0.622846
O4    O     O_R   0.451810 0.503220 0.650420 -0.616115
C2    C     C_R   0.567161 0.500068 0.708357 0.851052
Zn1   Zn    Zn3+2 0.627850 0.491540 0.508480 0.994357
Zn2   Zn    Zn3+2 0.372150 0.508460 0.491520 0.937537
O5    O     O_R   0.611560 0.646260 0.507420 -0.575271
O6    O     O_R   0.420090 0.658930 0.494720 -0.642241
O7    O     O_R   0.548190 0.496780 0.349580 -0.572171
O8    O     O_R   0.356720 0.509450 0.336880 -0.629907
C3    C     C_R   0.522715 0.700514 0.501098 0.929557
C4    C     C_R   0.433620 0.505125 0.291638 0.889507
C5    C     C_R   0.293949 0.629760 0.009720 -0.184600
H1    H     H_    0.245526 0.618533 0.150712 0.153483
H2    H     H_    0.305395 0.702447 0.819989 0.158075
H3    H     H_    0.223739 0.683110 0.964614 0.146140
C6    C     C_R   0.395859 0.523501 0.173363 -0.055898
C7    C     C_R   0.714013 0.447081 0.893065 -0.186762
C8    C     C_R   0.742786 0.428781 0.005486 -0.148793
C9    C     C_R   0.664947 0.458427 0.052497 -0.147765
C10   C     C_R   0.559432 0.512294 0.987985 0.091638
C11   C     C_R   0.541607 0.544896 0.878923 0.074740
C12   C     C_R   0.470982 0.534988 0.027946 0.098530
C13   C     C_R   0.378372 0.603852 0.967139 0.162910
C14   C     C_R   0.373043 0.647271 0.866066 -0.234627
C15   C     C_R   0.453558 0.618126 0.822213 -0.187882
C16   C     C_R   0.471257 0.489622 0.126387 -0.190185
C17   C     C_R   0.304284 0.591290 0.114139 -0.194174
C18   C     C_R   0.611170 0.501758 0.828677 -0.112783
H4    H     H_    0.533862 0.430922 0.171566 0.142265
H5    H     H_    0.769758 0.415411 0.855768 0.157695
H6    H     H_    0.691149 0.440538 0.139841 0.158583
H7    H     H_    0.822783 0.387368 0.055374 0.150262
H8    H     H_    0.447153 0.654597 0.744060 0.172370
C19   C     C_R   0.537463 0.811915 0.504240 -0.145350
C20   C     C_R   0.463584 0.187987 0.499441 -0.078482
C21   C     C_R   0.338011 0.030614 0.446745 -0.162095
C22   C     C_R   0.348353 0.137745 0.456559 -0.192076
C23   C     C_R   0.568377 0.131818 0.536643 -0.208116
C24   C     C_R   0.559269 0.025301 0.526272 0.029844
C25   C     C_R   0.442924 0.974611 0.480030 0.110783
C26   C     C_R   0.433096 0.868444 0.468201 -0.278764
C27   C     C_R   0.652906 0.861545 0.549227 -0.223771
C28   C     C_R   0.664092 0.968637 0.560078 0.606368
H9    H     H_    0.343716 0.829643 0.432321 0.169904
H10   H     H_    0.733827 0.817422 0.578618 0.212323
H11   H     H_    0.248665 0.991874 0.411919 0.144589
H12   H     H_    0.267015 0.181339 0.427781 0.163255
H13   H     H_    0.657262 0.171460 0.571759 0.203392
N1    N     N_R   0.798200 0.480260 0.519790 -0.156165
N2    N     N_R   0.201820 0.519740 0.480210 -0.099072
C29   C     C_R   0.013116 0.605072 0.402336 -0.247402
C30   C     C_R   0.132019 0.594070 0.411375 -0.007358
C31   C     C_R   0.156363 0.453989 0.541658 -0.010590
C32   C     C_R   0.036552 0.461922 0.535081 0.035763
C33   C     C_R   0.963747 0.538740 0.464548 -0.011641
C34   C     C_R   0.843669 0.546969 0.458419 0.395479
C35   C     C_R   0.868707 0.405758 0.588195 -0.044843
C36   C     C_R   0.988031 0.395351 0.597190 -0.296115
H14   H     H_    0.832333 0.353892 0.636286 0.154447
H15   H     H_    0.960812 0.665297 0.346763 0.200976
H16   H     H_    0.041852 0.335475 0.652286 0.166622
H17   H     H_    0.168808 0.645431 0.363210 0.128351
H18   H     H_    0.213464 0.395449 0.595925 0.130187
F1    F     F_    0.776470 0.016316 0.604640 -0.672137
N3    N     N_R   0.770075 0.626210 0.388802 0.213759
O9    O     O_R   0.786884 0.720836 0.424258 -0.406496
O10   O     O_R   0.715340 0.611441 0.282813 -0.421021

loop_
_geom_bond_atom_site_label_1
_geom_bond_atom_site_label_2
_geom_bond_distance
_ccdc_geom_bond_type
Zn2   N2    2.009760 S    
O4    Zn2   1.920097 S    
Zn1   O7    1.920097 S    
C10   C11   1.406565 A    
C1    C20   1.432814 S    
C32   C36   1.405413 A    
C8    H7    1.082691 S    
N1    C34   1.377646 A    
C34   N3    1.428677 S    
C5    H3    1.083694 S    
C23   C24   1.376848 A    
C29   C30   1.404106 A    
C3    C19   1.432819 S    
C26   H9    1.085542 S    
Zn2   O8    1.963995 S    
C19   C26   1.394863 A    
C10   C12   1.411891 A    
C2    C18   1.454861 S    
C32   C33   1.406846 A    
C11   C18   1.408006 A    
C28   F1    1.358553 S    
O1    Zn1   1.979834 S    
C8    C9    1.390884 A    
C31   C32   1.419814 A    
C36   H16   1.083254 S    
C20   C22   1.398458 A    
C6    C17   1.399458 A    
C13   C14   1.391709 A    
C20   C23   1.395751 A    
O3    Zn1   1.963994 S    
C22   H12   1.083373 S    
C7    H5    1.083420 S    
O6    C3    1.284966 A    
C35   H14   1.081879 S    
C30   H17   1.081935 S    
O8    C4    1.287562 A    
Zn1   N1    2.009999 S    
O2    C1    1.288274 A    
C16   H4    1.079364 S    
N2    C30   1.361050 A    
C25   C26   1.374541 A    
C12   C16   1.388825 A    
O4    C2    1.293958 A    
C9    H6    1.078609 S    
O7    C4    1.292643 A    
C31   H18   1.082723 S    
C27   H10   1.082957 S    
O3    C2    1.288515 A    
C29   H15   1.082193 S    
H1    C17   1.083221 S    
H2    C14   1.083910 S    
C14   C15   1.387165 A    
C29   C33   1.410878 A    
C7    C8    1.387138 A    
C15   H8    1.081990 S    
C5    C17   1.393617 A    
N3    O10   1.300715 A    
C24   C28   1.401896 A    
N2    C31   1.371355 A    
C21   C22   1.383557 A    
Zn1   O5    2.011865 S    
O5    C3    1.288737 A    
C9    C10   1.419241 A    
N3    O9    1.300544 A    
C5    C13   1.403781 A    
C21   C25   1.398470 A    
N1    C35   1.363922 A    
C21   H11   1.084074 S    
C12   C13   1.420441 A    
C27   C28   1.384485 A    
C33   C34   1.425588 A    
C19   C27   1.398444 A    
C4    C6    1.446155 S    
C23   H13   1.084784 S    
Zn2   O6    1.979832 S    
O2    Zn2   2.011866 S    
C11   C15   1.414199 A    
C24   C25   1.413637 A    
C35   C36   1.408076 A    
O1    C1    1.285354 A    
C7    C18   1.402345 A    
C6    C16   1.385056 A    
