data_mof_unit_46593.cif
_audit_creation_date              2012-12-11T15:13:41-0500
_audit_creation_method            fapswitch 2.2
_symmetry_space_group_name_H-M    P1
_symmetry_Int_Tables_number       1
_space_group_crystal_system       triclinic
_cell_length_a                    6.943618
_cell_length_b                    13.490983
_cell_length_c                    20.118156
_cell_angle_alpha                 104.116679
_cell_angle_beta                  89.442851
_cell_angle_gamma                 90.910131
_cell_volume                      1827.41650293

loop_
_atom_site_label
_atom_site_type_symbol
_atom_type_description
_atom_site_fract_x
_atom_site_fract_y
_atom_site_fract_z
_atom_type_partial_charge
O1    O     O_R   0.506780 0.600060 0.449950 -0.538657
O2    O     O_R   0.179840 0.597110 0.589410 -0.544999
O3    O     O_R   0.004570 0.399940 0.550050 -0.537668
C1    C     C_R   0.347937 0.618989 0.616927 0.676302
O4    O     O_R   0.177380 0.612160 0.452890 -0.541127
O5    O     O_R   0.002100 0.415100 0.412560 -0.541385
C2    C     C_R   0.347989 0.639167 0.436483 0.697175
O6    O     O_R   0.509250 0.584900 0.587440 -0.539713
O7    O     O_3   0.337570 0.435330 0.486930 -0.369561
V1    V     V_3+5 0.064650 0.512000 0.502430 1.412792
O8    O     O_R   0.672090 0.402890 0.410590 -0.542781
C3    C     C_R   0.840862 0.381213 0.383070 0.684128
O9    O     O_R   0.674540 0.387840 0.547110 -0.541760
C4    C     C_R   0.841923 0.360722 0.563461 0.696584
V2    V     V_3+5 0.564040 0.488000 0.497570 1.412734
O10   O     O_3   0.840990 0.564670 0.513070 -0.370167
C5    C     C_R   0.818260 0.106401 0.607918 -0.160663
H1    H     H_    0.810055 0.156096 0.514482 0.098251
H2    H     H_    0.810075 0.980530 0.690581 0.117097
H3    H     H_    0.801852 0.026577 0.581329 0.109395
C6    C     C_R   0.845438 0.282930 0.602749 -0.031039
C7    C     C_R   0.886379 0.319041 0.932205 -0.166517
C8    C     C_R   0.891784 0.395707 0.897026 -0.121517
C9    C     C_R   0.880051 0.371443 0.825775 -0.162215
C10   C     C_R   0.862146 0.268524 0.787514 0.079087
C11   C     C_R   0.854348 0.190266 0.824083 0.068891
C12   C     C_R   0.852076 0.240670 0.714345 0.072087
C13   C     C_R   0.831945 0.135701 0.679679 0.145485
C14   C     C_R   0.824706 0.060652 0.716716 -0.215070
C15   C     C_R   0.836181 0.087256 0.787688 -0.205207
C16   C     C_R   0.860455 0.313272 0.674117 -0.218608
C17   C     C_R   0.823477 0.179731 0.569742 -0.173993
C18   C     C_R   0.867053 0.216718 0.896556 -0.076350
H4    H     H_    0.875727 0.394124 0.696396 0.092058
H5    H     H_    0.897874 0.339523 0.987584 0.098185
H6    H     H_    0.885657 0.435259 0.802451 0.102222
H7    H     H_    0.906310 0.474800 0.925202 0.114650
H8    H     H_    0.830281 0.025965 0.813820 0.120135
C19   C     C_3   0.677114 0.236421 0.224157 -0.146766
C20   C     C_3   0.741749 0.207841 0.290600 -0.142518
H9    H     H_    0.647792 0.174896 0.324861 0.093074
H10   H     H_    0.529573 0.225107 0.202556 0.116563
C21   C     C_3   0.849947 0.311177 0.312513 -0.029219
C22   C     C_3   0.784575 0.340692 0.247032 -0.137098
C23   C     C_3   0.969641 0.292311 0.209786 -0.170192
C24   C     C_3   0.035410 0.263657 0.276153 -0.124930
C25   C     C_3   0.926280 0.160496 0.253354 0.170386
C26   C     C_3   0.862218 0.188766 0.187603 -0.053821
H11   H     H_    0.725767 0.415926 0.244992 0.107431
H12   H     H_    0.062904 0.326950 0.176130 0.107086
H13   H     H_    0.183000 0.274426 0.297744 0.110990
C27   C     C_3   0.455184 0.794472 0.706676 -0.141572
C28   C     C_3   0.275285 0.839749 0.748885 -0.140347
H14   H     H_    0.207738 0.913682 0.748562 0.112453
H15   H     H_    0.536796 0.830259 0.670688 0.096892
C29   C     C_3   0.359170 0.811544 0.812252 -0.005249
C30   C     C_3   0.539458 0.767132 0.770855 -0.116004
C31   C     C_3   0.437685 0.661122 0.750908 -0.140073
C32   C     C_3   0.257760 0.706365 0.793081 -0.145390
C33   C     C_3   0.173508 0.733738 0.728914 -0.118608
C34   C     C_3   0.353788 0.689246 0.687528 -0.004804
H16   H     H_    0.690827 0.781197 0.788370 0.106425
H17   H     H_    0.505180 0.587198 0.751263 0.102156
H18   H     H_    0.176069 0.670555 0.829046 0.098523
H19   H     H_    0.022122 0.719852 0.711391 0.107569
C35   C     C_R   0.484749 0.882029 0.388071 -0.163944
H20   H     H_    0.478654 0.832962 0.481715 0.101261
H21   H     H_    0.554008 0.000317 0.303169 0.124943
H22   H     H_    0.545791 0.956200 0.412724 0.109563
C36   C     C_R   0.365788 0.716676 0.397129 -0.035897
C37   C     C_R   0.275011 0.687205 0.069921 -0.163465
C38   C     C_R   0.238667 0.613349 0.106070 -0.121531
C39   C     C_R   0.270694 0.634891 0.176413 -0.163758
C40   C     C_R   0.342495 0.731787 0.212591 0.080864
C41   C     C_R   0.385855 0.806080 0.174658 0.070528
C42   C     C_R   0.371818 0.757595 0.285050 0.069406
C43   C     C_R   0.450208 0.855366 0.317281 0.138172
C44   C     C_R   0.494654 0.925837 0.278777 -0.206872
C45   C     C_R   0.461759 0.902178 0.208776 -0.217171
C46   C     C_R   0.327545 0.689653 0.326838 -0.221407
C47   C     C_R   0.445141 0.812542 0.427543 -0.170280
C48   C     C_R   0.348829 0.783204 0.103349 -0.080695
H23   H     H_    0.268877 0.614071 0.306326 0.096602
H24   H     H_    0.243969 0.669743 0.015570 0.099812
H25   H     H_    0.237713 0.573827 0.200728 0.103436
H26   H     H_    0.182461 0.539055 0.079513 0.114606
H27   H     H_    0.496854 0.960280 0.181656 0.124414
O11   O     O_R   0.203580 0.914920 0.912610 -0.539614
O12   O     O_R   0.535710 0.887810 0.047120 -0.541630
O13   O     O_R   0.710730 0.084950 0.087430 -0.542130
C49   C     C_R   0.365403 0.861389 0.064103 0.686029
O14   O     O_R   0.533010 0.902850 0.910600 -0.545288
O15   O     O_R   0.708010 0.100090 0.949930 -0.537087
C50   C     C_R   0.364969 0.881313 0.882984 0.681215
O16   O     O_R   0.206300 0.899780 0.050100 -0.538753
O17   O     O_3   0.375170 0.064580 0.013100 -0.368986
V3    V     V_3+5 0.648200 0.988020 0.997570 1.408922
O18   O     O_R   0.038030 0.112330 0.952840 -0.540348
C51   C     C_R   0.870682 0.138685 0.935968 0.690796
O19   O     O_R   0.040730 0.097300 0.089360 -0.543817
C52   C     C_R   0.871842 0.118916 0.116903 0.676305
V4    V     V_3+5 0.148780 0.012220 0.002360 1.410200
O20   O     O_3   0.871930 0.935430 0.986900 -0.369641
C53   C     C_3   0.004713 0.056236 0.255600 -0.371008
C54   C     C_3   0.044000 0.050117 0.328937 -0.744911
H28   H     H_    0.910770 0.065346 0.360562 0.211069
H29   H     H_    0.093334 0.972260 0.328817 0.235693
H30   H     H_    0.157732 0.106428 0.352134 0.218818
H31   H     H_    0.898038 0.995950 0.232111 0.180778
H32   H     H_    0.140067 0.042656 0.225120 0.183581

loop_
_geom_bond_atom_site_label_1
_geom_bond_atom_site_label_2
_ccdc_geom_bond_type
C22   H11   S    
C20   C25   S    
O17   V4    S    
C39   C40   A    
C1    O6    A    
C2    C36   S    
C45   H27   S    
C30   H16   S    
C43   C44   A    
C27   C28   S    
C29   C50   S    
C7    H5    S    
C54   H29   S    
C32   H18   S    
C9    H6    S    
C40   C42   A    
C4    C6    S    
C13   C14   A    
H20   C47   S    
C3    C21   S    
C27   C34   S    
O5    C3    A    
C53   H31   S    
C28   C29   S    
C35   H22   S    
V2    O10   S    
C5    H3    S    
C29   C30   S    
C15   H8    S    
C35   C43   A    
C36   C47   A    
O8    V2    S    
C20   C21   S    
C8    C9    A    
O1    V2    S    
O12   C49   A    
O7    V1    S    
O15   C51   A    
O13   V3    S    
C27   H15   S    
C37   C48   A    
C31   C34   S    
C32   C33   S    
O9    C4    A    
C46   H23   S    
O19   V4    S    
C53   C54   S    
C54   H30   S    
C28   C33   S    
O14   V3    S    
C19   H10   S    
H21   C44   S    
C6    C17   A    
O11   C50   A    
C40   C41   A    
C36   C46   A    
C42   C43   A    
C19   C20   S    
O4    C2    A    
C44   C45   A    
C10   C11   A    
O18   V4    S    
C12   C16   A    
C1    C34   S    
C48   C49   S    
O12   V3    S    
C33   C34   S    
C18   C51   S    
O2    C1    A    
C21   C22   S    
O13   C52   A    
C14   C15   A    
C8    H7    S    
C6    C16   A    
C11   C18   A    
O11   V4    S    
C25   C26   S    
O17   V3    S    
O14   C50   A    
C16   H4    S    
C9    C10   A    
C39   H25   S    
V3    O20   S    
O3    C4    A    
C20   H9    S    
C33   H19   S    
C11   C15   A    
O6    V2    S    
O9    V2    S    
H1    C17   S    
O2    V1    S    
O15   V3    S    
C22   C23   S    
C37   H24   S    
C23   C26   S    
C31   H17   S    
C7    C18   A    
C24   C25   S    
C25   C53   S    
O1    C2    A    
C5    C13   A    
C42   C46   A    
C38   C39   A    
O5    V1    S    
C38   H26   S    
O8    C3    A    
O16   V4    S    
C41   C48   A    
C28   H14   S    
C19   C22   S    
C10   C12   A    
C54   H28   S    
C29   C32   S    
C31   C32   S    
O4    V1    S    
O3    V1    S    
V1    O10   S    
C35   C47   A    
C53   H32   S    
C30   C31   S    
C23   H12   S    
C26   C52   S    
C24   H13   S    
O19   C52   A    
O7    V2    S    
V4    O20   S    
C21   C24   S    
C27   C30   S    
C49   O16   A    
C23   C24   S    
C37   C38   A    
O18   C51   A    
C12   C13   A    
C5    C17   A    
C7    C8    A    
C41   C45   A    
C19   C26   S    
H2    C14   S    
