data_mof_unit_39062.cif
_audit_creation_date              2012-12-10T17:29:16-0500
_audit_creation_method            fapswitch 2.2
_symmetry_space_group_name_H-M    P1
_symmetry_Int_Tables_number       1
_space_group_crystal_system       triclinic
_cell_length_a                    12.0377
_cell_length_b                    12.867781
_cell_length_c                    13.164964
_cell_angle_alpha                 87.152386
_cell_angle_beta                  112.477835
_cell_angle_gamma                 93.201177
_cell_volume                      1880.47994582

loop_
_atom_site_label
_atom_site_type_symbol
_atom_type_description
_atom_site_fract_x
_atom_site_fract_y
_atom_site_fract_z
_atom_type_partial_charge
C1    C     C_R   0.477993 0.299481 0.500247 0.900387
C2    C     C_R   0.550238 0.445498 0.987657 0.015274
C3    C     C_R   0.518148 0.434932 0.873866 0.094501
C4    C     C_R   0.457856 0.435860 0.029562 0.058314
C5    C     C_R   0.335898 0.431883 0.956440 0.149090
C6    C     C_R   0.307998 0.404781 0.848323 -0.243533
C7    C     C_R   0.400202 0.398143 0.810274 -0.184203
C8    C     C_R   0.482193 0.432999 0.141919 0.039455
C9    C     C_R   0.276788 0.480409 0.103025 -0.219699
C10   C     C_R   0.602585 0.466554 0.826336 -0.186044
C11   C     C_R   0.536705 0.811331 0.502849 -0.050328
C12   C     C_R   0.564131 0.487186 0.707647 0.891934
C13   C     C_R   0.465829 0.187795 0.505166 -0.053285
C14   C     C_R   0.381199 0.027826 0.553657 -0.267204
C15   C     C_R   0.383020 0.135826 0.544294 0.104122
C16   C     C_R   0.544763 0.132504 0.475563 -0.322081
C17   C     C_R   0.544119 0.025676 0.486342 0.183273
C18   C     C_R   0.461473 0.973107 0.525391 0.167072
C19   C     C_R   0.459316 0.866184 0.534454 -0.274309
C20   C     C_R   0.621259 0.862885 0.467021 -0.199580
C21   C     C_R   0.624904 0.970580 0.458662 -0.204962
C22   C     C_R   0.011560 0.607924 0.406700 0.036804
C23   C     C_R   0.522681 0.700253 0.502037 0.892020
C24   C     C_R   0.131300 0.598016 0.415586 0.223126
C25   C     C_R   0.153067 0.449910 0.535240 -0.071415
C26   C     C_R   0.034029 0.458854 0.530476 0.033523
C27   C     C_R   0.962522 0.538523 0.465091 0.050461
C28   C     C_R   0.843508 0.546989 0.460226 -0.078567
C29   C     C_R   0.867324 0.403460 0.585361 0.278822
C30   C     C_R   0.985085 0.390681 0.590337 -0.362048
C31   C     C_R   0.434272 0.495978 0.292732 0.893417
C32   C     C_R   0.245227 0.453074 0.993932 -0.182693
C33   C     C_R   0.396129 0.471182 0.177305 -0.077084
C34   C     C_R   0.722792 0.489495 0.894002 -0.244075
C35   C     C_R   0.756624 0.493011 0.007112 0.452671
C36   C     C_R   0.670130 0.476698 0.053004 -0.260244
H1    H     H_    0.207996 0.504327 0.130128 0.204113
H2    H     H_    0.681494 0.820063 0.442552 0.158847
H3    H     H_    0.318039 0.987113 0.583860 0.140291
H4    H     H_    0.689066 0.010484 0.429233 0.140177
H5    H     H_    0.607749 0.172746 0.444711 0.171669
H6    H     H_    0.786401 0.606794 0.409172 0.159278
H7    H     H_    0.037703 0.328371 0.641395 0.137676
H8    H     H_    0.215736 0.388978 0.793724 0.141238
H9    H     H_    0.206393 0.386975 0.582906 0.139366
H10   H     H_    0.151736 0.453422 0.938112 0.158426
H11   H     H_    0.789182 0.510590 0.858778 0.189222
H12   H     H_    0.697252 0.494833 0.138144 0.167445
H13   H     H_    0.377713 0.368326 0.729540 0.167349
H14   H     H_    0.395867 0.825546 0.564445 0.152900
N1    N     N_R   0.798200 0.480260 0.519790 -0.103952
N2    N     N_R   0.201820 0.519740 0.480210 -0.118198
O1    O     O_R   0.579910 0.341070 0.505280 -0.609636
O2    O     O_R   0.388440 0.353740 0.492580 -0.602221
O3    O     O_R   0.643280 0.490550 0.663120 -0.599363
O4    O     O_R   0.451810 0.503220 0.650420 -0.615602
O5    O     O_R   0.611560 0.646260 0.507420 -0.621342
O6    O     O_R   0.420090 0.658930 0.494720 -0.640025
O7    O     O_R   0.548190 0.496780 0.349580 -0.615379
O8    O     O_R   0.356720 0.509450 0.336880 -0.633015
Zn1   Zn    Zn3+2 0.627850 0.491540 0.508480 0.957763
Zn2   Zn    Zn3+2 0.372150 0.508460 0.491520 0.947434
N3    N     N_3   0.303884 0.192001 0.577763 -0.459514
H15   H     H_    0.321031 0.172170 0.660231 0.171816
H16   H     H_    0.215404 0.167416 0.531102 0.188542
N4    N     N_3   0.819838 0.335930 0.649713 -0.398014
H17   H     H_    0.822103 0.259349 0.627688 0.166446
H18   H     H_    0.876713 0.342737 0.732350 0.162926
N5    N     N_3   0.940892 0.690710 0.340378 -0.476489
H19   H     H_    0.935424 0.684459 0.259753 0.256256
H20   H     H_    0.985230 0.761649 0.370193 0.187876
N6    N     N_3   0.176228 0.673641 0.356015 -0.458753
H21   H     H_    0.220714 0.638387 0.313969 0.243122
H22   H     H_    0.230760 0.729204 0.409780 0.196573
N7    N     N_3   0.573555 0.366210 0.215181 -0.443640
H23   H     H_    0.652053 0.409247 0.258787 0.208020
H24   H     H_    0.594712 0.310428 0.170961 0.189006
Cl1   Cl    Cl    0.905877 0.527578 0.090547 -0.691546

loop_
_geom_bond_atom_site_label_1
_geom_bond_atom_site_label_2
_ccdc_geom_bond_type
O6    Zn2   S    
C23   O6    A    
N4    H18   S    
N3    H16   S    
C24   N2    A    
C14   C18   A    
C35   C36   A    
N1    Zn1   S    
C4    C8    A    
C11   C19   A    
C26   C27   A    
C34   C35   A    
C3    C7    A    
C5    C6    A    
C28   N1    A    
C31   O7    A    
O8    Zn2   S    
C18   C19   A    
C11   C23   S    
N5    H20   S    
C1    O1    A    
C9    C32   A    
C14   H3    S    
O1    Zn1   S    
C16   C17   A    
C31   C33   S    
C22   N5    S    
C5    C32   A    
N4    H17   S    
C6    H8    S    
C9    C33   A    
C11   C20   A    
O7    Zn1   S    
C7    H13   S    
N6    H22   S    
N6    H21   S    
O2    Zn2   S    
C25   C26   A    
C8    N7    S    
C17   C21   A    
C29   N4    S    
C31   O8    A    
C2    C4    A    
N7    H23   S    
C29   C30   A    
C20   H2    S    
C9    H1    S    
C17   C18   A    
C10   C34   A    
N7    H24   S    
C12   O4    A    
C10   C12   S    
C1    O2    A    
C26   C30   A    
C22   C27   A    
C13   C15   A    
O4    Zn2   S    
C30   H7    S    
C1    C13   S    
C25   H9    S    
C24   N6    S    
C29   N1    A    
C2    C36   A    
C23   O5    A    
C32   H10   S    
C4    C5    A    
O5    Zn1   S    
C6    C7    A    
C35   Cl1   S    
C2    C3    A    
C25   N2    A    
C3    C10   A    
N2    Zn2   S    
C19   H14   S    
C21   H4    S    
O3    Zn1   S    
C28   H6    S    
C36   H12   S    
C22   C24   A    
C8    C33   A    
N5    H19   S    
C12   O3    A    
N3    H15   S    
C20   C21   A    
C13   C16   A    
C27   C28   A    
C15   N3    S    
C14   C15   A    
C34   H11   S    
C16   H5    S    
