data_mof_unit_13679.cif
_audit_creation_date              2013-03-05T16:19:44-0500
_audit_creation_method            fapswitch 2.2
_symmetry_space_group_name_H-M    P1
_symmetry_Int_Tables_number       1
_space_group_crystal_system       triclinic
_cell_length_a                    10.79711
_cell_length_b                    9.714438
_cell_length_c                    27.680227
_cell_angle_alpha                 90.134457
_cell_angle_beta                  89.834611
_cell_angle_gamma                 89.098848
_cell_volume                      2902.94015975

loop_
_atom_site_label
_atom_site_type_symbol
_atom_site_description
_atom_site_fract_x
_atom_site_fract_y
_atom_site_fract_z
_atom_type_partial_charge
O1    O     O_R   0.314910 0.616040 0.499990 -0.549516
O2    O     O_R   0.314910 0.383960 0.499990 -0.561528
C1    C     C_R   0.258178 0.501283 0.501739 0.929246
O3    O     O_R   0.500140 0.616020 0.428740 -0.601298
O4    O     O_R   0.500140 0.383980 0.428740 -0.631227
C2    C     C_R   0.500022 0.499733 0.405940 0.927620
Zn1   Zn    Zn3+2 0.500150 0.654960 0.499980 1.061458
Zn2   Zn    Zn3+2 0.500150 0.345040 0.499980 1.067723
O5    O     O_R   0.685320 0.616040 0.499970 -0.572154
O6    O     O_R   0.685320 0.383960 0.499970 -0.541079
O7    O     O_R   0.500090 0.616050 0.571230 -0.622006
O8    O     O_R   0.500090 0.383950 0.571230 -0.606366
C3    C     C_R   0.743125 0.499816 0.499045 0.989739
C4    C     C_R   0.499879 0.500134 0.594044 0.891398
C5    C     C_R   0.396588 0.511579 0.177511 0.565765
O9    O     O_2   0.292115 0.539863 0.202798 -0.516020
N1    N     N_R   0.506027 0.490320 0.201164 -0.362418
C6    C     C_R   0.613735 0.460964 0.176994 0.553002
C7    C     C_R   0.517694 0.370640 0.278266 -0.078474
C8    C     C_R   0.515510 0.372687 0.328376 -0.147399
C9    C     C_R   0.492661 0.621983 0.327201 -0.138376
C10   C     C_R   0.494573 0.619521 0.276976 -0.069221
C11   C     C_R   0.506861 0.493817 0.252593 0.280786
C12   C     C_R   0.502200 0.471881 0.101407 -0.063081
C13   C     C_R   0.392469 0.502544 0.127127 -0.117647
C14   C     C_R   0.282080 0.526640 0.102092 -0.200088
C15   C     C_R   0.613992 0.451519 0.126549 -0.062492
C16   C     C_R   0.502527 0.498353 0.353196 -0.031614
H1    H     H_    0.482815 0.720107 0.345571 0.170835
H2    H     H_    0.486207 0.714837 0.256957 0.152999
H3    H     H_    0.198134 0.557377 0.121046 0.231727
C17   C     C_R   0.497502 0.500221 0.646828 -0.108562
C18   C     C_R   0.384700 0.454651 0.975135 -0.067582
C19   C     C_R   0.611741 0.469141 0.974323 0.003087
C20   C     C_R   0.497640 0.465430 0.949432 0.016796
C21   C     C_R   0.276185 0.422963 0.949132 0.719329
C22   C     C_R   0.276287 0.425329 0.898929 -0.177744
C23   C     C_R   0.384471 0.455693 0.873429 -0.100219
C24   C     C_R   0.496269 0.473778 0.898558 -0.131106
C25   C     C_R   0.606406 0.500635 0.872927 -0.162872
C26   C     C_R   0.601424 0.510058 0.822421 0.630561
N2    N     N_R   0.491497 0.493123 0.798968 -0.352741
C27   C     C_R   0.384383 0.465158 0.823099 0.640076
C28   C     C_R   0.489386 0.375064 0.721896 -0.112874
C29   C     C_R   0.493150 0.375313 0.671889 -0.129297
C30   C     C_R   0.497881 0.625076 0.672448 -0.246774
C31   C     C_R   0.493204 0.626366 0.722975 0.366158
C32   C     C_R   0.489546 0.499144 0.747540 0.152432
O10   O     O_2   0.278241 0.447667 0.798330 -0.492785
C33   C     C_R   0.385769 0.475292 0.025720 -0.075421
C34   C     C_R   0.500307 0.463279 0.050560 -0.014023
C35   C     C_R   0.613217 0.445641 0.024769 0.013506
C36   C     C_R   0.278562 0.515629 0.052079 0.716740
H4    H     H_    0.492797 0.277653 0.652940 0.196302
H5    H     H_    0.487373 0.277962 0.741020 0.190782
H6    H     H_    0.191156 0.402436 0.880127 0.241095
O11   O     O_2   0.720005 0.441370 0.201800 -0.498808
C37   C     C_R   0.722338 0.417584 0.101154 -0.165413
H7    H     H_    0.524030 0.276027 0.347567 0.180111
H8    H     H_    0.526917 0.273413 0.259268 0.153765
H9    H     H_    0.806555 0.392023 0.120578 0.230078
C38   C     C_R   0.719206 0.504112 0.948412 -0.196219
C39   C     C_R   0.717177 0.518989 0.898496 0.722587
O12   O     O_2   0.705000 0.534990 0.796700 -0.430011
C40   C     C_R   0.722699 0.409638 0.050761 0.246214
H10   H     H_    0.805267 0.525339 0.966582 0.220359
H11   H     H_    0.500235 0.721770 0.653100 0.207252
C41   C     C_3   0.070550 0.645161 0.519677 0.409532
C42   C     C_3   0.073812 0.389288 0.534709 0.457616
H12   H     H_    0.091375 0.655132 0.558920 0.095653
H13   H     H_    0.116407 0.398495 0.571175 0.082759
C43   C     C_3   0.929339 0.651238 0.512161 -0.015441
C44   C     C_3   0.932723 0.406343 0.539627 -0.018646
H14   H     H_    0.888024 0.676460 0.548200 0.092336
H15   H     H_    0.917642 0.464278 0.574066 0.069650
H16   H     H_    0.106700 0.572057 0.427242 0.233946
H17   H     H_    0.133680 0.394516 0.431332 0.223116
C45   C     C_3   0.079860 0.479973 0.448463 -0.422703
C46   C     C_3   0.122846 0.503990 0.501143 -0.323620
C47   C     C_3   0.880502 0.501896 0.497379 -0.418415
C48   C     C_3   0.936438 0.458258 0.445542 0.460241
C49   C     C_3   0.372263 0.083513 0.503859 0.434401
C50   C     C_3   0.372218 0.920638 0.504029 0.435832
H18   H     H_    0.314533 0.121030 0.473214 0.088698
H19   H     H_    0.314423 0.884880 0.473426 0.109105
H20   H     H_    0.501287 0.119863 0.422055 0.015644
H21   H     H_    0.487734 0.885627 0.422600 -0.011542
C51   C     C_3   0.553233 0.079113 0.453681 0.423008
C52   C     C_3   0.548689 0.917209 0.452893 0.464355
C53   C     C_3   0.572758 0.079611 0.539666 -0.250846
C54   C     C_3   0.571974 0.917912 0.539841 -0.301018
N3    N     N_3   0.499750 0.138610 0.498940 -0.227141
N4    N     N_3   0.499750 0.861390 0.498940 -0.217347
H22   H     H_    0.669137 0.114374 0.537490 0.281152
H23   H     H_    0.666910 0.875040 0.539329 0.245313
H24   H     H_    0.536238 0.119067 0.574715 0.220544
H25   H     H_    0.532564 0.882457 0.574721 0.221482
F1    F     F_    0.824279 0.551569 0.875689 -0.561364
N5    N     N_R   0.492124 0.756024 0.748460 0.230974
O13   O     O_R   0.531780 0.866616 0.727358 -0.349247
O14   O     O_R   0.443576 0.767219 0.791391 -0.344122
N6    N     N_R   0.829424 0.348455 0.027479 0.210855
O15   O     O_R   0.939890 0.369979 0.044313 -0.270803
O16   O     O_R   0.815274 0.255039 0.994248 -0.317680
F2    F     F_    0.125370 0.755922 0.497002 -0.546088
F3    F     F_    0.106330 0.260343 0.516868 -0.505265
N7    N     N_R   0.895844 0.767853 0.480358 0.359356
O17   O     O_R   0.944219 0.778949 0.437489 -0.205626
O18   O     O_R   0.859776 0.881691 0.501116 -0.239937
N8    N     N_R   0.871921 0.273848 0.547442 0.275314
O19   O     O_R   0.883810 0.172522 0.517014 -0.164611
O20   O     O_R   0.816986 0.251648 0.588563 -0.400457
N9    N     N_R   0.887642 0.543071 0.405280 0.236119
O21   O     O_R   0.773465 0.587712 0.405345 -0.317865
O22   O     O_R   0.945952 0.540630 0.364007 -0.307319
N10   N     N_R   0.907499 0.314319 0.433168 0.269906
O23   O     O_R   0.806702 0.291620 0.409004 -0.249204
O24   O     O_R   0.992624 0.217823 0.432696 -0.237062
F4    F     F_    0.317864 0.133566 0.545955 -0.516662
F5    F     F_    0.317583 0.872818 0.546076 -0.526555
F6    F     F_    0.674327 0.119035 0.448723 -0.492951
F7    F     F_    0.663875 0.860281 0.442828 -0.498098
F8    F     F_    0.173062 0.376217 0.971463 -0.552004
F9    F     F_    0.173632 0.560487 0.029888 -0.572341

loop_
_geom_bond_atom_site_label_1
_geom_bond_atom_site_label_2
_geom_bond_distance
_ccdc_geom_bond_type
C28   C32   1.397434 A    
C44   H15   1.116113 S    
C17   C29   1.400479 A    
C20   C24   1.410823 A    
C7    C8    1.387285 A    
C28   H5    1.083240 S    
C12   C15   1.406551 A    
C1    C46   1.461152 S    
C49   N3    1.490694 S    
C44   N8    1.470202 S    
H17   C45   1.110455 S    
Zn1   O7    2.008985 S    
N1    C11   1.423947 S    
C25   C39   1.405057 A    
C49   F4    1.386938 S    
C21   C22   1.389855 A    
H16   C45   1.113045 S    
C39   F1    1.358011 S    
C23   C24   1.408089 A    
O7    C4    1.292359 A    
H20   C51   1.111345 S    
C5    C13   1.398060 A    
C52   F7    1.380513 S    
C5    O9    1.350046 S    
C50   N4    1.490215 S    
C19   C38   1.408849 A    
C18   C21   1.414483 A    
C31   N5    1.442077 S    
N10   O23   1.300576 A    
N1    C6    1.365833 A    
C19   C20   1.414177 A    
C26   N2    1.366491 A    
C42   H13   1.114428 S    
O5    C3    1.281625 A    
N8    O19   1.298559 A    
C6    O11   1.350023 S    
C22   H6    1.083441 S    
C2    C16   1.460148 S    
C51   N3    1.489600 S    
N7    O17   1.300484 A    
O6    C3    1.295768 A    
C42   C44   1.535363 S    
Zn2   N3    2.005564 S    
C41   C43   1.539626 S    
C37   H9    1.083458 S    
C3    C47   1.484314 S    
C14   H3    1.083492 S    
C9    C10   1.390480 A    
N7    O18   1.298828 A    
C40   N6    1.438333 S    
O3    Zn1   2.007023 S    
C53   H22   1.100614 S    
Zn1   N4    2.005563 S    
C33   C36   1.416091 A    
C38   H10   1.080348 S    
C34   C35   1.418818 A    
C21   F8    1.356946 S    
C12   C13   1.407945 A    
C43   H14   1.116694 S    
C24   C25   1.411140 A    
C45   C46   1.549785 S    
C27   O10   1.349978 S    
C8    C16   1.404307 A    
C18   C33   1.414124 A    
C9    H1    1.082914 S    
C36   F9    1.356657 S    
O1    C1    1.281365 A    
C50   F5    1.387646 S    
C7    C11   1.396632 A    
C22   C23   1.398818 A    
C54   N4    1.485589 S    
C37   C40   1.396840 A    
C53   N3    1.488172 S    
C31   C32   1.413029 A    
C43   N7    1.477400 S    
Zn2   O8    2.007239 S    
C38   C39   1.389756 A    
C33   C34   1.420035 A    
N2    C32   1.425074 S    
C54   H25   1.111594 S    
C8    H7    1.082709 S    
N6    O16   1.301647 A    
O3    C2    1.292726 A    
C25   C26   1.402346 A    
C50   H19   1.111804 S    
C9    C16   1.404262 A    
O8    C4    1.291988 A    
C29   H4    1.083055 S    
C49   H18   1.112758 S    
H21   C52   1.112967 S    
C42   C46   1.551032 S    
N2    C27   1.365206 A    
C14   C36   1.388910 A    
C28   C29   1.384693 A    
N9    O21   1.300374 A    
C5    N1    1.365642 A    
C30   C31   1.399387 A    
C10   H2    1.082884 S    
N5    O14   1.301047 A    
O1    Zn1   2.041313 S    
C17   C30   1.403642 A    
Zn2   O6    2.040570 S    
O2    Zn2   2.029627 S    
C6    C15   1.399114 A    
C4    C17   1.461225 S    
C47   C48   1.608531 S    
C15   C37   1.397615 A    
O4    Zn2   2.008766 S    
C42   F3    1.385093 S    
C53   H24   1.111247 S    
C7    H8    1.083026 S    
C19   C35   1.415521 A    
N5    O13   1.301803 A    
O2    C1    1.286134 A    
C13   C14   1.397264 A    
C30   H11   1.082974 S    
C43   C47   1.603965 S    
C45   C48   1.568424 S    
C53   C54   1.570991 S    
O4    C2    1.290758 A    
C41   C46   1.559952 S    
C48   N10   1.477246 S    
C18   C20   1.415449 A    
C44   C47   1.593608 S    
N10   O24   1.302473 A    
C52   N4    1.485334 S    
N6    O15   1.301525 A    
N8    O20   1.301993 A    
C54   H23   1.100372 S    
Zn1   O5    2.028884 S    
C23   C27   1.396389 A    
C51   C52   1.574445 S    
C41   H12   1.114209 S    
C49   C50   1.582268 S    
C41   F2    1.386765 S    
C48   N9    1.480699 S    
C10   C11   1.398168 A    
C12   C34   1.409968 A    
C26   O12   1.349416 S    
C35   C40   1.424919 A    
C51   F6    1.376184 S    
N9    O22   1.302831 A    
