data_mof_unit_36401.cif
_audit_creation_date              2013-03-05T16:01:16-0500
_audit_creation_method            fapswitch 2.2
_symmetry_space_group_name_H-M    P1
_symmetry_Int_Tables_number       1
_space_group_crystal_system       triclinic
_cell_length_a                    14.714923
_cell_length_b                    14.80604
_cell_length_c                    17.375093
_cell_angle_alpha                 106.239895
_cell_angle_beta                  73.126444
_cell_angle_gamma                 114.828857
_cell_volume                      3232.98047695

loop_
_atom_site_label
_atom_site_type_symbol
_atom_site_description
_atom_site_fract_x
_atom_site_fract_y
_atom_site_fract_z
_atom_type_partial_charge
O1    O     O_R   0.020090 0.662480 0.528530 -0.541811
O2    O     O_R   0.979910 0.337520 0.471470 -0.541912
O3    O     O_R   0.160710 0.620650 0.491980 -0.601527
O4    O     O_R   0.839290 0.379350 0.508020 -0.601557
C1    C     C_R   0.118609 0.687800 0.513771 0.823481
C2    C     C_R   0.881432 0.312207 0.485733 0.823671
O5    O     O_R   0.921540 0.523360 0.633990 -0.540004
O6    O     O_R   0.078460 0.476640 0.366010 -0.540565
O7    O     O_R   0.062170 0.481520 0.597440 -0.598665
O8    O     O_R   0.937830 0.518480 0.402560 -0.598755
C3    C     C_R   0.988822 0.502029 0.652386 0.818555
C4    C     C_R   0.011172 0.497960 0.347612 0.817079
Cu1   Cu    Cu3+1 0.916740 0.524770 0.521640 1.001341
Cu2   Cu    Cu3+1 0.083260 0.475230 0.478360 1.001313
C5    C     C_R   0.980891 0.498678 0.737399 -0.043666
C6    C     C_R   0.019092 0.501278 0.262593 -0.043262
C7    C     C_R   0.048283 0.467945 0.756935 -0.184009
C8    C     C_R   0.951717 0.532025 0.243048 -0.184006
C9    C     C_R   0.040680 0.463298 0.837258 -0.119462
C10   C     C_R   0.959309 0.536634 0.162718 -0.119452
C11   C     C_R   0.966360 0.490707 0.899450 0.175819
C12   C     C_R   0.033603 0.509178 0.100529 0.175808
C13   C     C_R   0.897390 0.519008 0.879894 -0.141928
C14   C     C_R   0.102553 0.480859 0.120093 -0.141972
C15   C     C_R   0.904771 0.523428 0.799282 -0.137519
C16   C     C_R   0.095180 0.476472 0.200712 -0.137790
C17   C     C_2   0.958822 0.489970 0.985173 -0.201062
C18   C     C_2   0.041139 0.509895 0.014803 -0.200764
H1    H     H_    0.106540 0.446689 0.710162 0.163601
H2    H     H_    0.893484 0.553321 0.289820 0.163593
H3    H     H_    0.148725 0.453495 0.214426 0.194675
H4    H     H_    0.851205 0.546382 0.785573 0.195084
H5    H     H_    0.116022 0.524775 0.975087 0.157257
H6    H     H_    0.883940 0.475090 0.024891 0.157018
H7    H     H_    0.838930 0.539257 0.927222 0.147250
H8    H     H_    0.160992 0.460570 0.072766 0.147093
H9    H     H_    0.907775 0.562888 0.149850 0.137278
H10   H     H_    0.092229 0.437055 0.850116 0.137082
C19   C     C_R   0.185499 0.795109 0.522352 -0.062709
C20   C     C_R   0.814532 0.204979 0.478175 -0.061500
C21   C     C_R   0.211630 0.972866 0.555351 -0.142056
C22   C     C_R   0.787813 0.027809 0.455314 -0.142137
C23   C     C_R   0.145800 0.871930 0.547400 -0.137700
C24   C     C_R   0.853804 0.128582 0.460223 -0.138964
C25   C     C_R   0.291245 0.820210 0.505343 -0.224125
C26   C     C_R   0.709104 0.179619 0.490676 -0.221536
C27   C     C_R   0.359438 0.921342 0.514677 0.096233
C28   C     C_R   0.640431 0.078954 0.489162 0.093047
C29   C     C_R   0.317728 0.998077 0.539219 0.158005
C30   C     C_R   0.681840 0.002510 0.469693 0.153572
C31   C     C_R   0.467389 0.948159 0.499824 0.070443
C32   C     C_R   0.532355 0.052289 0.506263 0.074587
C33   C     C_R   0.487002 0.126219 0.531277 -0.166066
C34   C     C_R   0.512476 0.874542 0.479966 -0.165515
C35   C     C_R   0.381985 0.099298 0.547632 -0.139891
C36   C     C_R   0.617378 0.901521 0.465128 -0.135492
H11   H     H_    0.350827 0.158563 0.566836 0.152266
H12   H     H_    0.648271 0.842496 0.450376 0.155668
H13   H     H_    0.682800 0.240314 0.500795 0.150435
H14   H     H_    0.318287 0.758824 0.483816 0.150853
H15   H     H_    0.935225 0.146591 0.450084 0.190758
H16   H     H_    0.064178 0.854144 0.560580 0.194205
H17   H     H_    0.179570 0.031392 0.574337 0.153052
H18   H     H_    0.819575 0.969548 0.440973 0.154375
H19   H     H_    0.529844 0.206405 0.540707 0.134937
H20   H     H_    0.469389 0.794735 0.476730 0.135623
N1    N     N_R   0.208390 0.438070 0.445820 -0.236899
N2    N     N_R   0.791610 0.561930 0.554180 -0.236331
C37   C     C_R   0.294307 0.324723 0.365414 0.281060
C38   C     C_R   0.704380 0.673359 0.636755 0.282578
C39   C     C_R   0.213324 0.358671 0.383491 0.479536
C40   C     C_R   0.786320 0.640532 0.617273 0.478876
C41   C     C_R   0.286453 0.490331 0.487433 -0.067538
C42   C     C_R   0.713197 0.509616 0.512938 -0.067780
C43   C     C_R   0.372308 0.461137 0.470533 -0.085322
C44   C     C_R   0.626741 0.538152 0.530955 -0.085598
C45   C     C_R   0.369457 0.369998 0.414378 -0.118858
C46   C     C_R   0.629081 0.628540 0.587978 -0.118619
C47   C     C_R   0.459691 0.518500 0.508152 0.064051
C48   C     C_R   0.539095 0.480625 0.493762 0.063089
C49   C     C_R   0.525663 0.383532 0.446711 -0.298674
C50   C     C_R   0.472625 0.615102 0.556112 -0.300651
C51   C     C_R   0.442187 0.327691 0.408546 0.378819
C52   C     C_R   0.555650 0.670441 0.594905 0.376010
H21   H     H_    0.721430 0.448283 0.464125 0.158699
H22   H     H_    0.278243 0.552118 0.535700 0.159727
H23   H     H_    0.576572 0.346257 0.442418 0.158951
H24   H     H_    0.421314 0.652217 0.561267 0.158765
N3    N     N_R   0.426423 0.223470 0.373091 0.162266
O9    O     O_R   0.503576 0.197802 0.330897 -0.323107
O10   O     O_R   0.339602 0.153010 0.395841 -0.326615
N4    N     N_R   0.570007 0.773879 0.632524 0.160776
O11   O     O_R   0.491966 0.797961 0.674890 -0.322778
O12   O     O_R   0.656802 0.845670 0.612096 -0.328924
Cl1   Cl    Cl    0.882966 0.704338 0.675482 -0.539934
Cl2   Cl    Cl    0.117282 0.295282 0.324688 -0.536166
Cl3   Cl    Cl    0.306833 0.235898 0.274031 -0.433590
Cl4   Cl    Cl    0.690682 0.759448 0.729745 -0.433497

loop_
_geom_bond_atom_site_label_1
_geom_bond_atom_site_label_2
_geom_bond_distance
_ccdc_geom_bond_type
C25   H14   1.073075 S    
C26   H13   1.073568 S    
C38   C46   1.414008 A    
C7    H1    1.083266 S    
C37   C45   1.414437 A    
C27   C29   1.418480 A    
O5    C3    1.298036 A    
C14   H8    1.083588 S    
C42   C44   1.428712 A    
O1    C1    1.299800 A    
C9    C11   1.403484 A    
C14   C16   1.390994 A    
C28   C32   1.427334 A    
C5    C15   1.403627 A    
C45   C51   1.418637 A    
N2    C42   1.365197 A    
C25   C27   1.404318 A    
O4    Cu1   1.949738 S    
C37   C39   1.403139 A    
C40   Cl1   1.763553 S    
C3    C5    1.460813 S    
C4    C6    1.460813 S    
Cu2   N1    2.021174 S    
N1    C41   1.365199 A    
N3    O10   1.301902 A    
C33   H19   1.075363 S    
C8    C10   1.386216 A    
N2    C40   1.369376 A    
C19   C25   1.398407 A    
C15   H4    1.082943 S    
C28   C30   1.418512 A    
C11   C17   1.463908 S    
C16   H3    1.082942 S    
C12   C18   1.463896 S    
Cu1   Cu2   2.690504 S    
C21   C23   1.391865 A    
O2    C2    1.299663 A    
C22   C24   1.391605 A    
C21   C29   1.403696 A    
C49   C51   1.394786 A    
C34   C36   1.384765 A    
C33   C35   1.385201 A    
C17   H6    1.085660 S    
C6    C16   1.403624 A    
C51   N3    1.437054 S    
C26   C28   1.404247 A    
C31   C32   1.425210 A    
C2    C20   1.467235 S    
O4    C2    1.298373 A    
C27   C31   1.427297 A    
C39   Cl2   1.763512 S    
C29   C35   1.388919 A    
C30   C36   1.388532 A    
C20   C26   1.398468 A    
O7    Cu2   1.982322 S    
C9    H10   1.082007 S    
C43   C45   1.419318 A    
C20   C24   1.399172 A    
O6    C4    1.298027 A    
N4    O12   1.301830 A    
C35   H11   1.084810 S    
O7    C3    1.297487 A    
C49   H23   1.078447 S    
O3    Cu2   1.949740 S    
O8    C4    1.297505 A    
C22   C30   1.403573 A    
C8    H2    1.083256 S    
C10   C12   1.403476 A    
C18   H5    1.085655 S    
C13   H7    1.083593 S    
C1    C19   1.467908 S    
C12   C14   1.399273 A    
O1    Cu1   1.962004 S    
C41   C43   1.428774 A    
C22   H18   1.084160 S    
C32   C33   1.418256 A    
C5    C7    1.402307 A    
O6    Cu2   1.979940 S    
C44   C48   1.435207 A    
C44   C46   1.418918 A    
C48   C49   1.404228 A    
O3    C1    1.298532 A    
O8    Cu1   1.982322 S    
C47   C50   1.404708 A    
C19   C23   1.399247 A    
C34   H20   1.075062 S    
C24   H15   1.083059 S    
C50   C52   1.395247 A    
C31   C34   1.418215 A    
C11   C13   1.399284 A    
C10   H9    1.082007 S    
C50   H24   1.077833 S    
N4    O11   1.301578 A    
C7    C9    1.386210 A    
C36   H12   1.084796 S    
N1    C39   1.368957 A    
C13   C15   1.390995 A    
C42   H21   1.077320 S    
O2    Cu2   1.962005 S    
C41   H22   1.076895 S    
C47   C48   1.429852 A    
C46   C52   1.418657 A    
O5    Cu1   1.979940 S    
C6    C8    1.402295 A    
C17   C18   1.340248 D    
C21   H17   1.084149 S    
C38   C40   1.402795 A    
C52   N4    1.437327 S    
N3    O9    1.301593 A    
C43   C47   1.436027 A    
C38   Cl4   1.775022 S    
C23   H16   1.082958 S    
Cu1   N2    2.021174 S    
C37   Cl3   1.774923 S    
