data_mof_unit_59282.cif
_audit_creation_date              2012-12-10T18:59:17-0500
_audit_creation_method            fapswitch 2.2
_symmetry_space_group_name_H-M    P1
_symmetry_Int_Tables_number       1
_space_group_crystal_system       triclinic
_cell_length_a                    10.763697
_cell_length_b                    10.827711
_cell_length_c                    9.562672
_cell_angle_alpha                 90.329178
_cell_angle_beta                  89.924693
_cell_angle_gamma                 90.264035
_cell_volume                      1114.46193602

loop_
_atom_site_label
_atom_site_type_symbol
_atom_type_description
_atom_site_fract_x
_atom_site_fract_y
_atom_site_fract_z
_atom_type_partial_charge
C1    C     C_R   0.497029 0.262421 0.499572 0.793464
C2    C     C_R   0.066074 0.610038 0.564615 0.099264
C3    C     C_R   0.128975 0.510435 0.500124 -0.093868
C4    C     C_R   0.063812 0.416257 0.431817 -0.189348
C5    C     C_R   0.935613 0.416170 0.431891 -0.140872
C6    C     C_R   0.871126 0.510764 0.499353 -0.061736
C7    C     C_R   0.473906 0.064702 0.623641 0.123257
C8    C     C_R   0.483458 0.129407 0.498395 -0.099713
C9    C     C_R   0.475136 0.063621 0.371562 -0.216440
C10   C     C_R   0.475823 0.934837 0.372080 -0.197700
C11   C     C_R   0.484862 0.870916 0.499416 -0.095322
C12   C     C_R   0.262655 0.502934 0.500112 0.783595
C13   C     C_R   0.474658 0.937547 0.624291 0.117724
C14   C     C_3   0.552312 0.934041 0.753499 -0.484697
C15   C     C_3   0.550830 0.074051 0.752955 -0.443858
C16   C     C_R   0.606651 0.524886 0.073627 0.241303
C17   C     C_R   0.398394 0.462915 0.074130 -0.083846
C18   C     C_R   0.398373 0.462978 0.925613 -0.073037
C19   C     C_R   0.606453 0.524421 0.926313 0.206248
C20   C     C_3   0.682296 0.639234 0.919392 -0.535593
C21   C     C_3   0.681827 0.641316 0.078117 0.175161
C22   C     C_R   0.497757 0.737728 0.500161 0.781103
C23   C     C_R   0.737364 0.503065 0.499864 0.800269
C24   C     C_R   0.130435 0.710622 0.626248 -0.171816
C25   C     C_R   0.065685 0.809287 0.685282 -0.112509
C26   C     C_R   0.936435 0.810543 0.682359 -0.119974
C27   C     C_R   0.871154 0.712876 0.620906 -0.184532
C28   C     C_R   0.934776 0.610718 0.563054 0.113298
Cu1   Cu    Cu3+1 0.499990 0.499980 0.640670 0.937708
Cu2   Cu    Cu3+1 0.500010 0.500020 0.359330 0.965533
H1    H     H_    0.112620 0.341094 0.380744 0.140066
H2    H     H_    0.646241 0.895405 0.733968 0.190975
H3    H     H_    0.498194 0.114495 0.842089 0.198724
H4    H     H_    0.643768 0.116033 0.733751 0.200321
H5    H     H_    0.315414 0.434070 0.128863 0.158470
H6    H     H_    0.315362 0.434271 0.870727 0.153991
H7    H     H_    0.774958 0.621833 0.872257 0.240818
H8    H     H_    0.630370 0.716580 0.872858 0.177633
H9    H     H_    0.630919 0.720845 0.124316 0.124806
H10   H     H_    0.230779 0.715147 0.627597 0.141771
H11   H     H_    0.116085 0.885785 0.731971 0.134684
H12   H     H_    0.886602 0.888008 0.726831 0.133363
H13   H     H_    0.770954 0.718874 0.617961 0.133923
H14   H     H_    0.886255 0.340893 0.381018 0.146066
H15   H     H_    0.474792 0.110916 0.272065 0.167619
H16   H     H_    0.475732 0.886192 0.272794 0.163162
H17   H     H_    0.500893 0.894088 0.843539 0.196608
N1    N     N_R   0.500790 0.500930 0.147930 -0.215608
N2    N     N_R   0.500790 0.500890 0.852020 -0.184475
O1    O     O_R   0.500000 0.319640 0.618810 -0.575284
O2    O     O_R   0.500010 0.319680 0.381230 -0.585130
O3    O     O_R   0.319640 0.499980 0.618820 -0.593751
O4    O     O_R   0.319650 0.500020 0.381230 -0.578952
O5    O     O_R   0.499990 0.680320 0.618770 -0.587476
O6    O     O_R   0.500000 0.680360 0.381190 -0.582292
O7    O     O_R   0.680350 0.499980 0.618770 -0.591791
O8    O     O_R   0.680360 0.500020 0.381180 -0.531157
Cl1   Cl    Cl    0.833546 0.618523 0.148381 -0.610150

loop_
_geom_bond_atom_site_label_1
_geom_bond_atom_site_label_2
_ccdc_geom_bond_type
C10   H16   S    
Cu2   O2    S    
C15   H4    S    
C9    H15   S    
C16   C21   S    
Cu1   O7    S    
C1    C8    S    
C20   H8    S    
C9    C10   A    
C19   N2    A    
C11   C22   S    
C12   O4    A    
C21   H9    S    
C17   N1    A    
C7    C13   A    
Cu1   O5    S    
C16   N1    A    
C7    C15   S    
C17   C18   A    
C23   O7    A    
C22   O5    A    
Cu1   N2    S    
C13   C14   S    
C20   C21   S    
C20   H7    S    
C1    O2    A    
C26   C27   A    
C22   O6    A    
C16   C19   A    
C6    C23   S    
Cu2   N1    S    
C12   O3    A    
C5    H14   S    
C2    C3    A    
Cu1   O1    S    
C2    C24   A    
C5    C6    A    
Cu2   O4    S    
C11   C13   A    
C7    C8    A    
C10   C11   A    
Cu1   Cu2   S    
C3    C4    A    
C4    H1    S    
Cu2   O8    S    
C27   H13   S    
C21   Cl1   S    
C24   C25   A    
C26   H12   S    
C1    O1    A    
C25   H11   S    
C27   C28   A    
C23   O8    A    
C14   C15   S    
C4    C5    A    
C2    C28   A    
C3    C12   S    
C17   H5    S    
C24   H10   S    
C25   C26   A    
C14   H17   S    
C18   H6    S    
Cu2   O6    S    
C15   H3    S    
C6    C28   A    
C19   C20   S    
C18   N2    A    
C14   H2    S    
C8    C9    A    
Cu1   O3    S    
