data_mof_unit_7720.cif
_audit_creation_date              2012-12-11T15:25:37-0500
_audit_creation_method            fapswitch 2.2
_symmetry_space_group_name_H-M    P1
_symmetry_Int_Tables_number       1
_space_group_crystal_system       monoclinic
_cell_length_a                    24.815976
_cell_length_b                    17.204958
_cell_length_c                    15.682275
_cell_angle_alpha                 90.0
_cell_angle_beta                  50.018899
_cell_angle_gamma                 90.0
_cell_volume                      5130.60017268

loop_
_atom_site_label
_atom_site_type_symbol
_atom_type_description
_atom_site_fract_x
_atom_site_fract_y
_atom_site_fract_z
_atom_type_partial_charge
C1    C     C_R   0.332701 0.104623 0.804015 0.002357
C2    C     C_R   0.648239 0.856943 0.244343 -0.011350
C3    C     C_R   0.667299 0.104623 0.195985 0.002357
C4    C     C_R   0.351761 0.856943 0.755657 -0.011350
C5    C     C_R   0.832612 0.606264 0.803111 -0.033161
C6    C     C_R   0.142433 0.352650 0.257296 -0.001970
C7    C     C_R   0.167388 0.606264 0.196889 -0.033162
C8    C     C_R   0.857567 0.352650 0.742704 -0.001969
C9    C     C_2   0.698887 0.140122 0.014919 -0.308421
C10   C     C_2   0.355118 0.742834 0.854100 -0.274006
C11   C     C_2   0.301113 0.140122 0.985081 -0.308420
C12   C     C_2   0.644882 0.742834 0.145900 -0.274005
C13   C     C_2   0.196976 0.654442 0.018224 -0.287469
C14   C     C_2   0.868771 0.234123 0.826526 -0.213425
C15   C     C_2   0.803023 0.654442 0.981776 -0.287468
C16   C     C_2   0.131230 0.234123 0.173474 -0.213424
C17   C     C_2   0.751035 0.190253 0.978528 0.375396
C18   C     C_2   0.312895 0.694342 0.852821 0.379667
C19   C     C_2   0.248965 0.190253 0.021472 0.375397
C20   C     C_2   0.687105 0.694342 0.147179 0.379667
C21   C     C_2   0.266916 0.641055 0.948350 0.389242
C22   C     C_2   0.808909 0.203240 0.857625 0.380543
C23   C     C_2   0.733084 0.641055 0.051650 0.389241
C24   C     C_2   0.191091 0.203240 0.142375 0.380544
C25   C     C_R   0.584417 0.144549 0.594534 -0.122021
C26   C     C_R   0.387825 0.891493 0.407655 -0.135156
C27   C     C_R   0.415583 0.144549 0.405466 -0.122021
C28   C     C_R   0.612175 0.891493 0.592345 -0.135156
C29   C     C_R   0.084549 0.644456 0.594491 -0.133066
C30   C     C_R   0.886758 0.393580 0.408198 -0.140155
C31   C     C_R   0.915451 0.644456 0.405509 -0.133066
C32   C     C_R   0.113242 0.393580 0.591802 -0.140155
C33   C     C_R   0.663324 0.143972 0.409178 -0.063655
C34   C     C_R   0.311903 0.895672 0.592882 -0.102217
C35   C     C_R   0.336676 0.143972 0.590822 -0.063654
C36   C     C_R   0.688097 0.895672 0.407118 -0.102217
C37   C     C_R   0.163865 0.643534 0.409163 -0.061786
C38   C     C_R   0.811375 0.397394 0.593071 -0.121026
C39   C     C_R   0.836135 0.643534 0.590837 -0.061785
C40   C     C_R   0.188625 0.397394 0.406929 -0.121026
C41   C     C_R   0.578215 0.104161 0.195448 -0.192840
C42   C     C_R   0.440398 0.858419 0.759110 -0.172156
C43   C     C_R   0.421785 0.104161 0.804552 -0.192840
C44   C     C_R   0.559602 0.858419 0.240890 -0.172155
C45   C     C_R   0.078325 0.607226 0.196384 -0.177840
C46   C     C_R   0.945905 0.354487 0.746466 -0.156354
C47   C     C_R   0.921675 0.607226 0.803616 -0.177840
C48   C     C_R   0.054095 0.354487 0.253534 -0.156354
C49   C     C_R   0.351898 0.123185 0.866462 0.224899
C50   C     C_R   0.616902 0.815120 0.211222 0.176439
C51   C     C_R   0.648102 0.123186 0.133538 0.224900
C52   C     C_R   0.383098 0.815120 0.788778 0.176439
C53   C     C_R   0.851058 0.625501 0.866508 0.185238
C54   C     C_R   0.107458 0.308654 0.232214 0.112460
C55   C     C_R   0.148942 0.625501 0.133492 0.185238
C56   C     C_R   0.892542 0.308654 0.767786 0.112461
C57   C     C_R   0.636559 0.187577 0.503586 -0.033841
C58   C     C_R   0.320719 0.873601 0.500564 -0.036907
C59   C     C_R   0.363441 0.187577 0.496414 -0.033841
C60   C     C_R   0.679281 0.873601 0.499436 -0.036907
C61   C     C_R   0.136900 0.687213 0.503555 -0.034951
C62   C     C_R   0.819307 0.376764 0.501138 -0.026408
C63   C     C_R   0.863100 0.687213 0.496445 -0.034951
C64   C     C_R   0.180692 0.376764 0.498862 -0.026408
C65   C     C_R   0.300098 0.218653 0.432479 -0.168055
C66   C     C_R   0.753016 0.856816 0.551162 -0.154113
C67   C     C_R   0.699901 0.218654 0.567521 -0.168055
C68   C     C_R   0.246984 0.856816 0.448837 -0.154112
C69   C     C_R   0.798485 0.716014 0.434303 -0.171454
C70   C     C_R   0.253731 0.358344 0.552021 -0.155553
C71   C     C_R   0.201515 0.716014 0.565697 -0.171455
C72   C     C_R   0.746269 0.358344 0.447978 -0.155553
C73   C     C_R   0.751315 0.760606 0.438565 -0.096803
C74   C     C_R   0.301528 0.312694 0.547477 -0.093233
C75   C     C_R   0.248685 0.760606 0.561435 -0.096802
C76   C     C_R   0.698472 0.312694 0.452522 -0.093233
C77   C     C_R   0.253513 0.264020 0.436113 -0.101569
C78   C     C_R   0.801300 0.811922 0.546108 -0.089493
C79   C     C_R   0.746487 0.264020 0.563888 -0.101569
C80   C     C_R   0.198699 0.811922 0.453892 -0.089493
C81   C     C_R   0.728568 0.830250 0.497339 0.180999
C82   C     C_R   0.323355 0.242436 0.489186 0.116373
C83   C     C_R   0.271432 0.830250 0.502661 0.180999
C84   C     C_R   0.676645 0.242436 0.510814 0.116373
C85   C     C_R   0.230206 0.333125 0.496296 0.181991
C86   C     C_R   0.822739 0.741222 0.489032 0.123536
C87   C     C_R   0.769794 0.333125 0.503704 0.181991
C88   C     C_R   0.177261 0.741222 0.510968 0.123536
H1    H     H_    0.279195 0.095263 0.838047 0.153426
H2    H     H_    0.694698 0.840572 0.231498 0.155547
H3    H     H_    0.720805 0.095263 0.161953 0.153426
H4    H     H_    0.305302 0.840572 0.768502 0.155547
H5    H     H_    0.779904 0.601617 0.832925 0.191550
H6    H     H_    0.186696 0.334654 0.249701 0.143730
H7    H     H_    0.220096 0.601617 0.167074 0.191550
H8    H     H_    0.813304 0.334654 0.750299 0.143730
H9    H     H_    0.556364 0.158220 0.681067 0.118778
H10   H     H_    0.409181 0.889410 0.322073 0.105613
H11   H     H_    0.443636 0.158220 0.318933 0.118778
H12   H     H_    0.590819 0.889410 0.677927 0.105613
H13   H     H_    0.056842 0.658039 0.680903 0.116433
H14   H     H_    0.907834 0.392113 0.322734 0.106093
H15   H     H_    0.943158 0.658039 0.319097 0.116433
H16   H     H_    0.092166 0.392113 0.677266 0.106093
H17   H     H_    0.550346 0.098337 0.163996 0.106992
H18   H     H_    0.475668 0.843160 0.774536 0.117360
H19   H     H_    0.449654 0.098337 0.836004 0.106992
H20   H     H_    0.524332 0.843160 0.225464 0.117360
H21   H     H_    0.049951 0.604846 0.165530 0.107292
H22   H     H_    0.982453 0.338203 0.758810 0.117682
H23   H     H_    0.950049 0.604846 0.834470 0.107292
H24   H     H_    0.017547 0.338203 0.241190 0.117682
H25   H     H_    0.315703 0.163422 0.389242 0.123394
H26   H     H_    0.734853 0.911376 0.596173 0.121486
H27   H     H_    0.684297 0.163422 0.610758 0.123394
H28   H     H_    0.265146 0.911376 0.403827 0.121486
H29   H     H_    0.813825 0.660348 0.392178 0.123505
H30   H     H_    0.235191 0.412422 0.598200 0.122001
H31   H     H_    0.186175 0.660348 0.607822 0.123505
H32   H     H_    0.764809 0.412421 0.401799 0.122002
H33   H     H_    0.731549 0.740371 0.397686 0.131973
H34   H     H_    0.319901 0.330643 0.591133 0.157049
H35   H     H_    0.268451 0.740371 0.602314 0.131972
H36   H     H_    0.680099 0.330643 0.408866 0.157050
H37   H     H_    0.234435 0.244603 0.393898 0.130152
H38   H     H_    0.820259 0.830685 0.588631 0.148139
H39   H     H_    0.765564 0.244603 0.606103 0.130152
H40   H     H_    0.179741 0.830685 0.411369 0.148138
H41   H     H_    0.362611 0.734089 0.914541 0.125320
H42   H     H_    0.695138 0.108884 0.958786 0.112638
H43   H     H_    0.637389 0.734089 0.085459 0.125320
H44   H     H_    0.304862 0.108883 0.041214 0.112638
H45   H     H_    0.883645 0.223923 0.877439 0.113275
H46   H     H_    0.175237 0.695341 0.994528 0.116312
H47   H     H_    0.116355 0.223923 0.122561 0.113274
H48   H     H_    0.824763 0.695341 0.005472 0.116312
N1    N     N_R   0.388930 0.078160 0.705470 -0.072204
N2    N     N_R   0.611070 0.921840 0.294530 -0.056940
N3    N     N_R   0.611070 0.078160 0.294530 -0.072204
N4    N     N_R   0.388930 0.921840 0.705470 -0.056940
N5    N     N_R   0.888930 0.578160 0.705470 -0.069227
N6    N     N_R   0.111070 0.421840 0.294530 -0.044807
N7    N     N_R   0.111070 0.578160 0.294530 -0.069227
N8    N     N_R   0.888930 0.421840 0.705470 -0.044807
N9    N     N_R   0.580500 0.077840 0.556650 -0.050786
N10   N     N_R   0.419500 0.922160 0.443350 -0.041586
N11   N     N_R   0.419500 0.077840 0.443350 -0.050786
N12   N     N_R   0.580500 0.922160 0.556650 -0.041586
N13   N     N_R   0.080500 0.577840 0.556650 -0.050261
N14   N     N_R   0.919500 0.422160 0.443350 -0.043362
N15   N     N_R   0.919500 0.577840 0.443350 -0.050261
N16   N     N_R   0.080500 0.422160 0.556650 -0.043362
N17   N     N_R   0.626210 0.077590 0.443410 -0.060261
N18   N     N_R   0.373790 0.922410 0.556590 -0.057698
N19   N     N_R   0.373790 0.077590 0.556590 -0.060261
N20   N     N_R   0.626210 0.922410 0.443410 -0.057698
N21   N     N_R   0.126210 0.577590 0.443410 -0.060832
N22   N     N_R   0.873790 0.422410 0.556590 -0.060465
N23   N     N_R   0.873790 0.577590 0.556590 -0.060832
N24   N     N_R   0.126210 0.422410 0.443410 -0.060465
N25   N     N_R   0.554800 0.077270 0.294580 -0.049755
N26   N     N_R   0.445200 0.922730 0.705420 -0.052116
N27   N     N_R   0.445200 0.077270 0.705420 -0.049755
N28   N     N_R   0.554800 0.922730 0.294580 -0.052116
N29   N     N_R   0.054800 0.577270 0.294580 -0.049288
N30   N     N_R   0.945200 0.422730 0.705420 -0.049064
N31   N     N_R   0.945200 0.577270 0.705420 -0.049288
N32   N     N_R   0.054800 0.422730 0.294580 -0.049064
Ni1   Ni    Ni4+2 0.382710 0.000000 0.629850 0.278574
Ni2   Ni    Ni4+2 0.617290 0.000000 0.370150 0.278574
Ni3   Ni    Ni4+2 0.882710 0.500000 0.629850 0.289310
Ni4   Ni    Ni4+2 0.117290 0.500000 0.370150 0.289310
Ni5   Ni    Ni4+2 0.513020 0.000000 0.629850 0.207805
Ni6   Ni    Ni4+2 0.486980 0.000000 0.370150 0.207805
Ni7   Ni    Ni4+2 0.013020 0.500000 0.629850 0.210109
Ni8   Ni    Ni4+2 0.986980 0.500000 0.370150 0.210109
C89   C     C_2   0.732566 0.156544 0.299086 0.977296
O1    O     O_2   0.747313 0.219976 0.253959 -0.624173
O2    O     O_R   0.782058 0.096750 0.248176 -0.776381
H49   H     H_    0.827775 0.112553 0.173298 0.331603
C90   C     C_2   0.243745 0.912506 0.704198 1.014407
O3    O     O_2   0.242479 0.948806 0.772409 -0.647154
O4    O     O_R   0.180616 0.889010 0.730699 -0.797020
H50   H     H_    0.137892 0.904674 0.808785 0.332087
C91   C     C_2   0.267434 0.156544 0.700914 0.977296
O5    O     O_2   0.252687 0.219976 0.746041 -0.624173
O6    O     O_R   0.217942 0.096750 0.751824 -0.776381
H51   H     H_    0.172225 0.112553 0.826702 0.331603
C92   C     C_2   0.756255 0.912506 0.295802 1.014407
O7    O     O_2   0.757521 0.948806 0.227591 -0.647154
O8    O     O_R   0.819384 0.889010 0.269301 -0.797020
H52   H     H_    0.862108 0.904674 0.191215 0.332087
C93   C     C_2   0.234353 0.654505 0.300505 0.947662
O9    O     O_2   0.251499 0.717904 0.254731 -0.663718
O10   O     O_R   0.282073 0.592961 0.251375 -0.770103
H53   H     H_    0.328792 0.607631 0.177199 0.336387
C94   C     C_2   0.743703 0.413641 0.705389 1.020470
O11   O     O_2   0.743393 0.445394 0.775399 -0.625484
O12   O     O_R   0.679984 0.394764 0.730850 -0.794756
H54   H     H_    0.637691 0.409468 0.809758 0.334740
C95   C     C_2   0.765647 0.654505 0.699495 0.947662
O13   O     O_2   0.748501 0.717904 0.745269 -0.663718
O14   O     O_R   0.717927 0.592961 0.748625 -0.770103
H55   H     H_    0.671208 0.607631 0.822801 0.336387
C96   C     C_2   0.256297 0.413641 0.294610 1.020470
O15   O     O_2   0.256607 0.445394 0.224601 -0.625484
O16   O     O_R   0.320016 0.394764 0.269150 -0.794756
H56   H     H_    0.362309 0.409468 0.190242 0.334740
O17   O     O_3   0.306901 0.700238 0.771304 -0.771310
H57   H     H_    0.273690 0.659596 0.785346 0.310630
O18   O     O_3   0.748155 0.232542 0.056875 -0.721447
H58   H     H_    0.776623 0.280417 0.022016 0.325327
O19   O     O_3   0.693099 0.700238 0.228696 -0.771310
H59   H     H_    0.726310 0.659596 0.214654 0.310630
O20   O     O_3   0.251845 0.232542 0.943125 -0.721448
H60   H     H_    0.223377 0.280417 0.977984 0.325327
O21   O     O_3   0.798810 0.197882 0.780638 -0.763112
H61   H     H_    0.747859 0.193597 0.820582 0.302830
O22   O     O_3   0.295498 0.584407 0.971245 -0.741162
H62   H     H_    0.347118 0.583958 0.909762 0.320809
O23   O     O_3   0.201189 0.197882 0.219362 -0.763112
H63   H     H_    0.252141 0.193597 0.179418 0.302830
O24   O     O_3   0.704502 0.584407 0.028755 -0.741162
H64   H     H_    0.652883 0.583958 0.090238 0.320809

loop_
_geom_bond_atom_site_label_1
_geom_bond_atom_site_label_2
_ccdc_geom_bond_type
C68   C80   A    
N14   Ni8   S    
O14   H55   S    
N16   N24   A    
N4    Ni1   S    
N25   Ni6   S    
C12   H43   S    
C41   N25   A    
N2    Ni2   S    
C18   C21   S    
C95   O13   D    
C14   C56   S    
O24   H64   S    
C8    H8    S    
C59   C82   S    
C7    C55   A    
C72   C76   A    
C10   C52   S    
C11   H44   S    
C76   C84   A    
C7    N7    A    
C65   C82   A    
N11   Ni6   S    
C77   H37   S    
N26   Ni5   S    
C24   O23   S    
N29   Ni8   S    
C48   C54   A    
C39   N23   A    
N8    Ni3   S    
C27   H11   S    
N30   Ni7   S    
C41   H17   S    
C12   C20   D    
C4    C52   A    
C75   H35   S    
C15   C53   S    
C3    H3    S    
N20   Ni2   S    
C35   N19   A    
N7    Ni4   S    
N21   Ni4   S    
C45   H21   S    
N22   Ni3   S    
C30   N14   A    
C37   N21   A    
N4    N26   A    
N5    Ni3   S    
C47   N31   A    
N3    Ni2   S    
C35   C59   A    
C13   H46   S    
C73   C81   A    
C26   N10   A    
C67   H27   S    
N7    N29   A    
C44   C50   A    
C2    C50   A    
N16   Ni7   S    
C5    N5    A    
O12   H54   S    
C75   C83   A    
N12   N20   A    
N2    N28   A    
C89   O2    S    
C9    C51   S    
N17   Ni2   S    
C70   C74   A    
C1    H1    S    
C32   H16   S    
N28   Ni6   S    
C96   O15   D    
C6    N6    A    
N14   N22   A    
N1    Ni1   S    
C47   C53   A    
N9    N17   A    
C28   H12   S    
C15   C23   D    
C77   C85   A    
C67   C84   A    
C16   C24   D    
C95   O14   S    
C8    C56   A    
C94   O11   D    
C25   C57   A    
C6    C54   A    
C46   N30   A    
C79   C87   A    
C42   C52   A    
C26   H10   S    
C44   H20   S    
C66   C78   A    
C27   N11   A    
C29   C61   A    
N5    N31   A    
C28   N12   A    
C13   C21   D    
O16   H56   S    
C2    N2    A    
C31   C63   A    
N3    N25   A    
C18   O17   S    
C67   C79   A    
C32   C64   A    
C1    C49   A    
C90   O4    S    
O22   H62   S    
N1    N27   A    
C78   H38   S    
C3    C51   A    
C43   C49   A    
C4    H4    S    
C15   H48   S    
C80   H40   S    
C6    H6    S    
O21   H61   S    
C90   O3    D    
C33   C89   S    
C36   C92   S    
N18   Ni1   S    
N8    N30   A    
N13   Ni7   S    
C37   C93   S    
O4    H50   S    
O23   H63   S    
C11   C49   S    
C61   C88   S    
C4    N4    A    
C65   C77   A    
C31   N15   A    
C60   C81   S    
N19   Ni1   S    
C12   C50   S    
O18   H58   S    
C32   N16   A    
C20   C23   S    
O19   H59   S    
C35   C91   S    
C11   C19   D    
C30   H14   S    
C93   O10   S    
O17   H57   S    
N24   Ni4   S    
C57   C84   S    
C29   H13   S    
C8    N8    A    
C43   H19   S    
C69   C73   A    
C71   C88   A    
C26   C58   A    
C38   N22   A    
C28   C60   A    
N23   Ni3   S    
C68   H28   S    
C25   H9    S    
C48   H24   S    
C22   O21   S    
C23   O24   S    
C89   O1    D    
C34   N18   A    
C73   H33   S    
C72   H32   S    
C30   C62   A    
C63   C86   S    
N10   N18   A    
C3    N3    A    
N27   Ni5   S    
C64   C85   S    
C72   C87   A    
C1    N1    A    
C37   C61   A    
C36   N20   A    
N6    Ni4   S    
C74   C82   A    
C9    C17   D    
O8    H52   S    
N32   Ni8   S    
C79   H39   S    
C40   C96   S    
C33   C57   A    
N15   Ni8   S    
C66   H26   S    
C74   H34   S    
C19   O20   S    
C68   C83   A    
C65   H25   S    
C40   N24   A    
N12   Ni5   S    
N9    Ni5   S    
C17   O18   S    
C38   C94   S    
C5    H5    S    
C7    H7    S    
C42   N26   A    
C14   H45   S    
N11   N19   A    
O10   H53   S    
C39   C63   A    
C62   C87   S    
C17   C22   S    
C40   C64   A    
C71   H31   S    
C20   O19   S    
C14   C22   D    
C94   O12   S    
C19   C24   S    
C5    C53   A    
C10   H41   S    
O6    H51   S    
C80   C88   A    
C46   H22   S    
C27   C59   A    
C58   C83   S    
N6    N32   A    
C66   C81   A    
C71   C75   A    
C34   C90   S    
C16   H47   S    
C78   C86   A    
C91   O5    D    
N13   N21   A    
C10   C18   D    
C47   H23   S    
N10   Ni6   S    
C69   H29   S    
O20   H60   S    
N15   N23   A    
C70   C85   A    
N31   Ni7   S    
C33   N17   A    
C39   C95   S    
C92   O7    D    
C16   C54   S    
C91   O6    S    
C76   H36   S    
C29   N13   A    
O2    H49   S    
C42   H18   S    
C9    H42   S    
C70   H30   S    
C45   C55   A    
C2    H2    S    
C93   O9    D    
C21   O22   S    
C46   C56   A    
C34   C58   A    
C36   C60   A    
C25   N9    A    
C44   N28   A    
C38   C62   A    
C96   O16   S    
C45   N29   A    
C48   N32   A    
C41   C51   A    
C69   C86   A    
C31   H15   S    
C92   O8    S    
C13   C55   S    
C43   N27   A    
