data_mof_unit_7620.cif
_audit_creation_date              2012-12-10T17:09:54-0500
_audit_creation_method            fapswitch 2.2
_symmetry_space_group_name_H-M    P1
_symmetry_Int_Tables_number       1
_space_group_crystal_system       triclinic
_cell_length_a                    10.848812
_cell_length_b                    13.036613
_cell_length_c                    11.640338
_cell_angle_alpha                 100.975698
_cell_angle_beta                  93.729935
_cell_angle_gamma                 90.257003
_cell_volume                      1612.53652761

loop_
_atom_site_label
_atom_site_type_symbol
_atom_type_description
_atom_site_fract_x
_atom_site_fract_y
_atom_site_fract_z
_atom_type_partial_charge
C1    C     C_R   0.498225 0.298905 0.477298 0.811873
C2    C     C_R   0.067059 0.523273 0.609342 0.060603
C3    C     C_R   0.127257 0.508640 0.503097 -0.161941
C4    C     C_R   0.058495 0.477375 0.395965 -0.277701
C5    C     C_R   0.930903 0.465634 0.391856 0.240798
C6    C     C_R   0.871939 0.475161 0.497810 -0.172123
C7    C     C_R   0.511807 0.816932 0.538976 -0.262821
C8    C     C_R   0.500689 0.185349 0.462251 -0.152426
C9    C     C_R   0.543643 0.014640 0.350799 -0.225655
C10   C     C_R   0.535487 0.122224 0.357621 0.464846
C11   C     C_R   0.473705 0.140253 0.557351 -0.286308
C12   C     C_R   0.261969 0.506234 0.501521 0.847283
C13   C     C_R   0.486915 0.033278 0.553121 -0.000604
C14   C     C_R   0.523017 0.969855 0.448613 -0.050350
C15   C     C_R   0.539026 0.862677 0.442985 0.408879
C16   C     C_R   0.487653 0.882070 0.647339 0.145636
C17   C     C_R   0.470277 0.989587 0.652958 0.187269
C18   C     C_R   0.384413 0.398206 0.019101 0.161886
C19   C     C_R   0.397620 0.408641 0.142979 0.062082
C20   C     C_R   0.545842 0.544935 0.158527 0.081294
C21   C     C_R   0.538829 0.537744 0.035194 -0.084958
C22   C     C_R   0.456895 0.463718 0.964590 -0.093012
C23   C     C_R   0.505841 0.701742 0.522943 0.876550
C24   C     C_R   0.450806 0.456890 0.841017 -0.001489
C25   C     C_R   0.604588 0.588900 0.857349 -0.024676
C26   C     C_R   0.613693 0.601471 0.981479 0.388036
C27   C     C_R   0.737311 0.488378 0.498367 0.802769
C28   C     C_R   0.123296 0.571570 0.720370 0.305843
C29   C     C_R   0.078347 0.547080 0.822333 -0.238099
C30   C     C_R   0.972491 0.484726 0.814519 -0.221924
C31   C     C_R   0.902681 0.458394 0.707920 -0.143102
C32   C     C_R   0.945146 0.485569 0.605149 0.009841
Cu1   Cu    Cu3+1 0.509250 0.507730 0.615930 0.939063
Cu2   Cu    Cu3+1 0.490750 0.492270 0.384070 0.973437
H1    H     H_    0.103680 0.461538 0.314282 0.170993
H2    H     H_    0.444648 0.190159 0.635732 0.187743
H3    H     H_    0.388919 0.401233 0.784346 0.149329
H4    H     H_    0.661076 0.635449 0.813563 0.142741
H5    H     H_    0.343480 0.360437 0.187342 0.146049
H6    H     H_    0.608002 0.600903 0.214141 0.200715
H7    H     H_    0.123753 0.577898 0.907637 0.134405
H8    H     H_    0.940762 0.461516 0.892170 0.141328
H9    H     H_    0.818696 0.412943 0.706002 0.162590
H10   H     H_    0.568399 0.966958 0.269031 0.203058
N1    N     N_R   0.523180 0.519350 0.790130 -0.200627
N2    N     N_R   0.476820 0.480650 0.209890 -0.217328
O1    O     O_R   0.506570 0.354460 0.582000 -0.608784
O2    O     O_R   0.490940 0.341410 0.386200 -0.540304
O3    O     O_R   0.327470 0.506530 0.597920 -0.562835
O4    O     O_R   0.311840 0.493480 0.402120 -0.606511
O5    O     O_R   0.509060 0.658590 0.613800 -0.546598
O6    O     O_R   0.493430 0.645540 0.418000 -0.547196
O7    O     O_R   0.688160 0.506520 0.597880 -0.605944
O8    O     O_R   0.672530 0.493470 0.402080 -0.549118
N3    N     N_2   0.433910 0.052102 0.759456 -0.437889
H11   H     H_    0.350893 0.089347 0.752192 0.250271
C33   C     C_3   0.529764 0.115487 0.832983 -0.660356
H12   H     H_    0.510229 0.199818 0.838590 0.231894
H13   H     H_    0.622583 0.099958 0.798732 0.217918
H14   H     H_    0.531317 0.098152 0.922766 0.245378
O9    O     O_3   0.556803 0.164427 0.260211 -0.569568
C34   C     C_3   0.685274 0.178509 0.256140 -0.311174
H15   H     H_    0.733354 0.102342 0.242693 0.145101
H16   H     H_    0.725426 0.231255 0.336737 0.152522
H17   H     H_    0.701919 0.215988 0.180475 0.190601
N4    N     N_2   0.298916 0.324333 0.948860 -0.451659
H18   H     H_    0.235893 0.356014 0.895843 0.251920
C35   C     C_3   0.250441 0.239054 0.996874 -0.709520
H19   H     H_    0.201601 0.181888 0.925321 0.227856
H20   H     H_    0.183463 0.268670 0.063138 0.211789
H21   H     H_    0.326857 0.198013 0.036538 0.259270
O10   O     O_3   0.684539 0.681145 0.052567 -0.590728
C36   C     C_3   0.804181 0.687436 0.013422 -0.399137
H22   H     H_    0.803993 0.730868 0.940174 0.173774
H23   H     H_    0.845088 0.609195 0.988555 0.167790
H24   H     H_    0.864802 0.731964 0.086563 0.190364
N5    N     N_2   0.212611 0.653930 0.730399 -0.394305
H25   H     H_    0.260688 0.672859 0.811231 0.254670
C37   C     C_3   0.166568 0.744945 0.687855 -0.711966
H26   H     H_    0.241693 0.803631 0.693795 0.229166
H27   H     H_    0.091024 0.780602 0.741379 0.216352
H28   H     H_    0.131973 0.723955 0.594365 0.225946
N6    N     N_2   0.864194 0.433197 0.281382 -0.407667
H29   H     H_    0.886958 0.359043 0.240586 0.230325
C38   C     C_3   0.866067 0.507060 0.203224 -0.666758
H30   H     H_    0.835661 0.584745 0.248032 0.237092
H31   H     H_    0.960197 0.514470 0.173089 0.200807
H32   H     H_    0.802053 0.479123 0.125104 0.222287
O11   O     O_3   0.583275 0.802839 0.343257 -0.553555
C39   C     C_3   0.712858 0.797347 0.361331 -0.324789
H33   H     H_    0.757357 0.876359 0.386159 0.146119
H34   H     H_    0.750554 0.758910 0.278180 0.213136
H35   H     H_    0.738444 0.749617 0.428695 0.146221
N7    N     N_2   0.484841 0.840736 0.751980 -0.379329
H36   H     H_    0.416974 0.871231 0.805983 0.269060
C40   C     C_3   0.603937 0.844186 0.816255 -0.639933
H37   H     H_    0.595077 0.810179 0.895719 0.241813
H38   H     H_    0.638130 0.925837 0.845151 0.222688
H39   H     H_    0.672551 0.799640 0.760643 0.211696

loop_
_geom_bond_atom_site_label_1
_geom_bond_atom_site_label_2
_ccdc_geom_bond_type
N4    C35   S    
N3    H11   S    
C1    C8    S    
C26   O10   S    
C36   H22   S    
C6    C32   A    
C21   C26   A    
C12   O3    A    
C23   O6    A    
C19   N2    A    
N5    H25   S    
C34   H15   S    
C31   H9    S    
C24   N1    A    
C28   C29   A    
C8    C11   A    
C5    C6    A    
C5    N6    S    
C33   H13   S    
Cu1   O3    S    
C40   H39   S    
Cu1   N1    S    
C2    C32   A    
C18   C19   A    
C34   H16   S    
C3    C12   S    
C35   H19   S    
C23   O5    A    
C31   C32   A    
C16   C17   A    
C40   H38   S    
Cu2   N2    S    
C9    C10   A    
C17   N3    S    
C6    C27   S    
C7    C15   A    
N4    H18   S    
C4    H1    S    
C21   C22   A    
C36   H23   S    
N7    H36   S    
C24   H3    S    
C33   H12   S    
N5    C37   S    
Cu1   O7    S    
Cu2   O4    S    
C38   H31   S    
C27   O8    A    
C37   H27   S    
C1    O1    A    
C33   H14   S    
C25   C26   A    
C38   H30   S    
C9    C14   A    
C29   C30   A    
C25   H4    S    
C15   O11   S    
C39   H34   S    
N6    H29   S    
C20   H6    S    
C40   H37   S    
Cu1   Cu2   S    
N7    C40   S    
C28   N5    S    
C19   H5    S    
C35   H20   S    
C7    C16   A    
N6    C38   S    
Cu2   O8    S    
N3    C33   S    
Cu1   O1    S    
C36   H24   S    
C22   C24   A    
C10   O9    S    
Cu2   O2    S    
C3    C4    A    
C25   N1    A    
C39   H35   S    
C38   H32   S    
C18   N4    S    
C11   H2    S    
C9    H10   S    
C34   H17   S    
C29   H7    S    
C18   C22   A    
Cu2   O6    S    
O10   C36   S    
C37   H28   S    
C12   O4    A    
C27   O7    A    
C1    O2    A    
Cu1   O5    S    
C16   N7    S    
C13   C17   A    
C2    C3    A    
C11   C13   A    
C39   H33   S    
C30   C31   A    
C35   H21   S    
C7    C23   S    
O9    C34   S    
C37   H26   S    
C4    C5    A    
C20   C21   A    
C8    C10   A    
C14   C15   A    
C30   H8    S    
C2    C28   A    
O11   C39   S    
C13   C14   A    
C20   N2    A    
