data_mof_unit_6308.cif
_audit_creation_date              2012-12-10T17:17:30-0500
_audit_creation_method            fapswitch 2.2
_symmetry_space_group_name_H-M    P1
_symmetry_Int_Tables_number       1
_space_group_crystal_system       triclinic
_cell_length_a                    10.234883
_cell_length_b                    10.850504
_cell_length_c                    12.625225
_cell_angle_alpha                 91.201098
_cell_angle_beta                  110.261857
_cell_angle_gamma                 94.823837
_cell_volume                      1308.77482647

loop_
_atom_site_label
_atom_site_type_symbol
_atom_type_description
_atom_site_fract_x
_atom_site_fract_y
_atom_site_fract_z
_atom_type_partial_charge
C1    C     C_R   0.048886 0.731582 0.489575 0.986905
C2    C     C_R   0.228013 0.583782 0.826960 -0.285264
C3    C     C_2   0.071094 0.861907 0.475120 -0.332406
C4    C     C_R   0.140072 0.533008 0.710281 0.932750
C5    C     C_2   0.968550 0.931914 0.469599 -0.059357
C6    C     C_2   0.912477 0.136042 0.498254 -0.333372
C7    C     C_2   0.992116 0.063275 0.466555 -0.143894
C8    C     C_2   0.430312 0.515389 0.500764 -0.008611
C9    C     C_2   0.570800 0.482076 0.500214 -0.013051
C10   C     C_R   0.947526 0.267944 0.504584 0.938580
C11   C     C_R   0.863489 0.483405 0.287384 0.886706
C12   C     C_R   0.449975 0.580887 0.983489 -0.071908
C13   C     C_R   0.782905 0.468132 0.974562 -0.143252
C14   C     C_R   0.787692 0.476370 0.166443 -0.060452
C15   C     C_R   0.169429 0.638152 0.900787 0.328089
C16   C     C_R   0.245504 0.648811 0.017939 0.016716
C17   C     C_R   0.390158 0.634270 0.058101 0.275398
C18   C     C_3   0.679556 0.680122 0.581294 -0.534860
C19   C     C_3   0.310523 0.331336 0.393437 -0.636142
C20   C     C_3   0.171459 0.674906 0.100014 -0.663204
C21   C     C_R   0.374514 0.576432 0.866679 0.008764
C22   C     C_R   0.583113 0.533685 0.018546 0.124380
C23   C     C_R   0.649687 0.510880 0.939414 0.193459
C24   C     C_R   0.583773 0.534600 0.827158 -0.207751
C25   C     C_R   0.450734 0.572797 0.792747 -0.099365
C26   C     C_R   0.647889 0.500617 0.128638 -0.161919
C27   C     C_R   0.854441 0.456095 0.088834 -0.211116
H1    H     H_    0.961371 0.432274 0.116319 0.163316
H2    H     H_    0.410484 0.605076 0.708995 0.159508
H3    H     H_    0.081184 0.100425 0.444829 0.182941
H4    H     H_    0.785548 0.728467 0.615737 0.282290
H5    H     H_    0.617869 0.731851 0.508797 0.237317
H6    H     H_    0.635540 0.683253 0.649934 0.173992
H7    H     H_    0.200523 0.291023 0.353291 0.235586
H8    H     H_    0.353171 0.347935 0.324545 0.174603
H9    H     H_    0.369456 0.263871 0.452021 0.197330
H10   H     H_    0.869781 0.591810 0.790798 0.343390
H11   H     H_    0.438090 0.570635 0.270784 0.313038
H12   H     H_    0.869210 0.893496 0.474535 0.202711
H13   H     H_    0.056669 0.652378 0.060070 0.251339
H14   H     H_    0.205939 0.615538 0.173179 0.199957
H15   H     H_    0.191361 0.773542 0.130386 0.297069
H16   H     H_    0.823827 0.098399 0.520178 0.164335
H17   H     H_    0.170270 0.900821 0.470407 0.152041
H18   H     H_    0.577796 0.394518 0.460688 0.137311
H19   H     H_    0.423716 0.602046 0.540988 0.127764
H20   H     H_    0.634189 0.522473 0.765822 0.143833
H21   H     H_    0.833622 0.448331 0.914687 0.141211
H22   H     H_    0.591882 0.499469 0.186867 0.173786
N1    N     N_2   0.313640 0.446500 0.454900 -0.062547
N2    N     N_2   0.686360 0.553430 0.545150 -0.078245
O1    O     O_R   0.936910 0.692950 0.509080 -0.579410
O2    O     O_2   0.034026 0.781919 0.734140 -0.321622
O3    O     O_3   0.879585 0.669533 0.836153 -0.568356
O4    O     O_2   0.645172 0.749799 0.186852 -0.259962
O5    O     O_2   0.440005 0.846372 0.187322 -0.252929
O6    O     O_3   0.497522 0.649496 0.299172 -0.556548
O7    O     O_R   0.138320 0.658600 0.480130 -0.630826
O8    O     O_R   0.002900 0.525670 0.675280 -0.600564
O9    O     O_R   0.204310 0.491320 0.646330 -0.619904
O10   O     O_R   0.861680 0.341400 0.519870 -0.626654
O11   O     O_R   0.063090 0.307050 0.490920 -0.607439
O12   O     O_R   0.795690 0.508680 0.353670 -0.583690
O13   O     O_R   0.997100 0.474330 0.324720 -0.622572
O14   O     O_2   0.065905 0.852359 0.925855 -0.228768
S1    S     S_3+6 0.036362 0.739485 0.847067 0.034271
S2    S     S_3+6 0.497272 0.723922 0.183787 0.029693
Zn1   Zn    Zn3+2 0.865520 0.522940 0.519330 1.000703
Zn2   Zn    Zn3+2 0.134480 0.477060 0.480670 0.954874

loop_
_geom_bond_atom_site_label_1
_geom_bond_atom_site_label_2
_ccdc_geom_bond_type
C12   C17   A    
C6    C10   S    
C13   H21   S    
C20   H15   S    
C23   C24   A    
O7    Zn2   S    
C9    H18   S    
C6    C7    D    
O3    S1    S    
C8    N1    D    
O8    Zn1   S    
O5    S2    D    
C2    C4    S    
O1    Zn1   S    
C16   C20   S    
C4    O9    A    
C2    C21   A    
C20   H14   S    
C24   C25   A    
C7    H3    S    
C19   H8    S    
O13   Zn2   S    
C14   C26   A    
C2    C15   A    
C24   H20   S    
O10   Zn1   S    
C10   O11   A    
C6    H16   S    
O9    Zn2   S    
O6    S2    S    
C20   H13   S    
H10   O3    S    
C4    O8    A    
C11   C14   S    
N1    Zn2   S    
C18   N2    S    
C11   O13   A    
C11   O12   A    
N2    Zn1   S    
C5    H12   S    
C25   H2    S    
C14   C27   A    
C1    O1    A    
C19   N1    S    
C3    H17   S    
C17   S2    S    
C10   O10   A    
C18   H5    S    
C18   H6    S    
C15   C16   A    
H11   O6    S    
C16   C17   A    
C12   C22   A    
O4    S2    D    
C13   C23   A    
O14   S1    D    
C22   C26   A    
C26   H22   S    
C27   H1    S    
C5    C7    S    
O2    S1    D    
O12   Zn1   S    
C13   C27   A    
C21   C25   A    
C18   H4    S    
C8    H19   S    
C3    C5    D    
C19   H9    S    
C1    O7    A    
C15   S1    S    
C12   C21   A    
C22   C23   A    
O11   Zn2   S    
C8    C9    S    
C1    C3    S    
C19   H7    S    
C9    N2    D    
