data_mof_unit_6320.cif
_audit_creation_date              2012-12-11T15:06:43-0500
_audit_creation_method            fapswitch 2.2
_symmetry_space_group_name_H-M    P1
_symmetry_Int_Tables_number       1
_space_group_crystal_system       triclinic
_cell_length_a                    7.264914
_cell_length_b                    15.675776
_cell_length_c                    21.855942
_cell_angle_alpha                 90.000297
_cell_angle_beta                  90.001932
_cell_angle_gamma                 89.997278
_cell_volume                      2489.02383434

loop_
_atom_site_label
_atom_site_type_symbol
_atom_type_description
_atom_site_fract_x
_atom_site_fract_y
_atom_site_fract_z
_atom_type_partial_charge
O1    O     O_R   0.390810 0.844810 0.447340 -0.530428
O2    O     O_R   0.109190 0.155190 0.947340 -0.530339
O3    O     O_R   0.890810 0.655190 0.552660 -0.530250
O4    O     O_R   0.609190 0.344810 0.052660 -0.530410
O5    O     O_R   0.720550 0.655820 0.440420 -0.548791
O6    O     O_R   0.779450 0.344180 0.940420 -0.548870
O7    O     O_R   0.220550 0.844180 0.559580 -0.548866
O8    O     O_R   0.279450 0.155820 0.059580 -0.548831
C1    C     C_R   0.552015 0.628399 0.426064 0.759641
C2    C     C_R   0.947981 0.371613 0.926074 0.759450
C3    C     C_R   0.052010 0.871612 0.573928 0.759431
C4    C     C_R   0.447992 0.128394 0.073932 0.759519
O9    O     O_R   0.720530 0.844130 0.440420 -0.529482
O10   O     O_R   0.779470 0.155870 0.940420 -0.529538
O11   O     O_R   0.220530 0.655870 0.559580 -0.529611
O12   O     O_R   0.279470 0.344130 0.059580 -0.529494
O13   O     O_R   0.890830 0.844810 0.552660 -0.527398
O14   O     O_R   0.609170 0.155190 0.052660 -0.527427
O15   O     O_R   0.390830 0.655190 0.447340 -0.527471
O16   O     O_R   0.109170 0.344810 0.947340 -0.527402
C5    C     C_R   0.553021 0.872008 0.426094 0.723765
C6    C     C_R   0.946976 0.127992 0.926093 0.723778
C7    C     C_R   0.053030 0.627989 0.573907 0.723741
C8    C     C_R   0.446972 0.372013 0.073902 0.723790
O17   O     O_3   0.557310 0.749980 0.536820 -0.381660
O18   O     O_3   0.942690 0.250020 0.036820 -0.381692
O19   O     O_3   0.057310 0.750020 0.463180 -0.381702
O20   O     O_3   0.442690 0.249980 0.963180 -0.381676
V1    V     V_3+5 0.832160 0.749980 0.493170 1.476820
V2    V     V_3+5 0.667840 0.250020 0.993170 1.476616
V3    V     V_3+5 0.332160 0.750020 0.506830 1.476547
V4    V     V_3+5 0.167840 0.249980 0.006830 1.476727
C9    C     C_R   0.001764 0.599664 0.874934 0.464285
C10   C     C_R   0.498563 0.400343 0.374904 0.464284
C11   C     C_R   0.501612 0.900338 0.125081 0.464302
C12   C     C_R   0.998063 0.099654 0.625070 0.464453
C13   C     C_R   0.960163 0.447018 0.886631 -0.191240
C14   C     C_R   0.539849 0.553001 0.386614 -0.191281
C15   C     C_R   0.460192 0.052993 0.113378 -0.191263
C16   C     C_R   0.039796 0.947014 0.613373 -0.191258
C17   C     C_R   0.084743 0.474844 0.593376 -0.320637
C18   C     C_R   0.415144 0.525147 0.093361 -0.319976
C19   C     C_R   0.584824 0.025138 0.406633 -0.319878
C20   C     C_R   0.915248 0.974854 0.906633 -0.320190
C21   C     C_R   0.131872 0.407154 0.631571 0.463999
C22   C     C_R   0.367836 0.592815 0.131545 0.464015
C23   C     C_R   0.632146 0.092801 0.368450 0.463965
C24   C     C_R   0.868038 0.907173 0.868447 0.464006
C25   C     C_R   0.133303 0.418417 0.695554 0.438669
C26   C     C_R   0.366405 0.581561 0.195534 0.438418
C27   C     C_R   0.633571 0.081549 0.304461 0.438383
C28   C     C_R   0.866619 0.918421 0.804459 0.438500
C29   C     C_R   0.066540 0.495960 0.721306 -0.098077
C30   C     C_R   0.433306 0.504043 0.221294 -0.097984
C31   C     C_R   0.566671 0.004033 0.278701 -0.097985
C32   C     C_R   0.933411 0.995954 0.778701 -0.098006
C33   C     C_R   0.047732 0.567490 0.681779 -0.069749
C34   C     C_R   0.452244 0.432520 0.181766 -0.069788
C35   C     C_R   0.547738 0.932510 0.318227 -0.069791
C36   C     C_R   0.952250 0.067485 0.818226 -0.069784
C37   C     C_R   0.028294 0.506194 0.785167 -0.007672
C38   C     C_R   0.471603 0.493820 0.285155 -0.007589
C39   C     C_R   0.528396 0.993810 0.214839 -0.007613
C40   C     C_R   0.971638 0.006185 0.714839 -0.007674
C41   C     C_R   0.023079 0.589424 0.810626 -0.103089
C42   C     C_R   0.477040 0.410587 0.310606 -0.103138
C43   C     C_R   0.523024 0.910578 0.189385 -0.103120
C44   C     C_R   0.976817 0.089415 0.689379 -0.103100
C45   C     C_R   0.041714 0.660372 0.771294 0.525323
C46   C     C_R   0.458447 0.339635 0.271275 0.525196
C47   C     C_R   0.541581 0.839626 0.228716 0.525203
C48   C     C_R   0.958216 0.160364 0.728712 0.525388
C49   C     C_R   0.035781 0.649062 0.707698 -0.237960
C50   C     C_R   0.464314 0.350950 0.207682 -0.237932
C51   C     C_R   0.535678 0.850941 0.292310 -0.237935
C52   C     C_R   0.964199 0.149056 0.792306 -0.237954
C53   C     C_R   0.994189 0.436056 0.824193 -0.216397
C54   C     C_R   0.505579 0.563965 0.324188 -0.216550
C55   C     C_R   0.494377 0.063955 0.175810 -0.216443
C56   C     C_R   0.005762 0.936048 0.675812 -0.216376
C57   C     C_R   0.958565 0.529128 0.912175 -0.131155
C58   C     C_R   0.541795 0.470881 0.412140 -0.131102
C59   C     C_R   0.458414 0.970878 0.087841 -0.131181
C60   C     C_R   0.041310 0.029125 0.587828 -0.131217
C61   C     C_R   0.052319 0.555971 0.617331 -0.094105
C62   C     C_R   0.447672 0.444035 0.117320 -0.094400
C63   C     C_R   0.552302 0.944027 0.382674 -0.094419
C64   C     C_R   0.947697 0.055971 0.882673 -0.094297
H1    H     H_    0.989360 0.371869 0.806808 0.181883
H2    H     H_    0.510177 0.628163 0.306818 0.181962
H3    H     H_    0.489694 0.128149 0.193188 0.181935
H4    H     H_    0.010603 0.871861 0.693198 0.181885
H5    H     H_    0.087626 0.465356 0.544237 0.160526
H6    H     H_    0.412258 0.534626 0.044221 0.160591
H7    H     H_    0.587708 0.034617 0.455773 0.160565
H8    H     H_    0.912362 0.965376 0.955773 0.160579
H9    H     H_    0.030247 0.705175 0.678868 0.107215
H10   H     H_    0.469911 0.294839 0.178851 0.107207
H11   H     H_    0.530063 0.794831 0.321141 0.107188
H12   H     H_    0.969764 0.205169 0.821135 0.107227
C65   C     C_2   0.908124 0.542841 0.977425 0.747605
O21   O     O_2   0.968257 0.495917 0.017420 -0.570066
O22   O     O_R   0.789571 0.609548 0.992920 -0.652505
H13   H     H_    0.757207 0.609220 0.038020 0.279836
C66   C     C_2   0.592625 0.457154 0.477358 0.747289
O23   O     O_2   0.532951 0.504146 0.517388 -0.570103
O24   O     O_R   0.711019 0.390352 0.492784 -0.652353
H14   H     H_    0.743624 0.390646 0.537865 0.280098
C67   C     C_2   0.407820 0.957161 0.022601 0.747557
O25   O     O_2   0.467756 0.004113 0.982593 -0.570057
O26   O     O_R   0.289368 0.890407 0.007130 -0.652394
H15   H     H_    0.256933 0.890714 0.962035 0.279954
C68   C     C_2   0.091698 0.042847 0.522575 0.747678
O27   O     O_2   0.031570 0.995919 0.482583 -0.570049
O28   O     O_R   0.210188 0.109570 0.507075 -0.652587
H16   H     H_    0.242534 0.109246 0.461973 0.279750
O29   O     O_3   0.051081 0.741753 0.794969 -0.488544
C69   C     C_3   0.228023 0.775156 0.783940 -0.185141
H17   H     H_    0.338765 0.729883 0.797479 0.100128
H18   H     H_    0.244655 0.833865 0.811691 0.143746
H19   H     H_    0.244770 0.792558 0.735078 0.096300
O30   O     O_3   0.449187 0.258248 0.294945 -0.488584
C70   C     C_3   0.272255 0.224816 0.283936 -0.185121
H20   H     H_    0.161494 0.270069 0.297488 0.100067
H21   H     H_    0.255696 0.166103 0.311687 0.143711
H22   H     H_    0.255460 0.207412 0.235075 0.096323
O31   O     O_3   0.550828 0.758239 0.205045 -0.488575
C71   C     C_3   0.727730 0.724778 0.216076 -0.185063
H23   H     H_    0.838533 0.770020 0.202553 0.100063
H24   H     H_    0.744301 0.666074 0.188314 0.143734
H25   H     H_    0.744447 0.707353 0.264935 0.096309
O32   O     O_3   0.948861 0.241747 0.705038 -0.488473
C72   C     C_3   0.771930 0.275164 0.716075 -0.184996
H26   H     H_    0.661176 0.229904 0.702534 0.100242
H27   H     H_    0.755307 0.333880 0.688332 0.143779
H28   H     H_    0.755199 0.292558 0.764940 0.096219
O33   O     O_3   0.027543 0.678459 0.901977 -0.489985
C73   C     C_3   0.206503 0.680756 0.927272 -0.113115
H29   H     H_    0.215396 0.641147 0.969288 0.129483
H30   H     H_    0.313767 0.660051 0.894033 0.081289
H31   H     H_    0.238311 0.747177 0.940353 0.173624
O34   O     O_3   0.472995 0.321535 0.401946 -0.489938
C74   C     C_3   0.294132 0.319183 0.427305 -0.113020
H32   H     H_    0.285244 0.358881 0.469279 0.129057
H33   H     H_    0.186704 0.339751 0.394079 0.081414
H34   H     H_    0.262566 0.252775 0.440477 0.173702
O35   O     O_3   0.527261 0.821533 0.098037 -0.489955
C75   C     C_3   0.706182 0.819187 0.072718 -0.113155
H35   H     H_    0.715172 0.858923 0.030765 0.129224
H36   H     H_    0.813533 0.839711 0.105982 0.081383
H37   H     H_    0.737759 0.752786 0.059522 0.173749
O36   O     O_3   0.972142 0.178441 0.598025 -0.489951
C76   C     C_3   0.793141 0.180692 0.572756 -0.113291
H38   H     H_    0.784272 0.141092 0.530734 0.129565
H39   H     H_    0.685943 0.159944 0.606004 0.081305
H40   H     H_    0.761197 0.247107 0.559691 0.173557
O37   O     O_3   0.209314 0.354643 0.731312 -0.526427
C77   C     C_3   0.378999 0.382988 0.755390 -0.280379
H41   H     H_    0.361240 0.435156 0.789193 0.154961
H42   H     H_    0.474228 0.404236 0.718573 0.110553
H43   H     H_    0.443440 0.329015 0.780090 0.160989
O38   O     O_3   0.290335 0.645322 0.231289 -0.526520
C78   C     C_3   0.120692 0.616942 0.255373 -0.280593
H44   H     H_    0.138507 0.564741 0.289147 0.155012
H45   H     H_    0.025428 0.595726 0.218556 0.110610
H46   H     H_    0.056260 0.670886 0.280106 0.161002
O39   O     O_3   0.709628 0.145307 0.268704 -0.526511
C79   C     C_3   0.879282 0.116928 0.244623 -0.280519
H47   H     H_    0.861487 0.064720 0.210854 0.154997
H48   H     H_    0.974557 0.095724 0.281442 0.110586
H49   H     H_    0.943698 0.170870 0.219887 0.160997
O40   O     O_3   0.790634 0.854643 0.768702 -0.526474
C80   C     C_3   0.620949 0.882979 0.744616 -0.280453
H50   H     H_    0.556549 0.829006 0.719908 0.160989
H51   H     H_    0.525688 0.904212 0.781428 0.110564
H52   H     H_    0.638697 0.935155 0.710820 0.154984
O41   O     O_3   0.168876 0.328831 0.605293 -0.497117
C81   C     C_3   0.360532 0.314812 0.603490 -0.114269
H53   H     H_    0.405203 0.281966 0.645807 0.153741
H54   H     H_    0.442295 0.374154 0.596485 0.100456
H55   H     H_    0.391378 0.271469 0.564712 0.170489
O42   O     O_3   0.330590 0.671094 0.105232 -0.497406
C82   C     C_3   0.138949 0.685227 0.103710 -0.112330
H56   H     H_    0.095230 0.718729 0.145875 0.154155
H57   H     H_    0.056761 0.625871 0.097316 0.099374
H58   H     H_    0.107504 0.728031 0.064677 0.169973
O43   O     O_3   0.669439 0.171071 0.394769 -0.497453
C83   C     C_3   0.861083 0.185199 0.396256 -0.111983
H59   H     H_    0.904686 0.218789 0.354115 0.154184
H60   H     H_    0.943308 0.125830 0.402563 0.099207
H61   H     H_    0.892613 0.227920 0.435328 0.170024
O44   O     O_3   0.830870 0.828886 0.894756 -0.497329
C84   C     C_3   0.639228 0.814783 0.896345 -0.112773
H62   H     H_    0.595296 0.781392 0.854160 0.154037
H63   H     H_    0.557114 0.874141 0.902854 0.099583
H64   H     H_    0.607927 0.771890 0.935339 0.170015

loop_
_geom_bond_atom_site_label_1
_geom_bond_atom_site_label_2
_ccdc_geom_bond_type
O17   V3    S    
C74   H34   S    
C5    C63   S    
O1    C5    A    
O37   C77   S    
C31   C35   A    
O19   V1    S    
O13   V1    S    
C16   C60   A    
C27   O39   S    
O35   C75   S    
C75   H37   S    
C81   H55   S    
C48   C52   A    
O15   V3    S    
C71   H23   S    
C28   O40   S    
C69   H18   S    
C81   H53   S    
C36   C64   A    
C9    C41   A    
C70   H20   S    
C50   H10   S    
C39   C55   A    
C80   H50   S    
C54   H2    S    
O7    C3    A    
C66   O24   S    
C53   H1    S    
C65   O21   D    
C2    C13   S    
C40   C44   A    
C83   H60   S    
C78   H45   S    
C75   H36   S    
O38   C78   S    
C82   H57   S    
C30   C34   A    
O4    C8    A    
C25   C29   A    
C79   H48   S    
C70   H21   S    
C26   O38   S    
O28   H16   S    
O1    V3    S    
O2    V4    S    
C18   C22   A    
C58   C66   S    
C33   C49   A    
O3    V1    S    
C69   H17   S    
C77   H43   S    
O42   C82   S    
C29   C37   A    
C1    O15   A    
C79   H49   S    
C17   H5    S    
O26   H15   S    
C37   C53   A    
O32   C72   S    
C84   H63   S    
C31   C39   A    
C46   C50   A    
C72   H28   S    
C19   H7    S    
O24   H14   S    
C16   C56   A    
C45   C49   A    
O14   V2    S    
C2    O16   A    
C11   C43   A    
C76   H39   S    
C19   C23   A    
C55   H3    S    
C21   O41   S    
O11   C7    A    
O33   C73   S    
O12   C8    A    
C14   C58   A    
C77   H42   S    
C40   C56   A    
C47   O31   S    
O10   V2    S    
C34   C62   A    
C51   H11   S    
C10   C42   A    
C48   O32   S    
O5    V1    S    
C80   H51   S    
C39   C43   A    
O7    V3    S    
C38   C42   A    
C28   C32   A    
O8    V4    S    
C78   H46   S    
C75   H35   S    
C25   O37   S    
C82   H58   S    
C9    O33   S    
O39   C79   S    
C11   C59   A    
O18   V4    S    
C12   O36   S    
C70   H22   S    
C57   C65   S    
C14   C54   A    
C27   C31   A    
O3    C7    A    
C13   C53   A    
C36   C52   A    
C32   C36   A    
C71   H24   S    
C83   H59   S    
C69   H19   S    
C15   C55   A    
C77   H41   S    
C56   H4    S    
C13   C57   A    
C49   H9    S    
C82   H56   S    
O5    C1    A    
C20   H8    S    
C46   O30   S    
C81   H54   S    
C21   C25   A    
O8    C4    A    
C84   H64   S    
C59   C67   S    
O9    C5    A    
C11   O35   S    
C76   H40   S    
C73   H30   S    
C18   C62   A    
C79   H47   S    
O6    V2    S    
O41   C81   S    
C6    C64   S    
C83   H61   S    
C72   H26   S    
O12   V4    S    
C23   O43   S    
O31   C71   S    
C71   H25   S    
C35   C51   A    
O40   C80   S    
C34   C50   A    
C68   O27   D    
O16   V4    S    
C80   H52   S    
O9    V1    S    
C74   H33   S    
C10   O34   S    
C29   C33   A    
C18   H6    S    
C38   C54   A    
C4    O14   A    
C73   H31   S    
C3    O13   A    
O6    C2    A    
C23   C27   A    
C12   C44   A    
O11   V3    S    
C44   C48   A    
C52   H12   S    
C17   C61   A    
C66   O23   D    
C22   C26   A    
C19   C63   A    
O44   C84   S    
C22   O42   S    
C4    C15   S    
O20   V2    S    
C74   H32   S    
O30   C70   S    
C15   C59   A    
O43   C83   S    
C26   C30   A    
C60   C68   S    
C20   C64   A    
O2    C6    A    
C47   C51   A    
O10   C6    A    
C32   C40   A    
C42   C46   A    
C9    C57   A    
C12   C60   A    
C41   C45   A    
C67   O26   S    
C45   O29   S    
C1    C14   S    
C33   C61   A    
C43   C47   A    
C3    C16   S    
C35   C63   A    
C24   O44   S    
C78   H44   S    
C73   H29   S    
C37   C41   A    
C24   C28   A    
O36   C76   S    
C65   O22   S    
C84   H62   S    
C7    C61   S    
C67   O25   D    
O22   H13   S    
C72   H27   S    
C17   C21   A    
O34   C74   S    
C30   C38   A    
C10   C58   A    
C76   H38   S    
O29   C69   S    
C8    C62   S    
O4    V2    S    
C20   C24   A    
C68   O28   S    
