data_mof_unit_62920.cif
_audit_creation_date              2012-12-10T18:48:00-0500
_audit_creation_method            fapswitch 2.2
_symmetry_space_group_name_H-M    P1
_symmetry_Int_Tables_number       1
_space_group_crystal_system       triclinic
_cell_length_a                    19.408349
_cell_length_b                    18.182849
_cell_length_c                    14.351583
_cell_angle_alpha                 90.000169
_cell_angle_beta                  90.820837
_cell_angle_gamma                 89.999613
_cell_volume                      5064.14069128

loop_
_atom_site_label
_atom_site_type_symbol
_atom_type_description
_atom_site_fract_x
_atom_site_fract_y
_atom_site_fract_z
_atom_type_partial_charge
C1    C     C_R   0.367471 0.500032 0.500117 0.793280
C2    C     C_R   0.632529 0.500032 0.499885 0.793283
C3    C     C_R   0.964498 0.500673 0.584967 0.218939
C4    C     C_R   0.035502 0.500655 0.415043 0.218948
C5    C     C_R   0.036750 0.500955 0.585398 0.222362
C6    C     C_R   0.963251 0.500931 0.414612 0.222356
C7    C     C_R   0.072089 0.500802 0.500435 -0.188256
C8    C     C_R   0.927911 0.500797 0.499575 -0.188249
C9    C     C_R   0.456125 0.720859 0.441196 0.596097
C10   C     C_R   0.541446 0.279112 0.562005 0.597859
C11   C     C_R   0.543874 0.720859 0.558804 0.596100
C12   C     C_R   0.458555 0.279112 0.437994 0.597857
C13   C     C_R   0.454432 0.798652 0.442544 -0.373812
C14   C     C_R   0.540393 0.201257 0.564049 -0.371613
C15   C     C_R   0.545567 0.798651 0.557456 -0.373808
C16   C     C_R   0.459607 0.201257 0.435951 -0.371609
C17   C     C_R   0.500000 0.838473 0.500000 -0.003659
C18   C     C_R   0.500000 0.161219 0.500000 -0.001293
C19   C     C_R   0.507445 0.960911 0.583630 -0.178574
C20   C     C_R   0.492896 0.038186 0.416290 -0.177320
C21   C     C_R   0.492554 0.960911 0.416370 -0.178573
C22   C     C_R   0.507103 0.038186 0.583711 -0.177320
C23   C     C_R   0.500000 0.078295 0.500000 0.170102
C24   C     C_R   0.500000 0.921066 0.500000 0.172692
C25   C     C_R   0.499846 0.500001 0.330904 0.820969
C26   C     C_R   0.500154 0.500001 0.669096 0.820965
C27   C     C_1   0.499815 0.500009 0.228642 -0.187401
C28   C     C_1   0.500185 0.500010 0.771358 -0.187403
C29   C     C_1   0.499839 0.500063 0.143279 -0.000570
C30   C     C_1   0.500161 0.500063 0.856720 -0.000569
C31   C     C_1   0.499943 0.500107 0.042685 0.017788
C32   C     C_1   0.500056 0.500108 0.957315 0.017788
C33   C     C_R   0.744617 0.435281 0.480554 -0.210117
C34   C     C_R   0.255382 0.435281 0.519437 -0.210113
C35   C     C_R   0.255302 0.565608 0.482709 -0.172165
C36   C     C_R   0.744698 0.565602 0.517314 -0.172170
C37   C     C_R   0.816386 0.435476 0.480825 -0.079775
C38   C     C_R   0.183613 0.435477 0.519168 -0.079775
C39   C     C_R   0.183530 0.565768 0.482859 -0.088704
C40   C     C_R   0.816470 0.565760 0.517167 -0.088708
C41   C     C_R   0.852393 0.500683 0.499158 0.215113
C42   C     C_R   0.147607 0.500688 0.500852 0.215122
C43   C     C_R   0.708190 0.500259 0.499328 -0.043461
C44   C     C_R   0.291809 0.500261 0.500676 -0.043460
Cu1   Cu    Cu3+1 0.500000 0.573360 0.500000 1.005026
Cu2   Cu    Cu3+1 0.500000 0.426640 0.500000 1.013023
H1    H     H_    0.717715 0.384446 0.465157 0.143860
H2    H     H_    0.282283 0.384443 0.534821 0.143853
H3    H     H_    0.282117 0.616442 0.467987 0.184236
H4    H     H_    0.717883 0.616434 0.532049 0.184242
H5    H     H_    0.843944 0.384994 0.466573 0.147054
H6    H     H_    0.156055 0.384994 0.533407 0.147042
H7    H     H_    0.155901 0.616412 0.468714 0.150413
H8    H     H_    0.844099 0.616401 0.531327 0.150421
H9    H     H_    0.417073 0.827735 0.399697 0.162735
H10   H     H_    0.571821 0.172261 0.614744 0.158448
H11   H     H_    0.582926 0.827735 0.600303 0.162735
H12   H     H_    0.428180 0.172261 0.385255 0.158448
H13   H     H_    0.512293 0.932241 0.649529 0.134046
H14   H     H_    0.488715 0.066408 0.350068 0.136325
H15   H     H_    0.487707 0.932240 0.350471 0.134046
H16   H     H_    0.511284 0.066409 0.649932 0.136325
N1    N     N_R   0.500000 0.683620 0.500000 -0.239446
N2    N     N_R   0.500000 0.316380 0.500000 -0.242943
O1    O     O_R   0.400190 0.561980 0.499990 -0.541800
O2    O     O_R   0.599810 0.438020 0.500010 -0.574848
O3    O     O_R   0.599810 0.561980 0.500010 -0.541799
O4    O     O_R   0.400190 0.438020 0.499990 -0.574850
O5    O     O_R   0.500000 0.561970 0.376060 -0.557734
O6    O     O_R   0.500000 0.438030 0.623940 -0.515605
O7    O     O_R   0.500000 0.561970 0.623940 -0.557737
O8    O     O_R   0.500000 0.438030 0.376060 -0.515605
Br1   Br    Br    0.915493 0.498815 0.701050 -0.414016
Br2   Br    Br    0.084508 0.498781 0.298962 -0.414012
Br3   Br    Br    0.087447 0.502743 0.702071 -0.404301
Br4   Br    Br    0.912554 0.502690 0.297938 -0.404309
O9    O     O_3   0.409262 0.681145 0.387603 -0.560994
C45   C     C_3   0.412088 0.700420 0.292051 0.048813
H17   H     H_    0.424728 0.650142 0.251852 0.177829
H18   H     H_    0.452085 0.742061 0.274383 0.116490
C46   C     C_3   0.341653 0.727502 0.259025 -0.793629
H19   H     H_    0.327180 0.778083 0.297343 0.239194
H20   H     H_    0.342950 0.740041 0.183348 0.215790
H21   H     H_    0.302180 0.684451 0.271223 0.264555
O10   O     O_3   0.578617 0.318999 0.628043 -0.551202
C47   C     C_3   0.648798 0.297714 0.633048 0.049317
H22   H     H_    0.680628 0.347733 0.623435 0.182371
H23   H     H_    0.664977 0.257925 0.578360 0.115854
C48   C     C_3   0.665651 0.267122 0.729522 -0.776604
H24   H     H_    0.634674 0.217146 0.743390 0.233039
H25   H     H_    0.721174 0.252637 0.734195 0.219735
H26   H     H_    0.654291 0.309055 0.783449 0.263237
O11   O     O_3   0.590738 0.681145 0.612398 -0.560998
C49   C     C_3   0.587910 0.700420 0.707950 0.048807
H27   H     H_    0.575270 0.650141 0.748147 0.177831
H28   H     H_    0.547912 0.742060 0.725618 0.116491
C50   C     C_3   0.658344 0.727501 0.740978 -0.793632
H29   H     H_    0.672816 0.778084 0.702664 0.239194
H30   H     H_    0.657047 0.740038 0.816656 0.215792
H31   H     H_    0.697818 0.684452 0.728777 0.264555
O12   O     O_3   0.421386 0.318999 0.371954 -0.551204
C51   C     C_3   0.351205 0.297717 0.366946 0.049318
H32   H     H_    0.319375 0.347737 0.376558 0.182371
H33   H     H_    0.335024 0.257929 0.421635 0.115853
C52   C     C_3   0.334352 0.267124 0.270473 -0.776602
H34   H     H_    0.365328 0.217147 0.256607 0.233039
H35   H     H_    0.278829 0.252642 0.265799 0.219737
H36   H     H_    0.345714 0.309056 0.216545 0.263236

loop_
_geom_bond_atom_site_label_1
_geom_bond_atom_site_label_2
_ccdc_geom_bond_type
C14   H10   S    
C10   O10   S    
O12   C51   S    
C27   C29   T    
C14   C18   A    
C50   H31   S    
C46   H19   S    
O9    C45   S    
C52   H35   S    
O11   C49   S    
C4    Br2   S    
Cu2   O2    S    
C11   N1    A    
C37   H5    S    
O10   C47   S    
C51   H33   S    
C47   H23   S    
Cu1   O7    S    
C1    O4    A    
C51   C52   S    
C7    C42   S    
C9    C13   A    
C50   H30   S    
C11   C15   A    
C12   C16   A    
C35   H3    S    
C1    O1    A    
C20   H14   S    
Cu2   O8    S    
C11   O11   S    
C34   C38   A    
C26   O7    A    
C15   H11   S    
C49   H27   S    
C4    C7    A    
C46   H20   S    
C50   H29   S    
C39   C42   A    
C52   H36   S    
C17   C24   S    
Cu1   O5    S    
C18   C23   S    
C33   C43   A    
C36   C40   A    
C19   C22   A    
C34   C44   A    
C8    C41   S    
C4    C6    A    
C3    C8    A    
C10   C14   A    
C5    C7    A    
C47   H22   S    
C16   H12   S    
C49   C50   S    
C19   H13   S    
Cu1   Cu2   S    
Cu1   N1    S    
C33   C37   A    
Cu2   N2    S    
C5    Br3   S    
C35   C39   A    
Cu2   O4    S    
C22   H16   S    
C1    C44   S    
C31   C32   T    
C20   C23   A    
C2    C43   S    
C25   O8    A    
C9    O9    S    
C48   H26   S    
C49   H28   S    
C35   C44   A    
C40   C41   A    
C2    O3    A    
C40   H8    S    
Cu1   O1    S    
C33   H1    S    
C25   O5    A    
C46   H21   S    
C36   H4    S    
C15   C17   A    
C12   N2    A    
C9    N1    A    
C21   H15   S    
C6    Br4   S    
C10   N2    A    
C3    C5    A    
C47   C48   S    
C6    C8    A    
C2    O2    A    
Cu1   O3    S    
C25   C27   S    
C52   H34   S    
C26   C28   S    
C13   C17   A    
C28   C30   T    
C19   C24   A    
C12   O12   S    
C29   C31   S    
C30   C32   S    
C45   H17   S    
C45   C46   S    
C39   H7    S    
C26   O6    A    
C38   H6    S    
C45   H18   S    
C37   C41   A    
C51   H32   S    
C3    Br1   S    
Cu2   O6    S    
C38   C42   A    
C34   H2    S    
C20   C21   A    
C16   C18   A    
C48   H25   S    
C21   C24   A    
C22   C23   A    
C36   C43   A    
C48   H24   S    
C13   H9    S    
