data_mof_unit_58361.cif
_audit_creation_date              2012-10-26T21:01:36-0400
_audit_creation_method            fapswitch 2.2
_symmetry_space_group_name_H-M    P1
_symmetry_Int_Tables_number       1
_space_group_crystal_system       triclinic
_cell_length_a                    15.863726
_cell_length_b                    13.021716
_cell_length_c                    11.767093
_cell_angle_alpha                 99.828521
_cell_angle_beta                  94.372806
_cell_angle_gamma                 90.804381
_cell_volume                      2387.20916808

loop_
_atom_site_label
_atom_site_type_symbol
_atom_type_description
_atom_site_fract_x
_atom_site_fract_y
_atom_site_fract_z
_atom_type_partial_charge
C1    C     C_R   0.499552 0.299809 0.478782 0.541548
C2    C     C_R   0.539061 0.976207 0.474861 0.031042
C3    C     C_R   0.421322 0.402523 0.018075 -0.152108
C4    C     C_R   0.579517 0.596803 0.982109 -0.151612
C5    C     C_R   0.429402 0.407849 0.139284 0.159337
C6    C     C_R   0.571225 0.591484 0.860736 0.159109
C7    C     C_R   0.534193 0.542779 0.157989 0.046700
C8    C     C_R   0.464756 0.459270 0.842742 0.038293
C9    C     C_R   0.529121 0.534881 0.035468 -0.006066
C10   C     C_R   0.471218 0.465327 0.965005 -0.007245
C11   C     C_R   0.339909 0.499870 0.499742 0.550848
C12   C     C_R   0.503156 0.699965 0.520782 0.538462
C13   C     C_R   0.660090 0.500683 0.500335 0.551440
C14   C     C_3   0.972657 0.413322 0.532238 -0.113990
C15   C     C_3   0.027370 0.590978 0.468621 -0.116635
C16   C     C_3   0.022410 0.420859 0.426235 0.019678
C17   C     C_3   0.977567 0.583429 0.574631 0.019289
C18   C     C_1   0.250226 0.500667 0.499489 -0.014018
C19   C     C_1   0.749781 0.501393 0.500836 -0.009074
C20   C     C_3   0.034373 0.496165 0.607644 -0.116112
C21   C     C_3   0.965634 0.508117 0.393217 -0.118500
C22   C     C_3   0.083042 0.502358 0.500412 0.026686
C23   C     C_R   0.596463 0.038440 0.429154 -0.147607
C24   C     C_3   0.916979 0.501898 0.500440 0.025293
C25   C     C_1   0.174718 0.501580 0.499869 -0.040327
C26   C     C_1   0.825309 0.501733 0.500757 -0.041767
C27   C     C_R   0.496261 0.811808 0.529163 0.002346
C28   C     C_R   0.507299 0.187230 0.467330 0.001919
C29   C     C_1   0.048223 0.331055 0.344382 0.193468
C30   C     C_1   0.951619 0.673125 0.656513 0.187285
C31   C     C_3   0.633265 0.817588 0.427292 -0.266391
C32   C     C_3   0.713264 0.840485 0.510394 -0.310217
C33   C     C_3   0.792378 0.806660 0.449348 -0.441831
C34   C     C_R   0.405355 0.958957 0.560547 -0.145253
C35   C     C_3   0.361365 0.174102 0.540975 -0.252281
C36   C     C_3   0.357325 0.201743 0.672616 -0.290820
C37   C     C_3   0.279863 0.266145 0.702745 -0.452546
C38   C     C_1   0.360546 0.798777 0.620334 0.200484
C39   C     C_1   0.644667 0.202800 0.381441 0.198656
C40   C     C_3   0.621628 0.675460 0.818742 -0.210148
C41   C     C_3   0.581891 0.782443 0.853972 -0.303548
C42   C     C_3   0.629755 0.869833 0.813053 -0.453308
C43   C     C_3   0.375627 0.327489 0.182342 -0.211559
C44   C     C_3   0.410367 0.217506 0.150238 -0.308794
C45   C     C_R   0.581237 0.142348 0.425392 -0.042239
C46   C     C_3   0.356330 0.136192 0.192834 -0.445900
C47   C     C_R   0.422751 0.857330 0.571567 -0.041010
C48   C     C_R   0.445683 0.126500 0.508539 -0.027794
C49   C     C_R   0.555261 0.869746 0.479014 -0.025441
C50   C     C_R   0.462807 0.020846 0.514842 0.032906
Cu1   Cu    Cu3+1 0.506200 0.507730 0.615930 0.943097
Cu2   Cu    Cu3+1 0.493800 0.492270 0.384070 0.940694
H1    H     H_    0.949283 0.340199 0.557211 0.122236
H2    H     H_    0.623994 0.652330 0.035424 0.084566
H3    H     H_    0.788278 0.721771 0.414258 0.153540
H4    H     H_    0.799865 0.850628 0.377570 0.153602
H5    H     H_    0.848986 0.822687 0.511845 0.171835
H6    H     H_    0.719827 0.924865 0.547295 0.173239
H7    H     H_    0.708993 0.796258 0.582573 0.160505
H8    H     H_    0.625751 0.731921 0.404518 0.160580
H9    H     H_    0.642136 0.841408 0.342691 0.134024
H10   H     H_    0.282968 0.340973 0.669765 0.163680
H11   H     H_    0.221154 0.222097 0.664193 0.162102
H12   H     H_    0.050705 0.664124 0.443663 0.121135
H13   H     H_    0.277275 0.283424 0.798039 0.134338
H14   H     H_    0.354288 0.131071 0.712938 0.154614
H15   H     H_    0.415800 0.245325 0.711395 0.175598
H16   H     H_    0.350231 0.245453 0.502636 0.138039
H17   H     H_    0.307949 0.120484 0.501566 0.134346
H18   H     H_    0.698358 0.868721 0.839846 0.164298
H19   H     H_    0.620162 0.861640 0.717915 0.157317
H20   H     H_    0.604903 0.946244 0.851279 0.151954
H21   H     H_    0.515009 0.780191 0.817589 0.196677
H22   H     H_    0.582177 0.801668 0.949720 0.150256
H23   H     H_    0.936520 0.512077 0.305282 0.118920
H24   H     H_    0.687345 0.678129 0.859838 0.112667
H25   H     H_    0.629614 0.660762 0.726048 0.201684
H26   H     H_    0.353742 0.155361 0.287975 0.154016
H27   H     H_    0.291053 0.133132 0.150684 0.166700
H28   H     H_    0.384250 0.058241 0.171181 0.153479
H29   H     H_    0.411261 0.195921 0.054805 0.150178
H30   H     H_    0.476316 0.215528 0.188931 0.195757
H31   H     H_    0.368558 0.343384 0.274994 0.204604
H32   H     H_    0.310034 0.328491 0.141677 0.115243
H33   H     H_    0.063480 0.492213 0.695588 0.119326
H34   H     H_    0.655264 0.008534 0.398319 0.121383
H35   H     H_    0.345267 0.987530 0.587339 0.117397
H36   H     H_    0.417509 0.408857 0.790074 0.115399
H37   H     H_    0.578266 0.598237 0.211678 0.108158
H38   H     H_    0.376887 0.347045 0.964855 0.083131
N1    N     N_R   0.515540 0.519350 0.790140 -0.220158
N2    N     N_R   0.484460 0.480650 0.209860 -0.220102
N3    N     N_1   0.068698 0.260257 0.279871 -0.310191
N4    N     N_1   0.931031 0.743823 0.721069 -0.316131
N5    N     N_1   0.310836 0.752139 0.659414 -0.292415
N6    N     N_1   0.695409 0.250960 0.346160 -0.292625
O1    O     O_R   0.504400 0.354460 0.582000 -0.499961
O2    O     O_R   0.495600 0.645540 0.418000 -0.508642
O3    O     O_R   0.493920 0.341410 0.386200 -0.516170
O4    O     O_R   0.506080 0.658590 0.613800 -0.512300
O5    O     O_R   0.384320 0.506520 0.597880 -0.488242
O6    O     O_R   0.615680 0.493480 0.402120 -0.490341
O7    O     O_R   0.373840 0.493460 0.402080 -0.516944
O8    O     O_R   0.626160 0.506540 0.597920 -0.516743

loop_
_geom_bond_atom_site_label_1
_geom_bond_atom_site_label_2
_ccdc_geom_bond_type
Cu1   O1    S    
C29   N3    T    
C4    C9    A    
Cu2   O7    S    
C33   H3    S    
C16   C21   S    
C23   C45   A    
C43   H31   S    
C41   C42   S    
C31   H9    S    
C35   C36   S    
C32   H6    S    
C1    O3    A    
C37   H10   S    
C36   H15   S    
C11   C18   S    
Cu2   O6    S    
C17   C30   S    
C3    H38   S    
C36   C37   S    
C24   C26   S    
C44   H30   S    
C46   H27   S    
C36   H14   S    
C6    N1    A    
C7    H37   S    
C42   H18   S    
C17   C20   S    
C15   C17   S    
C14   C24   S    
C19   C26   T    
C2    C50   A    
Cu1   N1    S    
C41   H22   S    
C15   C22   S    
C22   C25   S    
C37   H13   S    
C38   N5    T    
C1    C28   S    
C33   H5    S    
C15   H12   S    
C9    C10   A    
C12   O2    A    
C39   C45   S    
C33   H4    S    
C48   C50   A    
C5    C43   S    
C43   H32   S    
C18   C25   T    
C31   C49   S    
C35   C48   S    
C37   H11   S    
C44   C46   S    
C28   C45   A    
C34   C50   A    
C17   C24   S    
C13   C19   S    
C12   C27   S    
Cu1   Cu2   S    
C14   C20   S    
C4    C6    A    
C44   H29   S    
C1    O1    A    
C46   H26   S    
C16   C29   S    
C23   H34   S    
C40   H24   S    
C8    H36   S    
C31   H8    S    
C43   C44   S    
C2    C49   A    
C31   C32   S    
C20   H33   S    
C42   H20   S    
C11   O5    A    
C8    N1    A    
C13   O8    A    
C38   C47   S    
C40   C41   S    
C20   C22   S    
C14   C16   S    
Cu2   N2    S    
C27   C47   A    
Cu1   O4    S    
C7    C9    A    
C28   C48   A    
C16   C22   S    
C4    H2    S    
C3    C5    A    
Cu1   O5    S    
C21   H23   S    
Cu2   O3    S    
C32   C33   S    
Cu1   O8    S    
C30   N4    T    
C3    C10   A    
C46   H28   S    
C35   H16   S    
C7    N2    A    
Cu2   O2    S    
C42   H19   S    
C6    C40   S    
C34   H35   S    
C39   N6    T    
C12   O4    A    
C5    N2    A    
C41   H21   S    
C15   C21   S    
C14   H1    S    
C35   H17   S    
C8    C10   A    
C21   C24   S    
C2    C23   A    
C40   H25   S    
C11   O7    A    
C34   C47   A    
C32   H7    S    
C13   O6    A    
C27   C49   A    
