data_mof_unit_47555.cif
_audit_creation_date              2012-10-26T21:33:02-0400
_audit_creation_method            fapswitch 2.2
_symmetry_space_group_name_H-M    P1
_symmetry_Int_Tables_number       1
_space_group_crystal_system       triclinic
_cell_length_a                    28.21268
_cell_length_b                    18.487132
_cell_length_c                    17.074174
_cell_angle_alpha                 90.135935
_cell_angle_beta                  61.146503
_cell_angle_gamma                 90.187757
_cell_volume                      7799.81009791

loop_
_atom_site_label
_atom_site_type_symbol
_atom_type_description
_atom_site_fract_x
_atom_site_fract_y
_atom_site_fract_z
_atom_type_partial_charge
C1    C     C_R   0.703032 0.270905 0.674940 0.921593
C2    C     C_R   0.979963 0.630524 0.399116 -0.214127
C3    C     C_R   0.075358 0.902501 0.932803 0.935264
C4    C     C_R   0.573675 0.600213 0.934352 0.915309
C5    C     C_R   0.424480 0.402615 0.067228 0.945276
C6    C     C_R   0.426291 0.600110 0.065740 0.922618
C7    C     C_R   0.575458 0.402586 0.932761 0.942256
C8    C     C_R   0.547224 0.001255 0.508583 0.013652
C9    C     C_R   0.452841 0.998723 0.491132 0.014365
C10   C     C_R   0.072498 0.499696 0.427742 0.021481
C11   C     C_R   0.977861 0.499934 0.409806 0.015903
C12   C     C_R   0.510888 0.060271 0.541255 0.046128
C13   C     C_R   0.980053 0.369495 0.396288 -0.213072
C14   C     C_R   0.489183 0.939717 0.458422 0.046014
C15   C     C_R   0.462776 0.058162 0.534286 0.052698
C16   C     C_R   0.537295 0.941819 0.465416 0.048895
C17   C     C_R   0.051992 0.565901 0.415226 0.050918
C18   C     C_R   0.003808 0.433553 0.406451 0.047351
C19   C     C_R   0.003903 0.566211 0.407360 0.047178
C20   C     C_R   0.051613 0.433568 0.415246 0.049487
C21   C     C_R   0.628567 0.941341 0.493190 0.061201
C22   C     C_R   0.371463 0.058615 0.506668 0.062456
C23   C     C_R   0.391589 0.936684 0.447882 0.076944
C24   C     C_R   0.080869 0.629317 0.410684 -0.218218
C25   C     C_R   0.608454 0.063298 0.551874 0.074177
C26   C     C_R   0.136558 0.434039 0.461838 0.067441
C27   C     C_R   0.898954 0.566027 0.420612 0.065949
C28   C     C_R   0.898993 0.434068 0.419537 0.068583
C29   C     C_R   0.137021 0.565343 0.461205 0.066822
C30   C     C_R   0.669581 0.938456 0.518532 -0.127624
C31   C     C_R   0.330430 0.061515 0.481385 -0.123202
C32   C     C_R   0.340981 0.935740 0.448677 -0.134529
C33   C     C_R   0.659035 0.064236 0.551182 -0.129122
C34   C     C_R   0.173487 0.435607 0.497839 -0.120891
C35   C     C_R   0.577086 0.887500 0.428033 -0.216043
C36   C     C_R   0.843446 0.565024 0.440627 -0.121874
C37   C     C_R   0.843465 0.434954 0.440148 -0.124652
C38   C     C_R   0.173660 0.564121 0.497593 -0.111768
C39   C     C_R   0.684896 0.000167 0.545806 -0.302053
C40   C     C_R   0.315102 0.999807 0.454116 -0.302316
C41   C     C_R   0.189168 0.499957 0.517978 -0.329958
C42   C     C_R   0.817669 0.499934 0.447898 -0.307335
C43   C     C_R   0.594318 0.001774 0.518662 0.075461
C44   C     C_R   0.405729 0.998195 0.481113 0.075634
C45   C     C_R   0.114759 0.499677 0.451569 0.074201
C46   C     C_R   0.422991 0.112481 0.571698 -0.217101
C47   C     C_R   0.925359 0.500022 0.416261 0.077211
C48   C     C_R   0.122154 0.370627 0.431665 -0.190975
C49   C     C_R   0.929538 0.630072 0.403148 -0.188320
C50   C     C_R   0.929593 0.370131 0.400439 -0.201568
C51   C     C_R   0.123426 0.628513 0.429959 -0.180473
C52   C     C_R   0.621660 0.887352 0.441630 -0.187870
C53   C     C_R   0.378383 0.112596 0.558221 -0.189036
C54   C     C_R   0.427631 0.878487 0.416417 -0.187109
C55   C     C_R   0.572425 0.121514 0.583240 -0.178579
C56   C     C_3   0.606760 0.249569 0.172796 -0.334134
C57   C     C_R   0.475453 0.879973 0.421138 -0.215232
C58   C     C_3   0.297483 0.562777 0.933719 -0.355238
C59   C     C_3   0.393864 0.242213 0.825922 -0.353008
C60   C     C_3   0.631405 0.839058 0.077567 -0.324766
C61   C     C_3   0.261767 0.920343 0.923571 -0.305914
C62   C     C_3   0.868693 0.337675 0.927191 -0.317809
C63   C     C_3   0.893046 0.749993 0.827844 -0.336336
C64   C     C_3   0.132606 0.340387 0.079662 -0.323028
C65   C     C_3   0.666516 0.446151 0.721630 -0.206779
C66   C     C_3   0.438775 0.737357 0.196699 -0.277260
C67   C     C_3   0.332012 0.446853 0.277973 -0.206547
C68   C     C_R   0.524613 0.120028 0.578515 -0.213520
C69   C     C_3   0.559605 0.735008 0.805275 -0.266978
C70   C     C_3   0.167378 0.946775 0.721702 -0.207692
C71   C     C_3   0.939036 0.237338 0.197313 -0.276066
C72   C     C_3   0.832925 0.946419 0.278629 -0.204659
C73   C     C_3   0.059210 0.235087 0.806933 -0.248643
C74   C     C_R   0.716887 0.257186 0.956781 -0.051896
C75   C     C_R   0.274446 0.725236 0.051110 -0.055374
C76   C     C_R   0.283380 0.256028 0.043151 -0.049326
C77   C     C_R   0.298147 0.731314 0.324146 0.900309
C78   C     C_R   0.723224 0.729773 0.951510 -0.053544
C79   C     C_R   0.217370 0.760793 0.957078 -0.054533
C80   C     C_R   0.776520 0.228830 0.048694 -0.054626
C81   C     C_R   0.782875 0.756893 0.043613 -0.048760
C82   C     C_R   0.223746 0.228821 0.951069 -0.050841
C83   C     C_R   0.773333 0.266587 0.914337 -0.369718
C84   C     C_R   0.259104 0.796807 0.047753 -0.373751
C85   C     C_R   0.227112 0.266515 0.085355 -0.369278
C86   C     C_R   0.779502 0.718916 0.909057 -0.386014
C87   C     C_R   0.232089 0.688928 0.961079 -0.384258
C88   C     C_R   0.296994 0.270845 0.324994 0.928660
C89   C     C_R   0.720145 0.218315 0.091069 -0.385500
C90   C     C_R   0.726512 0.766602 0.086179 -0.374485
C91   C     C_R   0.279934 0.217124 0.908951 -0.395342
C92   C     C_R   0.802920 0.254227 0.959646 0.548056
C93   C     C_R   0.232033 0.815153 0.999889 0.548386
C94   C     C_R   0.197507 0.254744 0.039887 0.550551
C95   C     C_R   0.809914 0.733633 0.953509 0.558315
C96   C     C_R   0.261243 0.670549 0.006597 0.563469
C97   C     C_R   0.689762 0.233629 0.046743 0.558635
C98   C     C_R   0.696893 0.754834 0.040747 0.548822
C99   C     C_R   0.701698 0.731621 0.675997 0.940237
C100  C     C_R   0.310412 0.231854 0.953397 0.563237
C101  C     C_R   0.642153 0.324099 0.946754 -0.223231
C102  C     C_R   0.353535 0.667887 0.057050 -0.226880
C103  C     C_R   0.358118 0.323149 0.053049 -0.221392
C104  C     C_R   0.645554 0.670090 0.943744 -0.206531
C105  C     C_R   0.141948 0.824333 0.946742 -0.198289
C106  C     C_R   0.854200 0.169257 0.056482 -0.207507
C107  C     C_R   0.857683 0.823879 0.053458 -0.225453
C108  C     C_R   0.145866 0.169559 0.943529 -0.201231
C109  C     C_R   0.620609 0.354133 0.894606 -0.210422
C110  C     C_R   0.203126 0.771061 0.674934 0.944757
C111  C     C_R   0.383738 0.653399 0.101383 -0.215835
C112  C     C_R   0.379353 0.353977 0.105367 -0.207206
C113  C     C_R   0.615737 0.654404 0.899075 -0.219512
C114  C     C_R   0.120590 0.854331 0.894490 -0.208117
C115  C     C_R   0.884112 0.154042 0.101120 -0.219633
C116  C     C_R   0.879240 0.854194 0.105539 -0.210828
C117  C     C_R   0.115894 0.154199 0.899023 -0.223514
C118  C     C_R   0.645164 0.342733 0.803743 0.444459
C119  C     C_R   0.370407 0.685468 0.182741 0.451417
C120  C     C_R   0.354548 0.343038 0.196346 0.447407
C121  C     C_R   0.798242 0.231492 0.324094 0.920525
C122  C     C_R   0.629152 0.686051 0.817520 0.452053
C123  C     C_R   0.145485 0.843251 0.803556 0.446122
C124  C     C_R   0.870789 0.186048 0.182533 0.453793
C125  C     C_R   0.854698 0.842917 0.196418 0.445829
C126  C     C_R   0.129275 0.185980 0.817560 0.449631
C127  C     C_R   0.683058 0.288562 0.767820 -0.175554
C128  C     C_R   0.320488 0.718668 0.228862 -0.172282
C129  C     C_R   0.316934 0.288345 0.232160 -0.175868
C130  C     C_R   0.679042 0.719642 0.771490 -0.182532
C131  C     C_R   0.183346 0.788959 0.767787 -0.180140
C132  C     C_R   0.797005 0.770822 0.325005 0.907971
C133  C     C_R   0.820873 0.219345 0.228608 -0.176870
C134  C     C_R   0.816909 0.788424 0.232246 -0.172773
C135  C     C_R   0.179282 0.219236 0.771359 -0.175211
C136  C     C_R   0.705551 0.257342 0.818349 -0.291725
C137  C     C_R   0.289405 0.733557 0.185603 -0.290770
C138  C     C_R   0.294608 0.256463 0.181541 -0.292695
C139  C     C_R   0.709648 0.735983 0.815319 -0.307033
C140  C     C_R   0.206044 0.758197 0.818428 -0.309276
C141  C     C_R   0.790187 0.235140 0.184887 -0.306703
C142  C     C_R   0.794366 0.756886 0.181763 -0.299086
C143  C     C_R   0.201767 0.231480 0.675968 0.921821
C144  C     C_R   0.210117 0.235112 0.814933 -0.318624
C145  C     C_R   0.686928 0.277897 0.907687 0.167739
C146  C     C_R   0.306340 0.709228 0.098245 0.161762
C147  C     C_R   0.313374 0.276726 0.092153 0.171262
C148  C     C_R   0.691953 0.713220 0.903448 0.142542
C149  C     C_R   0.187523 0.779741 0.907413 0.137473
C150  C     C_R   0.807767 0.212158 0.096804 0.139126
C151  C     C_R   0.812940 0.777461 0.092543 0.169027
C152  C     C_R   0.192419 0.212391 0.903069 0.144011
C153  C     C_R   0.691168 0.129672 0.536048 0.887308
C154  C     C_R   0.079716 0.369939 0.411986 -0.219587
C155  C     C_R   0.308839 0.870313 0.463905 0.875232
C156  C     C_R   0.303393 0.127698 0.481970 0.899342
C157  C     C_R   0.696610 0.872294 0.518012 0.884303
C158  C     C_R   0.197260 0.628317 0.514281 0.901476
C159  C     C_R   0.808760 0.370525 0.464556 0.872895
C160  C     C_R   0.808736 0.629369 0.464728 0.888118
C161  C     C_R   0.197232 0.371681 0.514349 0.889560
C162  C     C_R   0.073712 0.100172 0.934335 0.916392
C163  C     C_R   0.924442 0.902683 0.067278 0.935762
C164  C     C_R   0.926279 0.100124 0.065774 0.914400
H1    H     H_    0.719834 0.999513 0.556397 0.198922
H2    H     H_    0.348530 0.154282 0.591780 0.167279
H3    H     H_    0.420150 0.832178 0.384993 0.164322
H4    H     H_    0.579888 0.167841 0.614646 0.168177
H5    H     H_    0.070310 0.318268 0.393526 0.144780
H6    H     H_    0.998766 0.682794 0.390637 0.142063
H7    H     H_    0.999092 0.317369 0.385931 0.145292
H8    H     H_    0.072160 0.680775 0.391061 0.139762
H9    H     H_    0.575547 0.844468 0.386720 0.143748
H10   H     H_    0.424564 0.155561 0.612907 0.128567
H11   H     H_    0.500168 0.832319 0.396547 0.143931
H12   H     H_    0.280139 0.000461 0.443592 0.200098
H13   H     H_    0.499899 0.167688 0.603112 0.135210
H14   H     H_    0.794668 0.285955 0.846023 0.185597
H15   H     H_    0.269479 0.839377 0.080588 0.185164
H16   H     H_    0.205975 0.286140 0.153621 0.180943
H17   H     H_    0.799429 0.697017 0.841951 0.174352
H18   H     H_    0.219530 0.647034 0.930599 0.172244
H19   H     H_    0.700096 0.196275 0.158050 0.174576
H20   H     H_    0.705299 0.785700 0.154669 0.178718
H21   H     H_    0.299631 0.194583 0.842170 0.169415
H22   H     H_    0.625881 0.339722 0.016137 0.189543
H23   H     H_    0.215595 0.500093 0.547713 0.195277
H24   H     H_    0.366336 0.646137 0.990911 0.187786
H25   H     H_    0.374533 0.338361 0.983527 0.186937
H26   H     H_    0.633987 0.646398 0.008503 0.199294
H27   H     H_    0.124460 0.837698 0.017084 0.194674
H28   H     H_    0.865771 0.145484 0.991683 0.200055
H29   H     H_    0.873880 0.839516 0.984143 0.189504
H30   H     H_    0.134286 0.145874 0.008299 0.202197
H31   H     H_    0.738512 0.219004 0.787730 0.183463
H32   H     H_    0.251030 0.761474 0.220740 0.182736
H33   H     H_    0.261635 0.217939 0.212125 0.182934
H34   H     H_    0.775307 0.499858 0.465169 0.198975
H35   H     H_    0.747585 0.765168 0.780671 0.181201
H36   H     H_    0.239648 0.720853 0.787634 0.179625
H37   H     H_    0.752286 0.264169 0.219571 0.181633
H38   H     H_    0.761376 0.718387 0.212343 0.182326
H39   H     H_    0.248189 0.263979 0.780136 0.178132
H40   H     H_    0.621966 0.304587 0.176196 0.144876
H41   H     H_    0.608569 0.213019 0.222798 0.176938
H42   H     H_    0.563511 0.255275 0.191064 0.205564
H43   H     H_    0.328349 0.597057 0.879229 0.147158
H44   H     H_    0.266880 0.542750 0.915624 0.170860
H45   H     H_    0.143397 0.320188 0.419987 0.186947
H46   H     H_    0.318855 0.514797 0.940202 0.198282
H47   H     H_    0.379633 0.296571 0.818209 0.144671
H48   H     H_    0.391549 0.202692 0.778793 0.167853
H49   H     H_    0.437179 0.247792 0.807420 0.201673
H50   H     H_    0.647500 0.854839 0.006281 0.167940
H51   H     H_    0.648465 0.874732 0.110463 0.167118
H52   H     H_    0.586977 0.847500 0.111943 0.191313
H53   H     H_    0.269373 0.894392 0.859640 0.161049
H54   H     H_    0.299300 0.920219 0.929706 0.164509
H55   H     H_    0.250805 0.977578 0.921262 0.198183
H56   H     H_    0.915882 0.681081 0.390983 0.183625
H57   H     H_    0.853337 0.350349 0.999217 0.164741
H58   H     H_    0.851078 0.375585 0.897607 0.167603
H59   H     H_    0.913132 0.346320 0.892254 0.191281
H60   H     H_    0.878221 0.805306 0.825300 0.145878
H61   H     H_    0.890992 0.714174 0.777263 0.176744
H62   H     H_    0.936330 0.755228 0.809679 0.204849
H63   H     H_    0.149903 0.358915 0.009093 0.163196
H64   H     H_    0.148810 0.373617 0.115912 0.172836
H65   H     H_    0.088241 0.349186 0.112680 0.191582
H66   H     H_    0.709740 0.430208 0.681208 0.135729
H67   H     H_    0.915795 0.319437 0.387186 0.179389
H68   H     H_    0.660893 0.480049 0.779459 0.134198
H69   H     H_    0.656103 0.479955 0.678534 0.193717
H70   H     H_    0.416027 0.788876 0.221999 0.135380
H71   H     H_    0.465259 0.739896 0.122878 0.141781
H72   H     H_    0.465362 0.731265 0.227405 0.193494
H73   H     H_    0.288822 0.430111 0.317089 0.128711
H74   H     H_    0.338155 0.480505 0.219814 0.142690
H75   H     H_    0.341417 0.481182 0.322099 0.195287
H76   H     H_    0.581058 0.787751 0.782180 0.147591
H77   H     H_    0.532946 0.735528 0.879125 0.134095
H78   H     H_    0.145487 0.678558 0.417098 0.186188
H79   H     H_    0.533308 0.728154 0.774091 0.188001
H80   H     H_    0.210568 0.930593 0.681471 0.134829
H81   H     H_    0.161716 0.980433 0.779740 0.134734
H82   H     H_    0.157234 0.980910 0.678533 0.195114
H83   H     H_    0.916344 0.288881 0.222774 0.135275
H84   H     H_    0.965668 0.240106 0.123542 0.144426
H85   H     H_    0.965471 0.230892 0.228253 0.193554
H86   H     H_    0.789710 0.929974 0.318474 0.124774
H87   H     H_    0.838750 0.980276 0.220800 0.134824
H88   H     H_    0.842933 0.980441 0.322276 0.196211
H89   H     H_    0.651516 0.845657 0.408126 0.170152
H90   H     H_    0.080359 0.288114 0.784805 0.141803
H91   H     H_    0.032672 0.234653 0.880813 0.135731
H92   H     H_    0.032811 0.228671 0.775871 0.198767
O1    O     O_R   0.746490 0.236330 0.638080 -0.647548
O2    O     O_R   0.325830 0.813840 0.483730 -0.634239
O3    O     O_R   0.325830 0.186160 0.483730 -0.636238
O4    O     O_R   0.674170 0.813840 0.516270 -0.637373
O5    O     O_R   0.174170 0.686160 0.516270 -0.647935
O6    O     O_R   0.825830 0.313840 0.483730 -0.637530
O7    O     O_R   0.825830 0.686160 0.483730 -0.642535
O8    O     O_R   0.174170 0.313840 0.516270 -0.647930
O9    O     O_R   0.739960 0.127620 0.525000 -0.629538
O10   O     O_R   0.260040 0.872380 0.475000 -0.629453
O11   O     O_R   0.260040 0.127620 0.475000 -0.634592
O12   O     O_R   0.253510 0.763670 0.361920 -0.663826
O13   O     O_R   0.739960 0.872380 0.525000 -0.634887
O14   O     O_R   0.239960 0.627620 0.525000 -0.632488
O15   O     O_R   0.760040 0.372380 0.475000 -0.632640
O16   O     O_R   0.760040 0.627620 0.475000 -0.631104
O17   O     O_R   0.239960 0.372380 0.525000 -0.631009
O18   O     O_R   0.680700 0.294870 0.629350 -0.571938
O19   O     O_R   0.319300 0.705130 0.370650 -0.576784
O20   O     O_R   0.319300 0.294870 0.370650 -0.562860
O21   O     O_R   0.680700 0.705130 0.629350 -0.564118
O22   O     O_R   0.180700 0.794870 0.629350 -0.558789
O23   O     O_R   0.253510 0.236330 0.361920 -0.662349
O24   O     O_R   0.819300 0.205130 0.370650 -0.573575
O25   O     O_R   0.819300 0.794870 0.370650 -0.574673
O26   O     O_R   0.180700 0.205130 0.629350 -0.566985
O27   O     O_R   0.062020 0.072840 0.007170 -0.635657
O28   O     O_R   0.937980 0.927160 0.992830 -0.647660
O29   O     O_R   0.937980 0.072840 0.992830 -0.642119
O30   O     O_R   0.062020 0.927160 0.007170 -0.636556
O31   O     O_R   0.562020 0.572840 0.007170 -0.640911
O32   O     O_R   0.437980 0.427160 0.992830 -0.647784
O33   O     O_R   0.437980 0.572840 0.992830 -0.645950
O34   O     O_R   0.746490 0.763670 0.638080 -0.645305
O35   O     O_R   0.562020 0.427160 0.007170 -0.647277
O36   O     O_R   0.947860 0.073950 0.109290 -0.564555
O37   O     O_R   0.052140 0.926050 0.890710 -0.565098
O38   O     O_R   0.052140 0.073950 0.890710 -0.565713
O39   O     O_R   0.947860 0.926050 0.109290 -0.564874
O40   O     O_R   0.447860 0.573950 0.109290 -0.563526
O41   O     O_R   0.552140 0.426050 0.890710 -0.563719
O42   O     O_R   0.552140 0.573950 0.890710 -0.567255
O43   O     O_R   0.447860 0.426050 0.109290 -0.563056
O44   O     O_3   0.634635 0.219121 0.086299 -0.600224
O45   O     O_R   0.246490 0.736330 0.638080 -0.646338
O46   O     O_3   0.272172 0.599001 0.016864 -0.598544
O47   O     O_3   0.365346 0.216278 0.914607 -0.595897
O48   O     O_3   0.641570 0.765588 0.085445 -0.618316
O49   O     O_3   0.218538 0.886647 0.997737 -0.608282
O50   O     O_3   0.858262 0.265087 0.914960 -0.614305
O51   O     O_3   0.864947 0.718838 0.913871 -0.601126
O52   O     O_3   0.142240 0.266136 0.084081 -0.616648
O53   O     O_3   0.632089 0.385012 0.749775 -0.579935
O54   O     O_3   0.403440 0.677434 0.221353 -0.575886
O55   O     O_3   0.366924 0.386425 0.250572 -0.580240
O56   O     O_R   0.753510 0.263670 0.361920 -0.646805
O57   O     O_3   0.596448 0.676956 0.778413 -0.577905
O58   O     O_3   0.132738 0.885846 0.749451 -0.578369
O59   O     O_3   0.903628 0.177522 0.221421 -0.577663
O60   O     O_3   0.867569 0.885719 0.250510 -0.579273
O61   O     O_3   0.096394 0.177378 0.778697 -0.578743
O62   O     O_R   0.753510 0.736330 0.361920 -0.661651
O63   O     O_R   0.246490 0.263670 0.638080 -0.660251
O64   O     O_R   0.674170 0.186160 0.516270 -0.635580
Zn1   Zn    Zn3+2 0.792340 0.208750 0.507670 0.967054
Zn2   Zn    Zn3+2 0.494040 0.500000 0.919480 0.978825
Zn3   Zn    Zn3+2 0.005960 0.000000 0.080520 1.009910
Zn4   Zn    Zn3+2 0.994040 0.000000 0.919480 0.994071
Zn5   Zn    Zn3+2 0.207660 0.791250 0.492330 0.960605
Zn6   Zn    Zn3+2 0.207660 0.208750 0.492330 0.959001
Zn7   Zn    Zn3+2 0.792340 0.791250 0.507670 0.961300
Zn8   Zn    Zn3+2 0.292340 0.708750 0.507670 0.962803
Zn9   Zn    Zn3+2 0.707660 0.291250 0.492330 0.962822
Zn10  Zn    Zn3+2 0.707660 0.708750 0.492330 0.962883
Zn11  Zn    Zn3+2 0.292340 0.291250 0.507670 0.961444
Zn12  Zn    Zn3+2 0.505960 0.500000 0.080520 0.994362

loop_
_geom_bond_atom_site_label_1
_geom_bond_atom_site_label_2
_ccdc_geom_bond_type
C28   C47   A    
C82   C94   A    
C36   C42   A    
C71   H83   S    
C74   C83   A    
C34   C161  S    
C87   H18   S    
C79   C87   A    
C56   O44   S    
C164  O29   A    
C66   H70   S    
C60   H51   S    
C61   H53   S    
C16   C35   A    
O7    Zn7   S    
C64   H65   S    
C81   C95   A    
C157  O4    A    
C41   H23   S    
C62   H57   S    
C37   C42   A    
C143  O63   A    
C131  C140  A    
C113  C122  A    
C10   C20   A    
C160  O7    A    
C46   H10   S    
C91   C100  A    
C63   H62   S    
C98   O48   S    
C117  C126  A    
C54   H3    S    
O4    Zn10  S    
C65   H68   S    
C78   C148  S    
C79   C149  S    
C119  C128  A    
C24   C51   A    
C132  O25   A    
C8    C16   A    
C94   O52   S    
C102  C111  A    
C4    O42   A    
C55   H4    S    
O2    Zn8   S    
C95   O51   S    
C109  C118  A    
C7    O41   A    
C159  O15   A    
C160  O16   A    
C25   C55   A    
C4    C113  S    
C42   H34   S    
C127  C136  A    
C136  H31   S    
C112  C120  A    
C155  O2    A    
O21   Zn10  S    
C82   C91   A    
C29   C45   A    
C103  C112  A    
C142  C151  A    
C39   H1    S    
C52   H89   S    
C132  O62   A    
C123  O58   S    
C65   H66   S    
C110  C131  S    
C161  O17   A    
C81   C90   A    
C13   C18   A    
O26   Zn6   S    
C120  O55   S    
C51   H78   S    
C164  O36   A    
O43   Zn12  S    
C14   C57   A    
C83   H14   S    
C2    C19   A    
O39   Zn3   S    
C73   O61   S    
C61   H55   S    
C59   H49   S    
C61   O49   S    
C76   C100  A    
C67   H74   S    
C106  C115  A    
C5    O32   A    
C9    C15   A    
C65   O53   S    
C159  O6    A    
C46   C53   A    
C84   C93   A    
C140  H36   S    
C64   O52   S    
C88   O23   A    
C86   C95   A    
C70   H81   S    
C73   H90   S    
C53   H2    S    
C132  C134  S    
C118  O53   S    
C66   H72   S    
C76   C85   A    
C71   H85   S    
C3    O30   A    
O12   Zn5   S    
C11   C18   A    
C106  C150  A    
C6    C111  S    
C77   O19   A    
C74   C145  S    
C106  H28   S    
C25   C43   A    
C31   C156  S    
O36   Zn3   S    
C103  C147  A    
C63   H61   S    
C162  O27   A    
C12   C68   A    
C101  C145  A    
C89   H19   S    
C121  O56   A    
C33   C153  S    
C75   C84   A    
O29   Zn4   S    
O37   Zn4   S    
C68   H13   S    
C111  C119  A    
C60   H50   S    
C26   C45   A    
C57   H11   S    
C119  O54   S    
C29   C38   A    
C86   H17   S    
O22   Zn5   S    
C107  C151  A    
C135  C143  S    
O45   Zn8   S    
O19   Zn8   S    
C97   O44   S    
C96   O46   S    
C88   C129  S    
C59   H47   S    
C141  C150  A    
C59   O47   S    
C75   C146  S    
C60   O48   S    
C139  C148  A    
C4    O31   A    
C56   H41   S    
C120  C129  A    
C35   H9    S    
C69   O57   S    
C38   C41   A    
C40   H12   S    
C81   C151  S    
C72   H88   S    
O40   Zn12  S    
C124  O59   S    
C73   H92   S    
C58   H44   S    
C8    C12   A    
C157  O13   A    
C10   C45   A    
C1    O18   A    
C114  C123  A    
O15   Zn9   S    
C116  C125  A    
C118  C127  A    
C108  H30   S    
C29   C51   A    
C27   C47   A    
C48   C154  A    
O56   Zn9   S    
C108  C117  A    
C153  O64   A    
C126  O61   S    
C163  O39   A    
C5    C112  S    
C117  C162  S    
C77   O12   A    
C66   H71   S    
C37   C159  S    
C60   H52   S    
C144  C152  A    
C99   O21   A    
C69   H77   S    
O31   Zn12  S    
C92   O50   S    
C28   C37   A    
C85   H16   S    
C67   H75   S    
C30   C39   A    
C62   H58   S    
C72   H87   S    
C24   H8    S    
C107  C116  A    
C13   C50   A    
C138  H33   S    
C13   H7    S    
C56   H42   S    
C48   H45   S    
C110  O45   A    
O42   Zn2   S    
C15   C46   A    
O34   Zn7   S    
C64   H63   S    
C27   C49   A    
C25   C33   A    
C54   C57   A    
C125  C134  A    
C30   C157  S    
C104  C148  A    
C116  C163  S    
C11   C47   A    
C8    C43   A    
C64   H64   S    
C55   C68   A    
C66   O54   S    
C11   C19   A    
C142  H38   S    
C65   H69   S    
C124  C133  A    
C101  C109  A    
C31   C40   A    
C80   C89   A    
C105  H27   S    
C108  C152  A    
C7    O35   A    
C9    C44   A    
O64   Zn9   S    
C103  H25   S    
C99   O34   A    
O30   Zn3   S    
C26   C48   A    
C156  O3    A    
C91   H21   S    
C137  H32   S    
O23   Zn6   S    
C34   C41   A    
C71   H84   S    
C125  O60   S    
C130  C139  A    
C75   C96   A    
C1    O1    A    
C63   O51   S    
C61   H54   S    
C3    O37   A    
C72   O60   S    
C67   H73   S    
C23   C44   A    
O20   Zn11  S    
C84   H15   S    
C153  O9    A    
C9    C14   A    
C134  C142  A    
C144  H39   S    
C137  C146  A    
C12   C15   A    
C38   C158  S    
C58   O46   S    
O24   Zn1   S    
C70   H82   S    
C90   H20   S    
C126  C135  A    
C70   O58   S    
C122  O57   S    
C115  C124  A    
C99   C130  S    
C123  C131  A    
O14   Zn8   S    
C69   H79   S    
O41   Zn2   S    
C27   C36   A    
C21   C30   A    
C133  C141  A    
C158  O14   A    
C23   C32   A    
C100  O47   S    
C5    O43   A    
O63   Zn11  S    
C104  C113  A    
C6    O40   A    
C69   H76   S    
O9    Zn1   S    
C155  O10   A    
O10   Zn5   S    
C154  H5    S    
C35   C52   A    
C72   H86   S    
C82   C152  S    
C110  O22   A    
C62   O50   S    
C80   C92   A    
C121  O24   A    
O11   Zn6   S    
C80   C150  S    
C83   C92   A    
C33   C39   A    
C20   C154  A    
O16   Zn10  S    
O28   Zn4   S    
C141  H37   S    
C79   C93   A    
C139  H35   S    
C10   C17   A    
C115  C164  S    
O5    Zn5   S    
C70   H80   S    
C73   H91   S    
C28   C50   A    
C26   C34   A    
O6    Zn1   S    
C22   C44   A    
C129  C138  A    
C76   C147  S    
C78   C98   A    
O1    Zn1   S    
O25   Zn7   S    
O3    Zn11  S    
C136  C145  A    
C6    O33   A    
C78   C86   A    
C3    C114  S    
C21   C43   A    
O33   Zn2   S    
C22   C53   A    
C58   H46   S    
O35   Zn12  S    
C17   C24   A    
C22   C31   A    
C49   H56   S    
C105  C114  A    
O13   Zn7   S    
C102  H24   S    
C7    C109  S    
C89   C97   A    
C128  C137  A    
C2    C49   A    
C32   C155  S    
C85   C94   A    
C138  C147  A    
C158  O5    A    
C104  H26   S    
C87   C96   A    
C50   H67   S    
C62   H59   S    
C163  O28   A    
C77   C128  S    
C2    H6    S    
C135  C144  A    
O38   Zn4   S    
O18   Zn9   S    
C14   C16   A    
C101  H22   S    
C107  H29   S    
C59   H48   S    
C23   C54   A    
O32   Zn2   S    
C93   O49   S    
C143  O26   A    
C63   H60   S    
C1    C127  S    
C56   H40   S    
C105  C149  A    
O8    Zn6   S    
C88   O20   A    
C102  C146  A    
C161  O8    A    
C156  O11   A    
C67   O55   S    
C58   H43   S    
C140  C149  A    
C17   C19   A    
C90   C98   A    
C18   C20   A    
C32   C40   A    
O27   Zn3   S    
C36   C160  S    
O17   Zn11  S    
O62   Zn10  S    
C121  C133  S    
C162  O38   A    
C122  C130  A    
C21   C52   A    
C74   C97   A    
C71   O59   S    
