data_mof_unit_25513.cif
_audit_creation_date              2012-12-10T18:34:12-0500
_audit_creation_method            fapswitch 2.2
_symmetry_space_group_name_H-M    P1
_symmetry_Int_Tables_number       1
_space_group_crystal_system       triclinic
_cell_length_a                    11.005792
_cell_length_b                    15.085904
_cell_length_c                    13.942286
_cell_angle_alpha                 91.106875
_cell_angle_beta                  104.127219
_cell_angle_gamma                 92.182889
_cell_volume                      2242.2524219

loop_
_atom_site_label
_atom_site_type_symbol
_atom_type_description
_atom_site_fract_x
_atom_site_fract_y
_atom_site_fract_z
_atom_type_partial_charge
C1    C     C_R   0.498496 0.329997 0.498994 0.819999
C2    C     C_R   0.499304 0.669909 0.500509 0.826677
C3    C     C_R   0.482365 0.048121 0.495701 0.048734
C4    C     C_R   0.483195 0.950696 0.496569 0.048859
C5    C     C_R   0.589907 0.547888 0.125589 -0.300525
C6    C     C_R   0.447604 0.427631 0.880022 -0.298883
C7    C     C_R   0.588316 0.548886 0.226529 0.004463
C8    C     C_R   0.445556 0.430120 0.778513 0.005904
C9    C     C_R   0.410963 0.448757 0.189986 0.177973
C10   C     C_R   0.556737 0.569110 0.805727 0.193568
C11   C     C_R   0.398771 0.457827 0.087166 0.322225
C12   C     C_R   0.534026 0.576973 0.901137 0.314416
C13   C     C_R   0.493111 0.503089 0.053205 0.028313
C14   C     C_R   0.490878 0.502447 0.943715 0.019875
C15   C     C_R   0.261526 0.498498 0.458793 0.727552
C16   C     C_R   0.738182 0.499412 0.540856 0.746044
C17   C     C_2   0.123279 0.495482 0.434519 0.252171
C18   C     C_2   0.875433 0.496784 0.563914 0.254951
C19   C     C_2   0.066139 0.474516 0.506378 -0.221784
C20   C     C_2   0.930244 0.477292 0.490100 -0.210095
C21   C     C_R   0.417381 0.095956 0.554891 0.083693
C22   C     C_R   0.418749 0.898490 0.412355 0.071116
C23   C     C_R   0.423032 0.188525 0.553610 -0.241307
C24   C     C_R   0.424361 0.806362 0.416112 -0.219089
C25   C     C_R   0.492739 0.233367 0.496897 -0.097659
C26   C     C_R   0.493725 0.766124 0.500013 -0.095693
C27   C     C_R   0.559471 0.186321 0.441132 -0.302884
C28   C     C_R   0.560640 0.817549 0.581178 -0.332378
C29   C     C_R   0.555142 0.092985 0.439616 0.456371
C30   C     C_R   0.555859 0.910593 0.581030 0.467262
Cu1   Cu    Cu3+1 0.500000 0.499990 0.596430 0.929125
Cu2   Cu    Cu3+1 0.500000 0.500010 0.403570 0.915290
H1    H     H_    0.874257 0.465733 0.414771 0.185860
H2    H     H_    0.119781 0.456666 0.579211 0.182964
H3    H     H_    0.373203 0.226301 0.597576 0.141598
H4    H     H_    0.374019 0.765397 0.353101 0.158345
H5    H     H_    0.618004 0.223011 0.402254 0.134489
H6    H     H_    0.620012 0.784769 0.642216 0.124257
H7    H     H_    0.667468 0.582100 0.105006 0.201719
H8    H     H_    0.415123 0.366994 0.907570 0.202535
H9    H     H_    0.660841 0.586697 0.279541 0.156144
H10   H     H_    0.404685 0.373970 0.730622 0.141140
N1    N     N_R   0.500000 0.500020 0.258690 -0.197055
N2    N     N_R   0.500000 0.499980 0.741310 -0.197342
O1    O     O_R   0.500010 0.371450 0.581440 -0.580278
O2    O     O_R   0.499990 0.628550 0.418560 -0.571040
O3    O     O_R   0.500010 0.371460 0.418560 -0.590889
O4    O     O_R   0.499990 0.628540 0.581440 -0.602999
O5    O     O_R   0.320690 0.500000 0.551510 -0.589502
O6    O     O_R   0.679310 0.500000 0.448490 -0.607052
O7    O     O_R   0.320690 0.500010 0.388630 -0.601830
O8    O     O_R   0.679310 0.499990 0.611370 -0.559176
O9    O     O_3   0.297060 0.416921 0.020543 -0.603450
C31   C     C_3   0.201283 0.478177 0.995994 0.032871
H11   H     H_    0.230045 0.533288 0.953218 0.147022
H12   H     H_    0.177673 0.506346 0.063361 0.125947
C32   C     C_3   0.083767 0.430751 0.932628 -0.743516
H13   H     H_    0.056727 0.372782 0.972021 0.238193
H14   H     H_    0.005211 0.476558 0.917593 0.198910
H15   H     H_    0.101183 0.407591 0.861255 0.267119
O10   O     O_3   0.564795 0.656153 0.954904 -0.594759
C33   C     C_3   0.457132 0.707120 0.937981 0.070642
H16   H     H_    0.382787 0.674032 0.968170 0.138015
H17   H     H_    0.419415 0.718020 0.857481 0.127890
C34   C     C_3   0.491910 0.797300 0.990121 -0.800274
H18   H     H_    0.565233 0.832188 0.960698 0.241992
H19   H     H_    0.407957 0.838168 0.977466 0.195017
H20   H     H_    0.528090 0.788964 0.070925 0.251890
O11   O     O_3   0.946346 0.514478 0.659582 -0.574933
C35   C     C_3   0.985030 0.605358 0.668360 0.087815
H21   H     H_    0.904813 0.646272 0.673085 0.135704
H22   H     H_    0.021832 0.627896 0.604683 0.154140
C36   C     C_3   0.090262 0.621532 0.761325 -0.827336
H23   H     H_    0.170844 0.580562 0.757691 0.251144
H24   H     H_    0.121982 0.692608 0.768021 0.197194
H25   H     H_    0.057012 0.604148 0.827677 0.246547
O12   O     O_3   0.053079 0.527963 0.346436 -0.571659
C37   C     C_3   0.064299 0.474875 0.264902 0.078330
H26   H     H_    0.078044 0.403624 0.283175 0.117394
H27   H     H_    0.143547 0.501822 0.236481 0.164514
C38   C     C_3   0.945161 0.479523 0.182645 -0.827013
H28   H     H_    0.929977 0.549282 0.160201 0.250323
H29   H     H_    0.953417 0.438920 0.117437 0.202624
H30   H     H_    0.863212 0.453596 0.208520 0.248094
C39   C     C_3   0.348663 0.051902 0.625071 -0.393038
C40   C     C_3   0.225817 0.003052 0.571156 -0.387883
C41   C     C_3   0.153806 0.967777 0.644161 -0.826053
H31   H     H_    0.211376 0.921176 0.695167 0.244616
H32   H     H_    0.128608 0.023386 0.687946 0.257288
H33   H     H_    0.066159 0.931742 0.602995 0.250304
H34   H     H_    0.165867 0.048852 0.520665 0.225708
H35   H     H_    0.246225 0.945719 0.527776 0.222473
H36   H     H_    0.409828 0.005350 0.672656 0.218340
H37   H     H_    0.326712 0.102645 0.676592 0.194554
C42   C     C_3   0.346483 0.937527 0.316459 -0.390594
C43   C     C_3   0.215630 0.964652 0.322162 -0.377884
C44   C     C_3   0.131720 0.979492 0.219611 -0.842714
H38   H     H_    0.175920 0.029545 0.180066 0.255167
H39   H     H_    0.114403 0.916290 0.175208 0.253002
H40   H     H_    0.040195 0.003549 0.226966 0.243870
H41   H     H_    0.169745 0.911767 0.357239 0.227745
H42   H     H_    0.224358 0.027219 0.366972 0.219856
H43   H     H_    0.398981 0.995185 0.295990 0.205820
H44   H     H_    0.336635 0.887808 0.254713 0.199176
O13   O     O_3   0.629446 0.042551 0.393343 -0.575004
C45   C     C_3   0.646074 0.079454 0.304751 0.040201
H45   H     H_    0.724059 0.130799 0.321839 0.154630
H46   H     H_    0.559034 0.108722 0.261171 0.128334
C46   C     C_3   0.680996 0.006537 0.240814 -0.784178
H47   H     H_    0.604731 0.954022 0.222348 0.243449
H48   H     H_    0.695178 0.034604 0.171100 0.195661
H49   H     H_    0.769105 0.976696 0.280915 0.255656
O14   O     O_3   0.628885 0.965673 0.656679 -0.575940
C47   C     C_3   0.645894 0.928642 0.751224 0.035545
H50   H     H_    0.724466 0.882800 0.763477 0.160741
H51   H     H_    0.559079 0.892992 0.760674 0.128501
C48   C     C_3   0.680335 0.002720 0.829857 -0.785810
H52   H     H_    0.603552 0.049951 0.820022 0.241757
H53   H     H_    0.695292 0.974348 0.904542 0.194343
H54   H     H_    0.767901 0.038945 0.824069 0.258600
C49   C     C_3   0.330019 0.374606 0.218191 -0.347447
C50   C     C_3   0.380153 0.283575 0.201132 -0.337462
C51   C     C_3   0.300068 0.208758 0.230027 -0.881700
H55   H     H_    0.299062 0.215887 0.309231 0.258369
H56   H     H_    0.202368 0.209229 0.183841 0.258348
H57   H     H_    0.339646 0.144170 0.218062 0.237007
H58   H     H_    0.379987 0.273570 0.121928 0.238899
H59   H     H_    0.478316 0.279982 0.245634 0.216557
H60   H     H_    0.321947 0.378998 0.294254 0.231494
H61   H     H_    0.232157 0.377213 0.172965 0.180565
C52   C     C_3   0.650665 0.636624 0.782573 -0.331976
C53   C     C_3   0.780872 0.633105 0.855510 -0.351343
C54   C     C_3   0.853210 0.722519 0.864806 -0.872759
H62   H     H_    0.860173 0.745359 0.791093 0.241205
H63   H     H_    0.805067 0.772885 0.899539 0.265238
H64   H     H_    0.949210 0.716391 0.912371 0.242875
H65   H     H_    0.774823 0.614518 0.930875 0.244111
H66   H     H_    0.835077 0.581421 0.828886 0.227618
H67   H     H_    0.668218 0.626178 0.709478 0.226895
H68   H     H_    0.612537 0.703567 0.785035 0.184708

loop_
_geom_bond_atom_site_label_1
_geom_bond_atom_site_label_2
_ccdc_geom_bond_type
C41   H31   S    
C43   H42   S    
C27   C29   A    
C22   C42   S    
C19   C20   S    
C49   H61   S    
C44   H40   S    
C44   H38   S    
C51   H55   S    
O9    C31   S    
C2    O2    A    
C15   O5    A    
C24   H4    S    
C24   C26   A    
C40   H34   S    
C46   H48   S    
C37   H27   S    
C51   H56   S    
C45   H45   S    
C53   H66   S    
C36   H23   S    
C50   H58   S    
C3    C29   A    
C10   C52   S    
C45   C46   S    
C33   H17   S    
C52   H68   S    
C38   H29   S    
C39   H36   S    
C42   C43   S    
C53   C54   S    
C34   H19   S    
C54   H64   S    
C9    C49   S    
C35   H21   S    
C15   O7    A    
Cu1   O8    S    
C5    C13   A    
C11   O9    S    
O12   C37   S    
C18   O11   S    
C7    H9    S    
C43   H41   S    
C48   H54   S    
C1    C25   S    
C36   H24   S    
C29   O13   S    
O10   C33   S    
Cu1   O5    S    
C26   C28   A    
C44   H39   S    
C42   H43   S    
C38   H28   S    
C21   C39   S    
C31   H12   S    
C9    N1    A    
Cu1   N2    S    
C10   N2    A    
C16   O8    A    
C6    H8    S    
C52   H67   S    
C46   H49   S    
C49   H60   S    
C5    C7    A    
C37   H26   S    
C1    O3    A    
C51   H57   S    
C6    C8    A    
C2    O4    A    
C53   H65   S    
C39   C40   S    
Cu2   O7    S    
C33   H16   S    
C6    C14   A    
C4    C22   A    
C39   H37   S    
Cu1   Cu2   S    
C28   H6    S    
C34   H20   S    
C43   C44   S    
C35   C36   S    
C17   O12   S    
C2    C26   S    
C9    C11   A    
Cu2   O6    S    
C49   C50   S    
C10   C12   A    
C20   H1    S    
C12   C14   A    
C7    N1    A    
Cu1   O4    S    
C21   C23   A    
C54   H62   S    
Cu2   O3    S    
C22   C24   A    
C3    C21   A    
C52   C53   S    
C38   H30   S    
C42   H44   S    
O14   C47   S    
C15   C17   S    
C5    H7    S    
C31   H11   S    
C33   C34   S    
C40   C41   S    
Cu2   O2    S    
C8    N2    A    
C8    H10   S    
C32   H15   S    
C19   H2    S    
C47   H51   S    
C47   H50   S    
C25   C27   A    
O13   C45   S    
C23   H3    S    
C48   H53   S    
C40   H35   S    
C48   H52   S    
C12   O10   S    
C11   C13   A    
C37   C38   S    
C1    O1    A    
C32   H13   S    
C45   H46   S    
C27   H5    S    
C28   C30   A    
C17   C19   D    
Cu2   N1    S    
C18   C20   D    
C23   C25   A    
C50   H59   S    
O11   C35   S    
C16   O6    A    
C47   C48   S    
C32   H14   S    
C36   H25   S    
C16   C18   S    
C34   H18   S    
Cu1   O1    S    
C41   H33   S    
C46   H47   S    
C54   H63   S    
C41   H32   S    
C35   H22   S    
C50   C51   S    
C13   C14   S    
C31   C32   S    
C4    C30   A    
C3    C4    S    
C30   O14   S    
