data_mof_unit_64057.cif
_audit_creation_date              2012-10-26T17:47:50-0400
_audit_creation_method            fapswitch 2.2
_symmetry_space_group_name_H-M    P1
_symmetry_Int_Tables_number       1
_space_group_crystal_system       triclinic
_cell_length_a                    18.827577
_cell_length_b                    18.98513
_cell_length_c                    18.893927
_cell_angle_alpha                 109.260561
_cell_angle_beta                  109.564256
_cell_angle_gamma                 109.12843
_cell_volume                      5228.13491262

loop_
_atom_site_label
_atom_site_type_symbol
_atom_type_description
_atom_site_fract_x
_atom_site_fract_y
_atom_site_fract_z
_atom_type_partial_charge
C1    C     C_R   0.384094 0.383046 0.502182 0.560659
C2    C     C_2   0.182847 0.497143 0.174080 -0.114274
C3    C     C_2   0.247594 0.426312 0.240584 -0.157608
C4    C     C_R   0.617534 0.498877 0.618805 0.546297
C5    C     C_2   0.308820 0.496997 0.316574 -0.114086
C6    C     C_2   0.741743 0.816277 0.492090 -0.157450
C7    C     C_2   0.818938 0.821964 0.508338 -0.113075
C8    C     C_2   0.680990 0.755518 0.504183 -0.158085
C9    C     C_2   0.677327 0.680114 0.490056 -0.116613
C10   C     C_R   0.994008 0.383037 0.875930 0.567345
C11   C     C_R   0.875405 0.501758 0.877096 0.574207
C12   C     C_3   0.806867 0.501259 0.808780 0.062908
C13   C     C_R   0.995236 0.617525 0.112670 0.550573
C14   C     C_R   0.113330 0.498469 0.111123 0.555875
C15   C     C_R   0.997126 0.115582 0.616502 0.553310
C16   C     C_R   0.615563 0.616968 0.497510 0.558461
C17   C     C_R   0.117386 0.114746 0.497113 0.580658
C18   C     C_R   0.999135 0.880834 0.383435 0.562202
C19   C     C_R   0.882762 0.884319 0.502029 0.553181
C20   C     C_2   0.923208 0.183259 0.673490 -0.158854
C21   C     C_2   0.994925 0.177708 0.684687 -0.115558
C22   C     C_2   0.922378 0.244117 0.745487 -0.148392
C23   C     C_3   0.843356 0.584404 0.803122 -0.287427
C24   C     C_2   0.993459 0.319796 0.806197 -0.114622
C25   C     C_2   0.007683 0.749467 0.323000 -0.157072
C26   C     C_2   0.992509 0.811127 0.314261 -0.107974
C27   C     C_2   0.992923 0.676522 0.248184 -0.157467
C28   C     C_R   0.379351 0.498332 0.381216 0.560148
C29   C     C_2   0.002396 0.685579 0.183895 -0.114555
C30   C     C_3   0.700429 0.422346 0.648669 -0.173245
C31   C     C_3   0.771016 0.423065 0.720421 0.236687
C32   C     C_3   0.771452 0.583580 0.732645 -0.262291
C33   C     C_3   0.659242 0.492065 0.755112 -0.240787
C34   C     C_3   0.731533 0.495344 0.827792 -0.216187
C35   C     C_3   0.685541 0.498951 0.687169 0.008265
C36   C     C_3   0.370316 0.178710 0.609231 0.020099
C37   C     C_3   0.429257 0.151011 0.582519 -0.280120
C38   C     C_3   0.522419 0.202282 0.657105 -0.452377
C39   C     C_2   0.261619 0.184736 0.510845 0.238201
C40   C     C_2   0.181774 0.174880 0.488894 -0.075970
C41   C     C_2   0.318431 0.243883 0.493517 -0.166552
C42   C     C_2   0.323310 0.320061 0.510614 -0.163043
C43   C     C_2   0.173911 0.426334 0.179430 -0.158559
Cu1   Cu    Cu3+1 0.500730 0.439000 0.439690 0.926026
Cu2   Cu    Cu3+1 0.499270 0.561000 0.560310 0.925455
Cu3   Cu    Cu3+1 0.933160 0.439090 0.994150 0.962658
Cu4   Cu    Cu3+1 0.055180 0.561040 0.994050 0.929518
Cu5   Cu    Cu3+1 0.061740 0.000000 0.561740 0.960931
Cu6   Cu    Cu3+1 0.938260 0.000000 0.438260 0.937226
F1    F     F_    0.736901 0.347120 0.721958 -0.658382
H1    H     H_    0.720829 0.426320 0.600559 0.095478
H2    H     H_    0.248528 0.366318 0.225075 0.146385
H3    H     H_    0.638832 0.360743 0.614249 0.163810
H4    H     H_    0.302748 0.554346 0.336180 0.107433
H5    H     H_    0.724863 0.859941 0.474623 0.144831
H6    H     H_    0.839722 0.785014 0.535000 0.105412
H7    H     H_    0.635934 0.771109 0.520407 0.145915
H8    H     H_    0.715575 0.660393 0.464600 0.106071
H9    H     H_    0.863101 0.139522 0.612369 0.148774
H10   H     H_    0.052255 0.214783 0.748295 0.107269
H11   H     H_    0.861626 0.228423 0.745842 0.169266
H12   H     H_    0.756254 0.551806 0.890649 0.095627
H13   H     H_    0.051468 0.339564 0.800589 0.105065
H14   H     H_    0.026078 0.749618 0.384042 0.143944
H15   H     H_    0.964816 0.805838 0.251017 0.106229
H16   H     H_    0.978944 0.616416 0.248489 0.144619
H17   H     H_    0.026268 0.748111 0.188280 0.107646
H18   H     H_    0.824491 0.427032 0.706057 0.117602
H19   H     H_    0.790834 0.590510 0.684700 0.116817
H20   H     H_    0.896358 0.589924 0.787651 0.129167
H21   H     H_    0.647487 0.545570 0.783745 0.137775
H22   H     H_    0.597851 0.431078 0.723685 0.107868
H23   H     H_    0.763117 0.639415 0.762398 0.142688
H24   H     H_    0.703765 0.437005 0.833069 0.178819
H25   H     H_    0.367661 0.162887 0.660228 0.151555
H26   H     H_    0.399103 0.249864 0.639850 0.114486
H27   H     H_    0.404755 0.081705 0.561361 0.176578
H28   H     H_    0.428605 0.160435 0.527441 0.162245
H29   H     H_    0.548990 0.271593 0.677677 0.169656
H30   H     H_    0.563245 0.180170 0.635973 0.191198
H31   H     H_    0.525245 0.193008 0.712843 0.147365
H32   H     H_    0.871103 0.641757 0.866449 0.131712
H33   H     H_    0.160141 0.208817 0.458020 0.059449
H34   H     H_    0.360204 0.227058 0.472096 0.145288
H35   H     H_    0.287575 0.340250 0.539797 0.099541
H36   H     H_    0.113306 0.366312 0.135182 0.145997
H37   H     H_    0.245927 0.554574 0.211556 0.108594
O1    O     O_R   0.411600 0.359460 0.449080 -0.505827
O2    O     O_R   0.946790 0.089000 0.535860 -0.505775
O3    O     O_R   0.141150 0.089030 0.552120 -0.458714
O4    O     O_R   0.410370 0.462480 0.550940 -0.506350
O5    O     O_R   0.036880 0.089030 0.447850 -0.520057
O6    O     O_R   0.053210 0.911000 0.464140 -0.496405
O7    O     O_R   0.948930 0.911000 0.359870 -0.510591
O8    O     O_R   0.963120 0.910970 0.552150 -0.513849
O9    O     O_R   0.858850 0.910970 0.447880 -0.505787
O10   O     O_R   0.590700 0.448490 0.539150 -0.521465
O11   O     O_R   0.589460 0.551510 0.641010 -0.514097
O12   O     O_R   0.046690 0.462500 0.906070 -0.510471
O13   O     O_R   0.589630 0.537520 0.449060 -0.505769
O14   O     O_R   0.588400 0.640540 0.550920 -0.503429
O15   O     O_R   0.410540 0.448490 0.358990 -0.500157
O16   O     O_R   0.409300 0.551510 0.460850 -0.508324
O17   O     O_R   0.943650 0.359510 0.906150 -0.492913
O18   O     O_3   0.284878 0.131920 0.538051 -0.538183
O19   O     O_R   0.852560 0.448570 0.904070 -0.467561
O20   O     O_R   0.955610 0.551560 0.903980 -0.534224
O21   O     O_R   0.941640 0.537630 0.082140 -0.510596
O22   O     O_R   0.044680 0.640620 0.082050 -0.509937
O23   O     O_R   0.032730 0.448570 0.084230 -0.507597
O24   O     O_R   0.135770 0.551560 0.084140 -0.507340
O25   O     O_R   0.051070 0.089000 0.640130 -0.513016

loop_
_geom_bond_atom_site_label_1
_geom_bond_atom_site_label_2
_ccdc_geom_bond_type
C30   H1    S    
C23   H32   S    
C4    O11   A    
C27   C29   D    
C41   C42   D    
C23   H20   S    
C6    H5    S    
C39   C41   S    
C12   C23   S    
C3    C43   S    
C38   H30   S    
C30   C35   S    
C13   C29   S    
C36   C37   S    
Cu5   O8    S    
C9    C16   S    
Cu2   O11   S    
C30   C31   S    
C38   H29   S    
C34   H12   S    
Cu4   O12   S    
C14   O23   A    
C9    H8    S    
C13   O22   A    
C36   H26   S    
C33   H22   S    
C29   H17   S    
C8    C9    D    
Cu3   O21   S    
Cu6   O7    S    
Cu2   O16   S    
C1    O1    A    
C4    C35   S    
C1    O4    A    
Cu5   O3    S    
C4    O10   A    
C26   H15   S    
C40   H33   S    
C31   H18   S    
C17   O5    A    
C7    H6    S    
C13   O21   A    
C2    C14   S    
C14   O24   A    
C30   H3    S    
Cu5   O6    S    
C32   C35   S    
C5    H4    S    
C21   H10   S    
C39   C40   D    
Cu1   O15   S    
C16   O13   A    
C6    C8    S    
C10   C24   S    
C25   C26   D    
Cu4   O22   S    
C41   H34   S    
Cu3   O17   S    
C25   H14   S    
C37   C38   S    
C36   H25   S    
C8    H7    S    
C15   O2    A    
C5    C28   S    
Cu1   O10   S    
C16   O14   A    
C2    C43   D    
C11   C12   S    
C18   C26   S    
C11   O19   A    
C33   C34   S    
C2    H37   S    
C42   H35   S    
C20   H9    S    
C6    C7    D    
Cu2   O14   S    
C34   H24   S    
Cu5   Cu6   S    
Cu5   O25   S    
C20   C22   S    
C24   H13   S    
C7    C19   S    
Cu3   O23   S    
C12   C31   S    
C11   O20   A    
C18   O7    A    
C22   C24   D    
C31   F1    S    
C12   C34   S    
C32   H23   S    
C19   O8    A    
Cu1   Cu2   S    
C39   O18   S    
Cu3   Cu4   S    
C36   O18   S    
C43   H36   S    
C15   O25   A    
C17   O3    A    
Cu6   O2    S    
C3    C5    D    
C3    H2    S    
C32   H19   S    
C25   C27   S    
C37   H28   S    
Cu4   O20   S    
C23   C32   S    
C10   O17   A    
C38   H31   S    
C27   H16   S    
C22   H11   S    
Cu1   O13   S    
C28   O16   A    
C37   H27   S    
Cu4   O24   S    
Cu3   O19   S    
C33   C35   S    
Cu6   O9    S    
C10   O12   A    
Cu2   O4    S    
C33   H21   S    
C28   O15   A    
C1    C42   S    
C15   C21   S    
C20   C21   D    
C18   O6    A    
Cu6   O5    S    
Cu1   O1    S    
C17   C40   S    
C19   O9    A    
