data_mof_unit_55794.cif
_audit_creation_date              2012-12-10T17:38:46-0500
_audit_creation_method            fapswitch 2.2
_symmetry_space_group_name_H-M    P1
_symmetry_Int_Tables_number       1
_space_group_crystal_system       triclinic
_cell_length_a                    12.438426
_cell_length_b                    13.246179
_cell_length_c                    23.430682
_cell_angle_alpha                 75.162037
_cell_angle_beta                  101.328583
_cell_angle_gamma                 117.001007
_cell_volume                      3310.54397099

loop_
_atom_site_label
_atom_site_type_symbol
_atom_type_description
_atom_site_fract_x
_atom_site_fract_y
_atom_site_fract_z
_atom_type_partial_charge
C1    C     C_R   0.855759 0.287928 0.501634 0.777334
C2    C     C_R   0.753876 0.369339 0.021692 -0.218385
C3    C     C_R   0.756135 0.373927 0.961719 0.658592
C4    C     C_R   0.867544 0.417819 0.937433 -0.199599
C5    C     C_R   0.976587 0.455769 0.974634 -0.097854
C6    C     C_R   0.088820 0.500226 0.951229 0.009326
C7    C     C_R   0.196835 0.536980 0.988663 -0.140398
C8    C     C_R   0.193806 0.530807 0.048633 -0.150394
C9    C     C_R   0.873901 0.425811 0.876978 0.661047
C10   C     C_R   0.090337 0.507834 0.890652 0.538673
C11   C     C_R   0.955521 0.561253 0.750064 0.422722
C12   C     C_R   0.000460 0.500024 0.608917 0.894791
C13   C     C_R   0.962002 0.570344 0.689600 0.248481
C14   C     C_R   0.000373 0.498054 0.672052 -0.363066
C15   C     C_R   0.035478 0.420603 0.715558 0.538876
C16   C     C_R   0.029898 0.412917 0.775249 -0.216470
C17   C     C_R   0.989050 0.481585 0.792863 0.075135
C18   C     C_R   0.994021 0.376649 0.261344 -0.102845
C19   C     C_R   0.001589 0.390128 0.319348 -0.334196
C20   C     C_R   0.985307 0.481478 0.330209 -0.155478
C21   C     C_R   0.952796 0.554287 0.282342 0.599577
C22   C     C_R   0.944641 0.540356 0.224441 -0.180463
C23   C     C_R   0.145255 0.713635 0.493331 0.759012
C24   C     C_R   0.967123 0.452823 0.213720 0.269733
C25   C     C_R   0.273721 0.038265 0.454304 -0.190856
C26   C     C_R   0.230378 0.836457 0.487223 -0.053701
C27   C     C_R   0.819749 0.082990 0.519451 -0.195910
C28   C     C_R   0.742452 0.966419 0.525491 -0.139518
C29   C     C_R   0.618124 0.930668 0.512695 -0.158926
C30   C     C_R   0.568187 0.011956 0.490176 0.070612
C31   C     C_R   0.649029 0.130586 0.476848 0.085452
C32   C     C_R   0.440938 0.980174 0.481233 0.071731
C33   C     C_R   0.397676 0.066362 0.457911 0.171152
C34   C     C_R   0.997157 0.496606 0.391433 0.837394
C35   C     C_R   0.478245 0.179025 0.437065 -0.239592
C36   C     C_R   0.601621 0.209391 0.443954 -0.151292
C37   C     C_R   0.354977 0.865620 0.495277 -0.219813
C38   C     C_R   0.190890 0.924063 0.470306 -0.219438
C39   C     C_R   0.774381 0.166439 0.497140 -0.117855
C40   C     C_R   0.373192 0.387575 0.614203 0.553851
C41   C     C_R   0.755250 0.640768 0.415750 0.515636
C42   C     C_R   0.655814 0.668416 0.397224 0.416116
C43   C     C_R   0.561841 0.623869 0.432441 -0.273264
C44   C     C_R   0.556523 0.541366 0.484187 -0.113750
C45   C     C_R   0.077812 0.484768 0.132157 0.546699
C46   C     C_R   0.657729 0.512201 0.502871 0.092985
C47   C     C_R   0.453646 0.487964 0.518331 -0.150504
C48   C     C_R   0.468144 0.435561 0.577719 -0.102198
C49   C     C_R   0.573634 0.422600 0.599133 -0.254393
C50   C     C_R   0.653929 0.435906 0.559801 0.510315
C51   C     C_R   0.335480 0.481479 0.495965 0.571413
C52   C     C_R   0.263020 0.389845 0.591065 -0.096521
C53   C     C_R   0.861593 0.406495 0.118895 0.590140
C54   C     C_R   0.861988 0.407744 0.058827 -0.119152
C55   C     C_R   0.973695 0.450172 0.035353 -0.012633
C56   C     C_R   0.082717 0.488238 0.072374 0.002045
Cu1   Cu    Cu3+1 0.098270 0.475410 0.513370 0.989428
Cu2   Cu    Cu3+1 0.901730 0.524590 0.486630 1.032046
H1    H     H_    0.666898 0.336122 0.038834 0.216992
H2    H     H_    0.020064 0.329228 0.355704 0.168141
H3    H     H_    0.923170 0.599043 0.187676 0.170768
H4    H     H_    0.096114 0.904183 0.467524 0.152901
H5    H     H_    0.445771 0.243899 0.414899 0.140138
H6    H     H_    0.240767 0.104477 0.438342 0.122007
H7    H     H_    0.382790 0.796846 0.511692 0.159021
H8    H     H_    0.915026 0.107551 0.533833 0.164548
H9    H     H_    0.564492 0.838724 0.520768 0.134378
H10   H     H_    0.778555 0.902872 0.542556 0.148076
H11   H     H_    0.658283 0.295203 0.422291 0.177963
H12   H     H_    0.190899 0.354635 0.619558 0.240503
H13   H     H_    0.582675 0.385503 0.645577 0.205615
H14   H     H_    0.494934 0.657965 0.418692 0.244899
H15   H     H_    0.284148 0.571146 0.971713 0.196245
H16   H     H_    0.278816 0.560507 0.076160 0.196625
H17   H     H_    0.055717 0.351789 0.808187 0.210958
H18   H     H_    0.010154 0.307911 0.253355 0.156867
N1    N     N_R   0.968518 0.445564 0.153931 -0.456555
N2    N     N_R   0.984076 0.471540 0.854892 -0.442414
N3    N     N_R   0.246280 0.438190 0.533650 -0.272788
N4    N     N_R   0.754320 0.561190 0.466710 -0.268362
O1    O     O_R   0.972510 0.318130 0.516820 -0.594208
O2    O     O_2   0.755509 0.367278 0.142077 -0.516093
O3    O     O_2   0.771361 0.388270 0.840456 -0.412235
O4    O     O_2   0.197288 0.552412 0.867395 -0.527181
O5    O     O_R   0.806530 0.359650 0.494230 -0.530607
O6    O     O_R   0.082990 0.479200 0.593420 -0.554891
O7    O     O_R   0.917010 0.520720 0.570830 -0.506257
O8    O     O_R   0.193470 0.640350 0.505770 -0.570323
O9    O     O_R   0.027490 0.681870 0.483180 -0.572241
O10   O     O_R   0.082990 0.479280 0.429170 -0.543866
O11   O     O_R   0.917010 0.520800 0.406580 -0.504627
O12   O     O_2   0.181441 0.522239 0.168047 -0.530013
F1    F     F_    0.931412 0.640225 0.291293 -0.639284
F2    F     F_    0.648832 0.336272 0.927814 -0.589524
F3    F     F_    0.385910 0.336775 0.671797 -0.623100
O13   O     O_3   0.307149 0.512849 0.436182 -0.561674
C57   C     C_3   0.289612 0.424028 0.407314 0.020871
H19   H     H_    0.198148 0.352529 0.414101 0.148215
H20   H     H_    0.357282 0.387193 0.423731 0.121524
C58   C     C_3   0.300763 0.472167 0.341268 -0.674073
H21   H     H_    0.396836 0.530010 0.333424 0.266105
H22   H     H_    0.268517 0.400361 0.316907 0.202335
H23   H     H_    0.246427 0.522545 0.323835 0.275745
O14   O     O_3   0.851004 0.687303 0.380814 -0.482121
C59   C     C_3   0.905385 0.809508 0.371390 0.145788
H24   H     H_    0.920069 0.840383 0.413374 0.070174
H25   H     H_    0.849405 0.846542 0.338453 0.210552
C60   C     C_3   0.026253 0.856837 0.345732 -0.669157
H26   H     H_    0.010874 0.847699 0.298681 0.282457
H27   H     H_    0.077937 0.950046 0.347363 0.172311
H28   H     H_    0.080569 0.809856 0.370969 0.257668
F4    F     F_    0.646988 0.736319 0.343966 -0.656581
O15   O     O_3   0.715899 0.366115 0.572901 -0.538452
C61   C     C_3   0.697751 0.288436 0.628456 0.025306
H29   H     H_    0.599704 0.230993 0.632402 0.161926
H30   H     H_    0.737763 0.337477 0.665267 0.165893
C62   C     C_3   0.760076 0.209913 0.634942 -0.717836
H31   H     H_    0.757806 0.160409 0.681114 0.221779
H32   H     H_    0.711443 0.147412 0.604799 0.233796
H33   H     H_    0.855954 0.260889 0.625168 0.261142
O16   O     O_3   0.907661 0.624197 0.766846 -0.514056
C63   C     C_3   0.002196 0.722072 0.787176 0.058619
H34   H     H_    0.021830 0.798009 0.750318 0.164861
H35   H     H_    0.088269 0.712771 0.804121 0.143193
C64   C     C_3   0.960830 0.746410 0.837053 -0.694878
H36   H     H_    0.942645 0.672968 0.875250 0.234501
H37   H     H_    0.032652 0.825603 0.851884 0.209797
H38   H     H_    0.876906 0.759353 0.821391 0.265775
O17   O     O_3   0.925325 0.646651 0.648165 -0.525750
C65   C     C_3   0.029009 0.747524 0.629431 0.132300
H39   H     H_    0.081825 0.729416 0.603461 0.117687
H40   H     H_    0.089636 0.784828 0.667682 0.113807
C66   C     C_3   0.989144 0.837390 0.589967 -0.782413
H41   H     H_    0.937619 0.858639 0.615085 0.250088
H42   H     H_    0.069787 0.917246 0.574998 0.198841
H43   H     H_    0.930828 0.803708 0.550489 0.237308
F5    F     F_    0.070691 0.348593 0.700421 -0.647300

loop_
_geom_bond_atom_site_label_1
_geom_bond_atom_site_label_2
_ccdc_geom_bond_type
C46   N4    A    
C55   C56   A    
C43   H14   S    
C16   H17   S    
C41   C42   A    
Cu1   N3    S    
C65   H40   S    
C35   C36   A    
Cu2   O7    S    
C8    C56   A    
C41   N4    A    
C61   H29   S    
C10   N2    A    
C7    C8    A    
C7    H15   S    
C53   C54   A    
Cu1   O6    S    
C59   H25   S    
C18   C24   A    
C28   C29   A    
C28   H10   S    
O17   C65   S    
C62   H32   S    
C5    C6    A    
C1    O1    A    
C15   C16   A    
C60   H26   S    
C18   C19   A    
C23   C26   S    
C45   O12   S    
C42   F4    S    
C34   O11   A    
C17   N2    S    
C29   H9    S    
C19   C20   A    
C45   C56   A    
C27   C39   A    
C16   C17   A    
C37   H7    S    
C64   H38   S    
C23   O9    A    
C52   N3    A    
Cu2   O11   S    
C44   C47   A    
Cu2   N4    S    
C51   O13   S    
C20   C34   S    
C21   C22   A    
C11   O16   S    
C58   H22   S    
O14   C59   S    
C57   H20   S    
C44   C46   A    
C57   H19   S    
C1    O5    A    
C59   C60   S    
Cu1   O10   S    
C2    C54   A    
C62   H33   S    
C2    H1    S    
C26   C38   A    
C47   C51   A    
C40   C52   A    
C58   H23   S    
C53   O2    S    
C25   H6    S    
C53   N1    A    
C43   C44   A    
C34   O10   A    
C29   C30   A    
C25   C38   A    
C66   H43   S    
C47   C48   A    
C31   C39   A    
C30   C31   A    
O13   C57   S    
C8    H16   S    
C60   H28   S    
C32   C37   A    
O16   C63   S    
C9    O3    S    
C48   C49   A    
C12   C14   S    
C23   O8    A    
C66   H41   S    
C22   C24   A    
C65   C66   S    
C42   C43   A    
C40   F3    S    
C63   H35   S    
C3    C4    A    
Cu2   O5    S    
C15   F5    S    
C57   C58   S    
C36   H11   S    
C66   H42   S    
O15   C61   S    
C40   C48   A    
C54   C55   A    
C11   C17   A    
C18   H18   S    
C12   O7    A    
C31   C36   A    
C5    C55   A    
C4    C5    A    
C6    C10   A    
C61   H30   S    
C41   O14   S    
C26   C37   A    
C6    C7    A    
C19   H2    S    
C59   H24   S    
C46   C50   A    
Cu1   O8    S    
C12   O6    A    
C50   O15   S    
C32   C33   A    
C63   C64   S    
C65   H39   S    
C63   H34   S    
C27   H8    S    
C62   H31   S    
C22   H3    S    
C30   C32   A    
C11   C13   A    
Cu1   Cu2   S    
C64   H36   S    
C21   F1    S    
C10   O4    S    
C58   H21   S    
C33   C35   A    
C60   H27   S    
C2    C3    A    
C3    F2    S    
Cu1   O1    S    
C9    N2    A    
Cu2   O9    S    
C51   N3    A    
C61   C62   S    
C52   H12   S    
C1    C39   S    
C24   N1    S    
C20   C21   A    
C49   C50   A    
C49   H13   S    
C27   C28   A    
C64   H37   S    
C13   O17   S    
C14   C15   A    
C35   H5    S    
C45   N1    A    
C4    C9    A    
C13   C14   A    
C25   C33   A    
C38   H4    S    
