data_mof_unit_49959.cif
_audit_creation_date              2012-12-11T14:33:01-0500
_audit_creation_method            fapswitch 2.2
_symmetry_space_group_name_H-M    P1
_symmetry_Int_Tables_number       1
_space_group_crystal_system       triclinic
_cell_length_a                    6.984955
_cell_length_b                    13.992309
_cell_length_c                    17.858325
_cell_angle_alpha                 112.539845
_cell_angle_beta                  95.679813
_cell_angle_gamma                 90.359608
_cell_volume                      1602.29807592

loop_
_atom_site_label
_atom_site_type_symbol
_atom_type_description
_atom_site_fract_x
_atom_site_fract_y
_atom_site_fract_z
_atom_type_partial_charge
O1    O     O_R   0.484560 0.544530 0.414330 -0.531986
O2    O     O_R   0.197040 0.638810 0.585080 -0.512459
O3    O     O_R   0.026800 0.455470 0.585670 -0.539839
C1    C     C_R   0.375518 0.680297 0.609698 0.667477
O4    O     O_R   0.155000 0.556150 0.414940 -0.545744
O5    O     O_R   0.984450 0.372220 0.414320 -0.533977
C2    C     C_R   0.318970 0.564514 0.386410 0.752440
O6    O     O_R   0.526900 0.627780 0.585680 -0.561917
O7    O     O_3   0.339170 0.439750 0.499990 -0.375015
V1    V     V_3+5 0.064350 0.511180 0.500000 1.374918
O8    O     O_R   0.654880 0.361190 0.414920 -0.541168
C3    C     C_R   0.817137 0.324547 0.386671 0.751969
O9    O     O_R   0.696930 0.443850 0.585060 -0.549344
C4    C     C_R   0.872205 0.434050 0.612679 0.682397
V2    V     V_3+5 0.564340 0.488820 0.500000 1.350942
O10   O     O_3   0.839390 0.560250 0.500010 -0.371897
C5    C     C_R   0.040822 0.872166 0.824854 -0.183514
C6    C     C_R   0.898628 0.400797 0.682193 -0.036811
C7    C     C_R   0.940576 0.842808 0.681510 0.285662
C8    C     C_R   0.990548 0.805675 0.743453 -0.292326
C9    C     C_R   0.041148 0.980222 0.843696 0.555290
C10   C     C_R   0.983103 0.021405 0.782131 -0.071906
C11   C     C_R   0.912033 0.949283 0.701952 -0.062387
C12   C     C_R   0.990135 0.130344 0.795620 -0.033589
C13   C     C_R   0.926092 0.161230 0.729879 -0.011461
C14   C     C_R   0.827671 0.089437 0.659312 -0.184314
C15   C     C_R   0.812681 0.985643 0.644897 0.323538
C16   C     C_R   0.060183 0.210251 0.870682 -0.152215
C17   C     C_R   0.057987 0.314419 0.881197 0.588464
C18   C     C_R   0.997963 0.342745 0.815703 -0.018828
C19   C     C_R   0.943543 0.265871 0.737917 0.046869
C20   C     C_R   0.987067 0.447000 0.826852 -0.105019
C21   C     C_R   0.921076 0.474657 0.761600 -0.199587
C22   C     C_R   0.909639 0.296399 0.670253 -0.175517
H1    H     H_    0.895759 0.240681 0.607938 0.084113
H2    H     H_    0.897517 0.555109 0.772450 0.105620
H3    H     H_    0.985518 0.723199 0.727477 0.127442
H4    H     H_    0.745946 0.115236 0.616841 0.146918
H5    H     H_    0.117861 0.196283 0.923190 0.247767
H6    H     H_    0.025432 0.507057 0.886478 0.192511
H7    H     H_    0.113097 0.223744 0.308443 0.154654
H8    H     H_    0.835051 0.035198 0.193534 0.152205
C23   C     C_2   0.134915 0.037304 0.183777 -0.316181
C24   C     C_2   0.972788 0.078095 0.216834 -0.115165
H9    H     H_    0.675962 0.178279 0.294788 0.128905
C25   C     C_2   0.813410 0.221344 0.318499 -0.352808
C26   C     C_2   0.975403 0.180784 0.285201 -0.118227
H10   H     H_    0.272368 0.080367 0.207511 0.125362
C27   C     C_R   0.417841 0.787064 0.678491 -0.062277
C28   C     C_R   0.532440 0.469471 0.831534 -0.121484
C29   C     C_R   0.566184 0.887271 0.816388 -0.104310
C30   C     C_R   0.532922 0.793834 0.749254 -0.186222
C31   C     C_R   0.373438 0.883049 0.671786 -0.167040
C32   C     C_R   0.431333 0.982314 0.736292 0.078651
C33   C     C_R   0.518350 0.981138 0.810468 -0.001926
C34   C     C_R   0.415751 0.081852 0.729155 0.002627
C35   C     C_R   0.482753 0.177751 0.796964 -0.088155
C36   C     C_R   0.551917 0.169617 0.871524 0.597328
C37   C     C_R   0.569451 0.073509 0.877196 -0.186125
C38   C     C_R   0.342254 0.087775 0.655097 -0.119638
C39   C     C_R   0.343838 0.180587 0.644437 -0.204314
C40   C     C_R   0.411561 0.273296 0.707734 0.082204
C41   C     C_R   0.479204 0.276185 0.786189 0.098163
C42   C     C_R   0.406242 0.363700 0.691957 -0.186742
C43   C     C_R   0.461948 0.460328 0.752737 0.293144
C44   C     C_R   0.539358 0.377409 0.848145 -0.203528
H11   H     H_    0.631695 0.071349 0.934584 0.181237
H12   H     H_    0.589495 0.389020 0.909834 0.224125
H13   H     H_    0.288842 0.179784 0.585228 0.110639
H14   H     H_    0.640375 0.886879 0.872281 0.151530
H15   H     H_    0.594831 0.725635 0.754056 0.148723
H16   H     H_    0.310791 0.878324 0.613608 0.099771
H17   H     H_    0.284983 0.020912 0.602893 0.115817
H18   H     H_    0.352768 0.359809 0.631693 0.138637
H19   H     H_    0.336248 0.664552 0.193431 0.135789
C45   C     C_2   0.322553 0.601828 0.318791 -0.393086
C46   C     C_2   0.483660 0.605204 0.281557 0.314619
H20   H     H_    0.775209 0.636980 0.203895 0.163649
C47   C     C_2   0.635608 0.655599 0.181880 -0.303426
C48   C     C_2   0.475007 0.644361 0.215055 -0.139767
H21   H     H_    0.187839 0.626954 0.298054 0.109400
O11   O     O_R   0.421600 0.630430 0.917010 -0.536695
O12   O     O_R   0.793840 0.702190 0.087630 -0.543363
O13   O     O_R   0.964010 0.886170 0.088190 -0.540608
C49   C     C_R   0.631208 0.693456 0.115529 0.743841
O14   O     O_R   0.751460 0.619510 0.917500 -0.550582
O15   O     O_R   0.921330 0.802900 0.916840 -0.548515
C50   C     C_R   0.573913 0.577262 0.896809 0.756617
O16   O     O_R   0.464290 0.713700 0.088350 -0.538036
O17   O     O_3   0.609200 0.818520 0.002630 -0.376387
V3    V     V_3+5 0.884140 0.747190 0.002530 1.426573
O18   O     O_R   0.251150 0.814630 0.917340 -0.535620
C51   C     C_R   0.074342 0.828019 0.890628 0.763126
O19   O     O_R   0.293530 0.897310 0.087470 -0.541375
C52   C     C_R   0.131340 0.933837 0.115877 0.781114
V4    V     V_3+5 0.384070 0.769710 0.002370 1.444707
O20   O     O_3   0.109180 0.698190 0.002460 -0.375445
N1    N     N_2   0.682045 0.920845 0.576591 -0.517758
H22   H     H_    0.624024 0.852349 0.574377 0.259229
C53   C     C_3   0.653898 0.939965 0.501987 -0.618070
H23   H     H_    0.602280 0.867179 0.449959 0.192220
H24   H     H_    0.791234 0.967445 0.488701 0.199334
H25   H     H_    0.543264 0.998047 0.507241 0.204134
N2    N     N_2   0.445879 0.549678 0.733965 -0.556298
H26   H     H_    0.468396 0.536926 0.675162 0.286748
C54   C     C_3   0.274170 0.605402 0.756855 -0.550347
H27   H     H_    0.307100 0.688543 0.783999 0.204081
H28   H     H_    0.210304 0.588248 0.803845 0.209756
H29   H     H_    0.167622 0.588026 0.703671 0.201726
F1    F     F_    0.609758 0.252662 0.940396 -0.681460
N3    N     N_2   0.665789 0.571811 0.303658 -0.526738
H30   H     H_    0.726262 0.606807 0.363260 0.270180
C55   C     C_3   0.699121 0.463319 0.261120 -0.414657
H31   H     H_    0.596410 0.414231 0.276160 0.186021
H32   H     H_    0.848504 0.447540 0.279192 0.177579
H33   H     H_    0.681432 0.442772 0.194171 0.218314
F2    F     F_    0.118806 0.387868 0.955834 -0.671440
N4    N     N_2   0.916319 0.769085 0.599445 -0.477544
H34   H     H_    0.789499 0.726740 0.585749 0.275299
C56   C     C_3   0.985869 0.788171 0.531628 -0.431803
H35   H     H_    0.872198 0.764210 0.479118 0.169539
H36   H     H_    0.110633 0.741835 0.509842 0.184135
H37   H     H_    0.030883 0.869962 0.547376 0.166287
F3    F     F_    0.085915 0.041861 0.923260 -0.718094

loop_
_geom_bond_atom_site_label_1
_geom_bond_atom_site_label_2
_ccdc_geom_bond_type
C13   C19   A    
C44   H12   S    
C12   C13   A    
C27   C31   A    
C15   N1    S    
C33   C37   A    
C4    C6    S    
O2    C1    A    
C7    C8    A    
C1    O6    A    
C21   H2    S    
N2    C54   S    
C35   C36   A    
C31   C32   A    
C14   C15   A    
C17   C18   A    
C16   C17   A    
O15   V3    S    
O14   V3    S    
O5    C3    A    
C18   C19   A    
O14   C50   A    
C54   H27   S    
V2    O10   S    
C38   H17   S    
O18   V4    S    
C5    C8    A    
C34   C35   A    
C22   H1    S    
C46   N3    S    
N4    H34   S    
O18   C51   A    
C40   C42   A    
C37   H11   S    
C32   C33   A    
O8    V2    S    
N3    H30   S    
C7    N4    S    
C23   C52   S    
O1    V2    S    
C29   H14   S    
C11   C15   A    
C23   H10   S    
C24   C26   S    
C28   C50   S    
C55   H33   S    
C41   C44   A    
O1    C2    A    
O9    C4    A    
O19   C52   A    
H8    C24   S    
N2    H26   S    
C28   C43   A    
C56   H36   S    
C35   C41   A    
C32   C34   A    
O11   V4    S    
C29   C30   A    
C45   C46   D    
C3    C25   S    
O4    C2    A    
C49   O16   A    
H20   C47   S    
C14   H4    S    
C16   H5    S    
C13   C14   A    
H9    C25   S    
C17   F2    S    
C53   H25   S    
C5    C9    A    
C34   C38   A    
C38   C39   A    
O13   C52   A    
C7    C11   A    
C23   C24   D    
C40   C41   A    
C6    C22   A    
C27   C30   A    
V4    O20   S    
C53   H24   S    
H7    C26   S    
C19   C22   A    
N3    C55   S    
V3    O20   S    
O19   V4    S    
C28   C44   A    
O3    C4    A    
O12   C49   A    
O6    V2    S    
N1    C53   S    
O9    V2    S    
C10   C12   A    
C5    C51   S    
O2    V1    S    
C47   C49   S    
C56   H35   S    
C55   H31   S    
O7    V1    S    
C46   C48   S    
C39   H13   S    
C25   C26   D    
C36   F1    S    
C12   C16   A    
C45   H21   S    
O5    V1    S    
O8    C3    A    
C56   H37   S    
O17   V4    S    
C2    C45   S    
O12   V3    S    
C1    C27   S    
C42   C43   A    
C9    F3    S    
C36   C37   A    
O4    V1    S    
O3    V1    S    
V1    O10   S    
C20   C21   A    
C18   C20   A    
C8    H3    S    
O17   V3    S    
C54   H28   S    
O16   V4    S    
O13   V3    S    
O11   C50   A    
O15   C51   A    
C53   H23   S    
C29   C33   A    
C20   H6    S    
O7    V2    S    
C39   C40   A    
C6    C21   A    
N4    C56   S    
C47   C48   D    
H19   C48   S    
N1    H22   S    
C30   H15   S    
C42   H18   S    
C10   C11   A    
C43   N2    S    
C9    C10   A    
C31   H16   S    
C55   H32   S    
C54   H29   S    
