data_mof_unit_11999.cif
_audit_creation_date              2013-03-05T16:07:31-0500
_audit_creation_method            fapswitch 2.2
_symmetry_space_group_name_H-M    P1
_symmetry_Int_Tables_number       1
_space_group_crystal_system       triclinic
_cell_length_a                    10.897706
_cell_length_b                    10.799886
_cell_length_c                    9.626752
_cell_angle_alpha                 88.22288
_cell_angle_beta                  89.934821
_cell_angle_gamma                 91.069085
_cell_volume                      1132.26702629

loop_
_atom_site_label
_atom_site_type_symbol
_atom_site_description
_atom_site_fract_x
_atom_site_fract_y
_atom_site_fract_z
_atom_type_partial_charge
O1    O     O_R   0.499990 0.319660 0.618740 -0.551305
O2    O     O_R   0.500010 0.680340 0.381260 -0.570754
O3    O     O_R   0.499990 0.319630 0.381170 -0.590846
O4    O     O_R   0.500010 0.680370 0.618830 -0.588657
C1    C     C_R   0.498879 0.262417 0.501354 0.852029
C2    C     C_R   0.501523 0.737621 0.498738 0.775952
O5    O     O_R   0.319650 0.500020 0.618780 -0.551432
O6    O     O_R   0.680350 0.499980 0.381220 -0.560620
O7    O     O_R   0.319640 0.500000 0.381210 -0.596924
O8    O     O_R   0.680360 0.500000 0.618790 -0.586639
C3    C     C_R   0.262596 0.498829 0.498858 0.862949
C4    C     C_R   0.737464 0.501991 0.500957 0.775638
Cu1   Cu    Cu3+1 0.500000 0.500020 0.640660 0.996427
Cu2   Cu    Cu3+1 0.500000 0.499980 0.359340 0.988677
C5    C     C_R   0.218284 0.824238 0.171732 -0.124602
C6    C     C_R   0.787972 0.174207 0.826188 -0.147202
H1    H     H_    0.243423 0.921346 0.177435 0.159192
H2    H     H_    0.764657 0.076679 0.820159 0.164297
C7    C     C_R   0.171110 0.760557 0.289002 -0.131794
C8    C     C_R   0.836742 0.238319 0.710068 -0.205514
H3    H     H_    0.160661 0.809083 0.384985 0.148199
H4    H     H_    0.850418 0.189652 0.614730 0.162597
C9    C     C_R   0.130772 0.636841 0.280208 0.102203
C10   C     C_R   0.871991 0.363515 0.718358 0.025952
C11   C     C_R   0.143713 0.574734 0.153289 0.067600
C12   C     C_R   0.855340 0.425686 0.844561 0.044885
C13   C     C_R   0.195780 0.639278 0.037949 -0.133750
C14   C     C_R   0.802649 0.360401 0.959023 -0.126320
H5    H     H_    0.206582 0.594163 0.939856 0.176733
H6    H     H_    0.788639 0.405713 0.056450 0.182456
C15   C     C_R   0.231319 0.763555 0.046853 0.195181
C16   C     C_R   0.770187 0.235330 0.950025 0.201061
C17   C     C_R   0.937439 0.586878 0.412208 -0.076011
C18   C     C_R   0.062161 0.414609 0.584511 -0.059120
C19   C     C_R   0.871991 0.506460 0.504910 -0.169434
C20   C     C_R   0.128213 0.495708 0.493864 -0.138902
C21   C     C_R   0.935188 0.426741 0.598113 -0.077614
C22   C     C_R   0.065535 0.575752 0.400342 -0.084072
C23   C     C_R   0.458982 0.066764 0.383653 -0.110180
C24   C     C_R   0.541717 0.933340 0.616916 -0.140334
H7    H     H_    0.426199 0.117185 0.292425 0.164270
H8    H     H_    0.574439 0.882830 0.708109 0.165237
C25   C     C_R   0.462796 0.938980 0.381320 -0.148183
C26   C     C_R   0.537827 0.061224 0.619377 -0.140374
H9    H     H_    0.433470 0.892845 0.289025 0.170213
H10   H     H_    0.567110 0.107461 0.711828 0.172455
C27   C     C_R   0.503272 0.871742 0.497978 -0.018143
C28   C     C_R   0.497418 0.128371 0.502487 0.001828
C29   C     C_R   0.446579 0.405806 0.080147 -0.063242
C30   C     C_R   0.553580 0.594034 0.919759 -0.055425
H11   H     H_    0.402995 0.330887 0.140086 0.170967
H12   H     H_    0.596840 0.669058 0.859683 0.167905
C31   C     C_R   0.446384 0.404675 0.933565 0.266903
C32   C     C_R   0.552627 0.595840 0.066230 0.273166
N1    N     N_R   0.500030 0.500030 0.852070 -0.211209
N2    N     N_R   0.499970 0.499970 0.147930 -0.211938
I1    I     I_    0.300802 0.860152 0.869721 -0.340346
I2    I     I_    0.697662 0.138616 0.125488 -0.344497
I3    I     I_    0.358348 0.242781 0.864861 -0.256161
I4    I     I_    0.633245 0.762099 0.133067 -0.256117
C33   C     C_2   0.101881 0.443866 0.139731 0.380363
H13   H     H_    0.060628 0.392700 0.227067 0.100708
O9    O     O_2   0.112904 0.391133 0.030179 -0.569538
C34   C     C_2   0.893901 0.557474 0.858271 0.377847
H14   H     H_    0.937312 0.608679 0.772244 0.078831
O10   O     O_2   0.877787 0.610931 0.966545 -0.505826
C35   C     C_2   0.872351 0.691934 0.343188 0.461182
H15   H     H_    0.788667 0.725038 0.389243 0.056000
O11   O     O_2   0.910504 0.743723 0.236803 -0.466314
C36   C     C_2   0.121674 0.305770 0.650706 0.420741
H16   H     H_    0.094463 0.272608 0.753895 0.141477
O12   O     O_2   0.196414 0.247265 0.586095 -0.542781

loop_
_geom_bond_atom_site_label_1
_geom_bond_atom_site_label_2
_geom_bond_distance
_ccdc_geom_bond_type
C7    H3    1.083244 S    
C24   C27   1.402506 A    
C7    C9    1.403848 A    
O7    Cu2   1.976522 S    
C32   N2    1.395065 A    
C5    C15   1.395297 A    
C36   H16   1.084569 S    
C8    C10   1.403382 A    
C13   H5    1.083253 S    
C18   C21   1.398715 A    
O7    C3    1.290947 A    
C18   C36   1.480311 S    
Cu2   N2    2.035195 S    
C30   N1    1.347463 A    
C16   I2    2.103703 S    
O6    C4    1.311191 A    
C23   C28   1.401694 A    
C34   H14   1.084618 S    
C15   I1    2.103969 S    
C20   C22   1.414062 A    
C10   C21   1.487322 S    
C31   I3    2.103688 S    
C23   H7    1.083401 S    
C29   N2    1.348513 A    
C11   C33   1.486608 S    
Cu1   Cu2   2.708212 S    
C26   H10   1.079614 S    
C4    C19   1.466511 S    
O5    C3    1.312164 A    
C25   H9    1.077962 S    
C17   C19   1.409535 A    
C30   C32   1.410806 A    
O3    Cu2   1.952570 S    
O8    C4    1.292610 A    
C33   O9    1.220871 D    
O2    C2    1.305764 A    
O1    C1    1.304765 A    
C14   C16   1.395237 A    
C14   H6    1.083223 S    
C6    C8    1.395858 A    
C19   C21   1.412874 A    
C10   C12   1.419316 A    
C25   C27   1.394845 A    
C18   C20   1.405137 A    
C31   N1    1.394338 A    
C23   C25   1.382330 A    
C33   H13   1.084161 S    
O2    Cu2   1.965757 S    
C1    C28   1.447176 S    
C29   C31   1.411541 A    
O1    Cu1   1.965758 S    
C2    C27   1.448057 S    
C11   C13   1.405884 A    
C13   C15   1.395207 A    
C35   H15   1.084969 S    
C9    C22   1.487117 S    
O3    C1    1.294565 A    
C24   C26   1.383509 A    
C9    C11   1.420073 A    
C17   C35   1.488699 S    
O4    C2    1.293977 A    
C35   O11   1.220405 D    
C30   H12   1.081346 S    
C5    H1    1.082058 S    
C12   C34   1.486357 S    
C6    C16   1.395568 A    
C3    C20   1.465101 S    
C17   C22   1.408161 A    
C32   I4    2.103333 S    
O5    Cu1   1.976894 S    
O6    Cu2   1.976893 S    
C29   H11   1.081330 S    
C5    C7    1.396099 A    
C12   C14   1.405801 A    
C36   O12   1.221450 D    
C6    H2    1.082208 S    
C26   C28   1.395875 A    
O4    Cu1   1.952570 S    
C8    H4    1.083214 S    
C24   H8    1.083373 S    
Cu1   N1    2.035195 S    
O8    Cu1   1.976521 S    
C34   O10   1.221178 D    
