data_mof_unit_53568.cif
_audit_creation_date              2012-12-11T15:33:36-0500
_audit_creation_method            fapswitch 2.2
_symmetry_space_group_name_H-M    P1
_symmetry_Int_Tables_number       1
_space_group_crystal_system       triclinic
_cell_length_a                    27.072868
_cell_length_b                    7.203104
_cell_length_c                    22.767565
_cell_angle_alpha                 90.007213
_cell_angle_beta                  101.219134
_cell_angle_gamma                 90.012404
_cell_volume                      4355.02779392

loop_
_atom_site_label
_atom_site_type_symbol
_atom_type_description
_atom_site_fract_x
_atom_site_fract_y
_atom_site_fract_z
_atom_type_partial_charge
O1    O     O_R   0.207310 0.594030 0.676830 -0.529930
O2    O     O_R   0.792690 0.405970 0.323170 -0.529930
O3    O     O_R   0.292690 0.094030 0.823170 -0.529909
O4    O     O_R   0.707310 0.905970 0.176830 -0.529908
O5    O     O_R   0.197320 0.262370 0.795700 -0.540791
O6    O     O_R   0.802680 0.737630 0.204300 -0.540791
O7    O     O_R   0.302680 0.762370 0.704300 -0.540825
O8    O     O_R   0.697320 0.237630 0.295700 -0.540825
C1    C     C_R   0.184718 0.432488 0.812015 0.681989
C2    C     C_R   0.815282 0.567511 0.187985 0.681989
C3    C     C_R   0.315281 0.932498 0.687985 0.682104
C4    C     C_R   0.684719 0.067502 0.312014 0.682105
O9    O     O_R   0.201410 0.264250 0.675590 -0.531914
O10   O     O_R   0.798590 0.735750 0.324410 -0.531914
O11   O     O_R   0.298590 0.764250 0.824410 -0.532032
O12   O     O_R   0.701410 0.235750 0.175590 -0.532032
O13   O     O_R   0.296810 0.094940 0.702210 -0.538463
O14   O     O_R   0.703190 0.905060 0.297790 -0.538464
O15   O     O_R   0.203190 0.594940 0.797790 -0.538526
O16   O     O_R   0.796810 0.405060 0.202210 -0.538526
C5    C     C_R   0.189881 0.432550 0.653351 0.678559
C6    C     C_R   0.810118 0.567450 0.346649 0.678559
C7    C     C_R   0.310118 0.932609 0.846642 0.678479
C8    C     C_R   0.689882 0.067390 0.153358 0.678478
O17   O     O_3   0.281300 0.427390 0.758870 -0.373339
O18   O     O_3   0.718700 0.572610 0.241130 -0.373339
O19   O     O_3   0.218700 0.927390 0.741130 -0.373338
O20   O     O_3   0.781300 0.072610 0.258870 -0.373338
V1    V     V_3+5 0.244190 0.152150 0.748350 1.421120
V2    V     V_3+5 0.755810 0.847850 0.251650 1.421121
V3    V     V_3+5 0.255810 0.652150 0.751650 1.420753
V4    V     V_3+5 0.744190 0.347850 0.248350 1.420753
C9    C     C_R   0.655956 0.061343 0.094031 -0.133930
C10   C     C_R   0.344043 0.938657 0.905968 -0.133930
C11   C     C_R   0.844054 0.561744 0.405978 -0.134104
C12   C     C_R   0.155946 0.438256 0.594021 -0.134104
C13   C     C_R   0.640243 0.104981 0.986471 -0.145812
C14   C     C_R   0.359757 0.895019 0.013529 -0.145812
C15   C     C_R   0.859996 0.609885 0.513346 -0.145939
C16   C     C_R   0.140004 0.390115 0.486654 -0.145939
C17   C     C_R   0.674038 0.101413 0.041154 0.358442
C18   C     C_R   0.325962 0.898587 0.958846 0.358442
C19   C     C_R   0.826127 0.604801 0.458737 0.358594
C20   C     C_R   0.173873 0.395199 0.541262 0.358594
C21   C     C_R   0.604340 0.024570 0.090488 -0.255736
C22   C     C_R   0.395660 0.975430 0.909512 -0.255735
C23   C     C_R   0.895592 0.523364 0.409590 -0.255817
C24   C     C_R   0.104408 0.476636 0.590410 -0.255817
C25   C     C_R   0.569479 0.028903 0.034844 0.085846
C26   C     C_R   0.430521 0.971097 0.965156 0.085846
C27   C     C_R   0.930531 0.529215 0.465162 0.085805
C28   C     C_R   0.069468 0.470785 0.534838 0.085805
C29   C     C_R   0.588756 0.070205 0.982778 0.053655
C30   C     C_R   0.411244 0.929795 0.017222 0.053655
C31   C     C_R   0.911413 0.573698 0.517088 0.053698
C32   C     C_R   0.088587 0.426302 0.482912 0.053698
C33   C     C_R   0.516313 0.995561 0.028957 0.072729
C34   C     C_R   0.483686 0.004439 0.971043 0.072729
C35   C     C_R   0.983635 0.494554 0.471096 0.072750
C36   C     C_R   0.016365 0.505446 0.528904 0.072750
C37   C     C_R   0.505351 0.046100 0.921030 -0.179265
C38   C     C_R   0.494649 0.953900 0.078970 -0.179265
C39   C     C_R   0.994859 0.550375 0.578771 -0.179318
C40   C     C_R   0.005141 0.449625 0.421229 -0.179318
C41   C     C_R   0.556647 0.077831 0.926945 -0.173515
C42   C     C_R   0.443353 0.922168 0.073055 -0.173515
C43   C     C_R   0.943618 0.583252 0.572822 -0.173536
C44   C     C_R   0.056382 0.416748 0.427178 -0.173536
H1    H     H_    0.571376 0.109527 0.887073 0.130139
H2    H     H_    0.428624 0.890473 0.112927 0.130139
H3    H     H_    0.929011 0.617471 0.612582 0.130139
H4    H     H_    0.070989 0.382529 0.387418 0.130139
H5    H     H_    0.407320 0.003722 0.867790 0.113283
H6    H     H_    0.592679 0.996278 0.132210 0.113283
H7    H     H_    0.092847 0.507015 0.632050 0.113488
H8    H     H_    0.907153 0.492985 0.367950 0.113488
H9    H     H_    0.654549 0.136262 0.946272 0.144183
H10   H     H_    0.345451 0.863738 0.053728 0.144183
H11   H     H_    0.845807 0.643580 0.553442 0.144159
H12   H     H_    0.154192 0.356420 0.446558 0.144159
H13   H     H_    0.483649 0.055764 0.876212 0.122996
H14   H     H_    0.516351 0.944236 0.123788 0.122996
H15   H     H_    0.016652 0.561854 0.623495 0.123002
H16   H     H_    0.983348 0.438146 0.376505 0.123002
C45   C     C_R   0.630367 0.881926 0.368762 -0.141797
C46   C     C_R   0.369632 0.118074 0.631237 -0.141797
C47   C     C_R   0.869649 0.381943 0.131267 -0.142020
C48   C     C_R   0.130351 0.618057 0.868733 -0.142020
H17   H     H_    0.646076 0.754424 0.355109 0.123170
H18   H     H_    0.353924 0.245576 0.644891 0.123170
H19   H     H_    0.853953 0.254433 0.144944 0.123237
H20   H     H_    0.146047 0.745567 0.855056 0.123237
C49   C     C_R   0.594471 0.868967 0.405295 -0.128430
C50   C     C_R   0.405529 0.131033 0.594705 -0.128430
C51   C     C_R   0.905545 0.368982 0.094735 -0.128369
C52   C     C_R   0.094455 0.631018 0.905265 -0.128369
H21   H     H_    0.583820 0.732401 0.418363 0.135290
H22   H     H_    0.416180 0.267599 0.581637 0.135290
H23   H     H_    0.916207 0.232412 0.081691 0.135324
H24   H     H_    0.083793 0.767588 0.918309 0.135324
C53   C     C_R   0.572798 0.029378 0.424764 0.016435
C54   C     C_R   0.427202 0.970622 0.575236 0.016435
C55   C     C_R   0.927203 0.529398 0.075236 0.016386
C56   C     C_R   0.072797 0.470602 0.924764 0.016386
C57   C     C_R   0.588037 0.203537 0.406404 -0.126064
C58   C     C_R   0.411963 0.796463 0.593595 -0.126064
C59   C     C_R   0.911950 0.703564 0.093566 -0.125962
C60   C     C_R   0.088050 0.296436 0.906433 -0.125962
H25   H     H_    0.572239 0.330311 0.420454 0.140504
H26   H     H_    0.427761 0.669689 0.579546 0.140504
H27   H     H_    0.927736 0.830342 0.079493 0.140516
H28   H     H_    0.072264 0.169658 0.920507 0.140516
C61   C     C_R   0.624033 0.216646 0.369729 -0.151703
C62   C     C_R   0.375967 0.783354 0.630271 -0.151703
C63   C     C_R   0.875954 0.716674 0.130243 -0.151384
C64   C     C_R   0.124046 0.283326 0.869757 -0.151384
H29   H     H_    0.634868 0.353091 0.356775 0.121368
H30   H     H_    0.365132 0.646909 0.643225 0.121368
H31   H     H_    0.865106 0.853122 0.143172 0.121391
H32   H     H_    0.134894 0.146878 0.856827 0.121391
C65   C     C_R   0.645805 0.055875 0.350381 -0.048221
C66   C     C_R   0.354195 0.944125 0.649619 -0.048221
C67   C     C_R   0.854197 0.555897 0.149620 -0.048326
C68   C     C_R   0.145803 0.444103 0.850380 -0.048326
N1    N     N_R   0.513679 0.168419 0.483281 -0.276042
N2    N     N_R   0.486321 0.831580 0.516719 -0.276042
N3    N     N_R   0.986311 0.668430 0.016693 -0.276008
N4    N     N_R   0.013689 0.331570 0.983307 -0.276008
N5    N     N_R   0.479742 0.154429 0.518420 -0.281076
N6    N     N_R   0.520258 0.845571 0.481580 -0.281076
N7    N     N_R   0.020247 0.654428 0.981554 -0.281063
N8    N     N_R   0.979753 0.345572 0.018446 -0.281063
C69   C     C_R   0.465260 0.985735 0.535981 0.517790
C70   C     C_R   0.534740 0.014265 0.464019 0.517790
C71   C     C_R   0.034739 0.485724 0.964019 0.517815
C72   C     C_R   0.965261 0.514276 0.035980 0.517815
O21   O     O_3   0.275964 0.861676 0.959668 -0.638619
H33   H     H_    0.255126 0.878251 0.919239 0.277275
O22   O     O_3   0.724036 0.138324 0.040332 -0.638619
H34   H     H_    0.744874 0.121749 0.080761 0.277275
O23   O     O_3   0.223786 0.356624 0.540506 -0.638624
H35   H     H_    0.244749 0.375668 0.580739 0.277330
O24   O     O_3   0.776214 0.643376 0.459494 -0.638624
H36   H     H_    0.755251 0.624332 0.419261 0.277330

loop_
_geom_bond_atom_site_label_1
_geom_bond_atom_site_label_2
_ccdc_geom_bond_type
N1    C70   A    
O17   V3    S    
C48   C52   A    
O1    C5    A    
C56   C71   S    
C47   H19   S    
O19   V1    S    
C9    C21   A    
O3    C7    A    
C10   C18   A    
C48   C68   A    
O15   V3    S    
C25   C33   A    
C33   C38   A    
C5    C12   S    
C53   C70   S    
O7    C3    A    
C6    C11   S    
C35   C40   A    
C26   C30   A    
C58   C62   A    
C36   C39   A    
C40   C44   A    
C57   C61   A    
C23   H8    S    
C14   C18   A    
N7    C71   A    
C58   H26   S    
O4    C8    A    
C51   H23   S    
C44   H4    S    
C50   H22   S    
O24   H36   S    
O1    V3    S    
C1    C68   S    
O13   V1    S    
O2    V4    S    
O3    V1    S    
C40   H16   S    
C46   C50   A    
C45   C49   A    
C1    O15   A    
C15   C31   A    
C4    C65   S    
C48   H20   S    
N2    C69   A    
C2    O16   A    
C20   O23   S    
C16   C32   A    
C47   C51   A    
O2    C6    A    
C16   H12   S    
C45   C65   A    
C10   C22   A    
C11   C19   A    
C16   C20   A    
C43   H3    S    
N8    C72   A    
C13   C29   A    
C34   C37   A    
O11   C7    A    
C38   H14   S    
C11   C23   A    
C35   C36   A    
O12   C8    A    
C18   O21   S    
C24   H7    S    
N6    C70   A    
O10   V2    S    
N4    N8    A    
C51   C55   A    
O5    V1    S    
C53   C57   A    
C39   C43   A    
C63   C67   A    
C38   C42   A    
C26   C34   A    
O7    V3    S    
N3    C72   A    
C2    C67   S    
C46   H18   S    
N4    C71   A    
C49   C53   A    
C45   H17   S    
O18   V4    S    
C23   C27   A    
C14   H10   S    
C32   C44   A    
C13   H9    S    
C64   H32   S    
C39   H15   S    
C21   H6    S    
O8    V4    S    
C55   C72   S    
O5    C1    A    
C37   C41   A    
C31   C43   A    
C14   C30   A    
C21   C25   A    
O8    C4    A    
C7    C10   S    
O9    C5    A    
C59   C63   A    
C62   H30   S    
C61   H29   S    
O6    V2    S    
C63   H31   S    
C52   C56   A    
N1    N5    A    
O14   V2    S    
N5    C69   A    
C12   C20   A    
C3    C66   S    
C27   C35   A    
C49   H21   S    
C56   C60   A    
C29   C41   A    
C19   O24   S    
O16   V4    S    
O9    V1    S    
C57   H25   S    
C3    O13   A    
C64   C68   A    
C59   H27   S    
O6    C2    A    
C15   C19   A    
O22   H34   S    
O11   V3    S    
C30   C42   A    
O12   V4    S    
O21   H33   S    
C22   C26   A    
C8    C9    S    
C9    C17   A    
O10   C6    A    
O20   V2    S    
C54   C69   S    
C37   H13   S    
O23   H35   S    
C47   C67   A    
C60   C64   A    
C33   C34   A    
C42   H2    S    
C41   H1    S    
C52   H24   S    
C12   C24   A    
C27   C31   A    
C13   C17   A    
C46   C66   A    
N3    N7    A    
C17   O22   S    
C25   C29   A    
C62   C66   A    
C60   H28   S    
C24   C28   A    
C61   C65   A    
C50   C54   A    
C28   C36   A    
C54   C58   A    
C4    O14   A    
N2    N6    A    
C55   C59   A    
C22   H5    S    
O4    V2    S    
C28   C32   A    
C15   H11   S    
