data_mof_unit_6014.cif
_audit_creation_date              2012-12-10T17:13:40-0500
_audit_creation_method            fapswitch 2.2
_symmetry_space_group_name_H-M    P1
_symmetry_Int_Tables_number       1
_space_group_crystal_system       triclinic
_cell_length_a                    27.771302
_cell_length_b                    10.676007
_cell_length_c                    9.981691
_cell_angle_alpha                 89.243259
_cell_angle_beta                  89.918167
_cell_angle_gamma                 90.273396
_cell_volume                      2959.14267237

loop_
_atom_site_label
_atom_site_type_symbol
_atom_type_description
_atom_site_fract_x
_atom_site_fract_y
_atom_site_fract_z
_atom_type_partial_charge
C1    C     C_R   0.497620 0.262470 0.500997 0.941543
C2    C     C_R   0.278580 0.540703 0.622659 -0.139179
C3    C     C_R   0.251658 0.528078 0.485057 0.002545
C4    C     C_R   0.098551 0.539037 0.429239 -0.055808
C5    C     C_R   0.123867 0.426614 0.410336 -0.020702
C6    C     C_R   0.099078 0.318208 0.374095 -0.143083
C7    C     C_R   0.123854 0.648799 0.462080 -0.089816
C8    C     C_R   0.353334 0.505181 0.498039 -0.059007
C9    C     C_R   0.646609 0.497736 0.497856 -0.084472
C10   C     C_R   0.972125 0.432228 0.373143 0.043999
C11   C     C_R   0.972322 0.643532 0.469475 0.038963
C12   C     C_R   0.405984 0.500144 0.499889 0.872908
C13   C     C_R   0.947103 0.535436 0.426804 0.085955
C14   C     C_R   0.945297 0.332047 0.319317 -0.228912
C15   C     C_R   0.895435 0.329002 0.328646 -0.134876
C16   C     C_R   0.870856 0.424972 0.393056 -0.024098
C17   C     C_R   0.896564 0.528692 0.442093 -0.056295
C18   C     C_R   0.871829 0.624508 0.508720 -0.019317
C19   C     C_R   0.821883 0.615191 0.524072 0.506967
C20   C     C_R   0.820904 0.420112 0.409635 0.507530
C21   C     C_R   0.724739 0.457549 0.597595 -0.146114
C22   C     C_R   0.674527 0.449226 0.605594 -0.037759
C23   C     C_R   0.498815 0.737549 0.498817 0.941014
C24   C     C_R   0.669556 0.549905 0.384552 -0.235487
C25   C     C_R   0.719261 0.555828 0.377764 -0.111664
C26   C     C_R   0.746719 0.510152 0.484044 0.317028
C27   C     C_R   0.022918 0.430434 0.380849 0.063669
C28   C     C_R   0.047930 0.540960 0.418191 0.049267
C29   C     C_R   0.022651 0.652554 0.447620 -0.049459
C30   C     C_R   0.049494 0.320091 0.358477 -0.222200
C31   C     C_R   0.099318 0.762318 0.470459 -0.151123
C32   C     C_R   0.947007 0.733908 0.543168 -0.239610
C33   C     C_R   0.897513 0.725506 0.560891 -0.139074
C34   C     C_R   0.593936 0.498023 0.499940 0.864908
C35   C     C_R   0.049165 0.766939 0.458304 0.201122
C36   C     C_2   0.473832 0.934310 0.399528 0.025317
C37   C     C_2   0.498406 0.870158 0.494117 -0.389673
C38   C     C_2   0.479383 0.069044 0.393326 -0.192223
C39   C     C_2   0.488217 0.131755 0.505251 -0.364692
C40   C     C_2   0.529638 0.568171 0.923585 0.261137
C41   C     C_2   0.533013 0.555140 0.074110 -0.205102
C42   C     C_R   0.173617 0.425158 0.430113 0.555168
C43   C     C_R   0.173739 0.643003 0.480338 0.528265
C44   C     C_R   0.280311 0.505993 0.360379 0.077571
C45   C     C_R   0.329773 0.492663 0.373889 -0.269371
C46   C     C_R   0.328209 0.528088 0.618120 -0.205067
H1    H     H_    0.347563 0.538002 0.711459 0.171974
H2    H     H_    0.119502 0.848555 0.480960 0.198450
H3    H     H_    0.965259 0.809300 0.593148 0.177070
H4    H     H_    0.649001 0.587677 0.301259 0.155444
H5    H     H_    0.879567 0.797861 0.617059 0.191757
H6    H     H_    0.736603 0.596044 0.289853 0.136166
H7    H     H_    0.521911 0.915036 0.565948 0.141068
H8    H     H_    0.476410 0.116273 0.296532 0.171616
H9    H     H_    0.259624 0.535943 0.558179 0.232050
H10   H     H_    0.486348 0.087690 0.603862 0.152194
H11   H     H_    0.480721 0.432373 0.899576 0.125800
H12   H     H_    0.563573 0.598149 0.123458 0.163261
H13   H     H_    0.469530 0.471077 0.102307 0.157937
H14   H     H_    0.117848 0.230756 0.359007 0.188721
H15   H     H_    0.746946 0.420632 0.677984 0.140694
H16   H     H_    0.876304 0.249802 0.287210 0.190383
H17   H     H_    0.961910 0.255369 0.267653 0.145870
H18   H     H_    0.032731 0.231839 0.334989 0.148493
H19   H     H_    0.350627 0.476634 0.283897 0.164134
N1    N     N_R   0.197240 0.532443 0.463883 -0.333953
N2    N     N_R   0.797762 0.514426 0.474143 -0.355269
N3    N     N_2   0.500520 0.501330 0.852150 -0.201730
N4    N     N_2   0.500540 0.501360 0.147810 -0.198870
O1    O     O_R   0.499990 0.319060 0.613040 -0.623793
O2    O     O_2   0.795533 0.322205 0.361953 -0.556544
O3    O     O_2   0.198781 0.746639 0.513346 -0.565792
O4    O     O_2   0.797478 0.706092 0.587412 -0.558066
O5    O     O_R   0.500010 0.319100 0.386900 -0.611500
O6    O     O_R   0.428750 0.500000 0.613050 -0.628262
O7    O     O_R   0.428760 0.500040 0.386920 -0.617608
O8    O     O_R   0.499990 0.680900 0.613100 -0.594859
O9    O     O_R   0.500010 0.680940 0.386960 -0.593984
O10   O     O_R   0.571240 0.499960 0.613080 -0.586405
O11   O     O_R   0.571250 0.500000 0.386950 -0.622551
O12   O     O_2   0.198327 0.317479 0.417253 -0.559717
Zn1   Zn    Zn3+2 0.499990 0.499970 0.650990 0.960078
Zn2   Zn    Zn3+2 0.500010 0.500030 0.349010 0.947169
C47   C     C_R   0.258268 0.502641 0.225415 0.137887
C48   C     C_R   0.230962 0.604231 0.177654 -0.189497
C49   C     C_R   0.211071 0.602002 0.049093 -0.131807
C50   C     C_R   0.218618 0.498990 0.966863 -0.089993
C51   C     C_R   0.246142 0.398097 0.013047 -0.140789
C52   C     C_R   0.266027 0.399863 0.141670 -0.117376
H20   H     H_    0.225699 0.685920 0.238929 0.162422
H21   H     H_    0.190068 0.680549 0.012875 0.148513
H22   H     H_    0.203325 0.497593 0.867188 0.144963
H23   H     H_    0.252130 0.318572 0.949085 0.146099
H24   H     H_    0.287253 0.320992 0.176230 0.142516
N5    N     N_2   0.027247 0.886062 0.434225 -0.315530
H25   H     H_    0.994140 0.887570 0.387707 0.236051
C53   C     C_3   0.036378 0.984560 0.529581 -0.807897
H26   H     H_    0.011052 0.063177 0.511551 0.239696
H27   H     H_    0.073512 0.021725 0.517281 0.253337
H28   H     H_    0.031241 0.949172 0.633806 0.245183
C54   C     C_R   0.441204 0.874812 0.301357 0.166099
C55   C     C_R   0.395940 0.829610 0.342582 -0.139769
C56   C     C_R   0.364643 0.776196 0.249571 -0.120349
C57   C     C_R   0.378744 0.764949 0.115843 -0.120622
C58   C     C_R   0.423873 0.809322 0.074340 -0.139535
C59   C     C_R   0.454909 0.865278 0.166471 -0.131068
H29   H     H_    0.384760 0.837043 0.446167 0.128713
H30   H     H_    0.329385 0.743965 0.281084 0.150930
H31   H     H_    0.354588 0.722553 0.044302 0.135626
H32   H     H_    0.434624 0.801023 0.970643 0.130049
H33   H     H_    0.489650 0.900212 0.133279 0.116062
N6    N     N_2   0.561546 0.652931 0.857226 -0.232997
H34   H     H_    0.597053 0.636880 0.881613 0.213876
C60   C     C_3   0.549160 0.783337 0.872914 -0.788875
H35   H     H_    0.573226 0.842334 0.809128 0.233839
H36   H     H_    0.553690 0.811443 0.978968 0.213546
H37   H     H_    0.511404 0.800297 0.841301 0.249249
C61   C     C_R   0.652817 0.385891 0.724447 0.137967
C62   C     C_R   0.623042 0.280083 0.709410 -0.080949
C63   C     C_R   0.601493 0.223154 0.821477 -0.124818
C64   C     C_R   0.609950 0.270316 0.949316 -0.107192
C65   C     C_R   0.640281 0.373856 0.965419 -0.137846
C66   C     C_R   0.661865 0.431160 0.853581 -0.174871
H38   H     H_    0.616100 0.242773 0.610874 0.106090
H39   H     H_    0.578136 0.142668 0.809132 0.120168
H40   H     H_    0.593073 0.226523 0.035912 0.131237
H41   H     H_    0.646823 0.410242 0.064502 0.141715
H42   H     H_    0.684860 0.512189 0.867326 0.137829

loop_
_geom_bond_atom_site_label_1
_geom_bond_atom_site_label_2
_ccdc_geom_bond_type
C10   C27   A    
C21   C26   A    
C43   O3    S    
C30   H18   S    
C20   N2    A    
N5    H25   S    
O5    Zn2   S    
C58   H32   S    
N6    C60   S    
C60   H35   S    
C40   N6    S    
C62   H38   S    
C2    C46   A    
C54   C55   A    
C26   N2    S    
C36   C37   D    
C41   H12   S    
C2    H9    S    
O11   Zn2   S    
C5    C6    A    
C9    C22   A    
C15   C16   A    
C65   H41   S    
C18   C19   A    
C52   H24   S    
C61   C62   A    
C57   C58   A    
C53   H27   S    
C8    C45   A    
O9    Zn2   S    
C16   C17   A    
C20   O2    S    
C19   N2    A    
C56   H30   S    
C7    C43   A    
C21   H15   S    
C16   C20   A    
C37   H7    S    
C50   H22   S    
C27   C30   A    
C42   O12   S    
C4    C7    A    
O7    Zn2   S    
N6    H34   S    
C4    C28   A    
C53   H26   S    
C59   H33   S    
C24   H4    S    
C38   C39   D    
C3    C44   A    
C7    C31   A    
C6    H14   S    
C19   O4    S    
C47   C48   A    
C10   C14   A    
C51   H23   S    
C49   C50   A    
C25   C26   A    
C48   C49   A    
C23   O8    A    
C36   C54   S    
N4    Zn2   S    
C34   O10   A    
C39   H10   S    
C38   H8    S    
C8    C12   S    
C17   C18   A    
C55   H29   S    
C9    C24   A    
C24   C25   A    
C62   C63   A    
C64   C65   A    
H13   N4    S    
C40   C41   S    
C6    C30   A    
C11   C32   A    
C31   H2    S    
C12   O7    A    
C45   H19   S    
C9    C34   S    
C31   C35   A    
C3    N1    S    
C47   C52   A    
C1    O5    A    
H11   N3    S    
C56   C57   A    
C53   H28   S    
C63   C64   A    
C5    C42   A    
C41   N4    D    
C54   C59   A    
C22   C61   S    
C46   H1    S    
C28   C29   A    
C63   H39   S    
C44   C45   A    
C34   O11   A    
C4    C5    A    
C44   C47   S    
C10   C13   A    
O10   Zn1   S    
C60   H36   S    
C48   H20   S    
N5    C53   S    
O6    Zn1   S    
C35   N5    S    
C33   H5    S    
C58   C59   A    
C29   C35   A    
C1    O1    A    
C13   C17   A    
C49   H21   S    
N3    Zn1   S    
C32   C33   A    
C36   C38   S    
C2    C3    A    
C25   H6    S    
C64   H40   S    
C23   C37   S    
C11   C13   A    
C66   H42   S    
C57   H31   S    
O8    Zn1   S    
C43   N1    A    
C14   H17   S    
C15   H16   S    
C61   C66   A    
C23   O9    A    
C55   C56   A    
O1    Zn1   S    
C18   C33   A    
C8    C46   A    
C32   H3    S    
C60   H37   S    
C1    C39   S    
C51   C52   A    
C11   C29   A    
C50   C51   A    
C40   N3    D    
C12   O6    A    
C27   C28   A    
C42   N1    A    
C14   C15   A    
C65   C66   A    
C21   C22   A    
