data_mof_unit_59454.cif
_audit_creation_date              2012-12-10T17:08:48-0500
_audit_creation_method            fapswitch 2.2
_symmetry_space_group_name_H-M    P1
_symmetry_Int_Tables_number       1
_space_group_crystal_system       triclinic
_cell_length_a                    27.709535
_cell_length_b                    11.00411
_cell_length_c                    9.896887
_cell_angle_alpha                 111.383203
_cell_angle_beta                  95.82115
_cell_angle_gamma                 93.934002
_cell_volume                      2777.30459349

loop_
_atom_site_label
_atom_site_type_symbol
_atom_type_description
_atom_site_fract_x
_atom_site_fract_y
_atom_site_fract_z
_atom_type_partial_charge
C1    C     C_R   0.496737 0.254088 0.440175 0.890332
C2    C     C_R   0.503704 0.745981 0.559755 0.829144
C3    C     C_R   0.104322 0.522098 0.546822 -0.096141
C4    C     C_R   0.898730 0.506164 0.491349 -0.097635
C5    C     C_R   0.126819 0.409062 0.540571 -0.010411
C6    C     C_R   0.876069 0.618565 0.495910 -0.010713
C7    C     C_R   0.097986 0.299849 0.544193 0.160085
C8    C     C_R   0.905016 0.728560 0.494499 0.170399
C9    C     C_R   0.133337 0.637863 0.563599 -0.082959
C10   C     C_R   0.869807 0.390004 0.473696 -0.062340
C11   C     C_R   0.355608 0.509713 0.512668 -0.027161
C12   C     C_R   0.645132 0.500398 0.493103 -0.029878
C13   C     C_R   0.972194 0.392311 0.485874 -0.048437
C14   C     C_R   0.030988 0.636828 0.554395 -0.061436
C15   C     C_R   0.979295 0.627762 0.525498 0.053857
C16   C     C_R   0.023823 0.401466 0.515126 0.052393
C17   C     C_R   0.950283 0.509042 0.502639 0.040711
C18   C     C_R   0.052833 0.519955 0.537403 0.038238
C19   C     C_R   0.940997 0.271021 0.433799 0.348267
C20   C     C_R   0.062381 0.757834 0.605458 0.375777
C21   C     C_R   0.891173 0.273237 0.443494 -0.182063
C22   C     C_R   0.112179 0.755036 0.595053 -0.155373
C23   C     C_R   0.407891 0.502650 0.503730 0.822066
C24   C     C_R   0.592268 0.499597 0.497137 0.792787
C25   C     C_R   0.047422 0.299774 0.537065 -0.140393
C26   C     C_R   0.955649 0.729407 0.503625 -0.135478
C27   C     C_2   0.495033 0.113814 0.406803 -0.325441
C28   C     C_2   0.505825 0.886392 0.593276 -0.304146
C29   C     C_2   0.501626 0.070004 0.515817 -0.089141
C30   C     C_2   0.499777 0.930397 0.484328 -0.152979
C31   C     C_2   0.510427 0.459844 0.052521 0.394851
C32   C     C_2   0.493614 0.481554 0.914402 0.386288
C33   C     C_R   0.177632 0.411814 0.536399 0.574977
C34   C     C_R   0.824968 0.614095 0.495057 0.575143
C35   C     C_R   0.183638 0.635703 0.558295 0.574848
C36   C     C_R   0.819349 0.390899 0.475662 0.571371
C37   C     C_R   0.271354 0.441680 0.400340 -0.089708
C38   C     C_R   0.727925 0.584700 0.613452 -0.086452
C39   C     C_R   0.321073 0.436285 0.391027 -0.192508
C40   C     C_R   0.677653 0.584298 0.614943 -0.199426
C41   C     C_R   0.339829 0.591484 0.642124 -0.136302
C42   C     C_R   0.663689 0.415076 0.371384 -0.129773
C43   C     C_R   0.290109 0.596564 0.651482 -0.083779
C44   C     C_R   0.713911 0.416380 0.369189 -0.096026
C45   C     C_R   0.255679 0.521063 0.530918 0.321030
C46   C     C_R   0.746299 0.501167 0.490212 0.321103
Cu1   Cu    Cu3+1 0.508480 0.521810 0.644910 1.053224
Cu2   Cu    Cu3+1 0.491520 0.478190 0.355090 1.045804
H1    H     H_    0.365938 0.652474 0.735372 0.181963
H2    H     H_    0.639640 0.345295 0.279457 0.214523
H3    H     H_    0.512311 0.953998 0.707001 0.178750
H4    H     H_    0.488332 0.046141 0.293137 0.160551
H5    H     H_    0.555044 0.595034 0.921906 0.209118
H6    H     H_    0.446312 0.482140 0.122646 0.224952
H7    H     H_    0.278289 0.658605 0.752515 0.158666
H8    H     H_    0.727706 0.350851 0.273753 0.161036
H9    H     H_    0.664156 0.650103 0.710879 0.166469
H10   H     H_    0.332518 0.373356 0.289739 0.171019
H11   H     H_    0.752646 0.649842 0.708034 0.159920
H12   H     H_    0.244925 0.383588 0.306477 0.156828
H13   H     H_    0.868289 0.181014 0.413478 0.200717
H14   H     H_    0.135174 0.847066 0.624613 0.226910
H15   H     H_    0.026930 0.219594 0.551280 0.220770
H16   H     H_    0.976097 0.809815 0.489868 0.221612
H17   H     H_    0.493281 0.863124 0.370406 0.184578
H18   H     H_    0.508335 0.137338 0.629727 0.228698
N1    N     N_R   0.204467 0.522948 0.541604 -0.477765
N2    N     N_R   0.798085 0.502328 0.488091 -0.476454
N3    N     N_2   0.478780 0.445430 0.137360 -0.276851
N4    N     N_2   0.521220 0.554570 0.862640 -0.327779
O1    O     O_R   0.504520 0.332330 0.577400 -0.522868
O2    O     O_R   0.495480 0.667670 0.422600 -0.597965
O3    O     O_R   0.490210 0.295500 0.332650 -0.541168
O4    O     O_R   0.509790 0.704500 0.667350 -0.580022
O5    O     O_R   0.437420 0.518430 0.622370 -0.500727
O6    O     O_R   0.562580 0.481570 0.377630 -0.503821
O7    O     O_R   0.423110 0.481600 0.377610 -0.600867
O8    O     O_R   0.576890 0.518400 0.622390 -0.579840
O9    O     O_2   0.200249 0.304750 0.526498 -0.474254
O10   O     O_2   0.802099 0.719901 0.500961 -0.480753
O11   O     O_2   0.791744 0.281418 0.466233 -0.522464
O12   O     O_2   0.211468 0.744975 0.568171 -0.516148
S1    S     S_3+6 0.433111 0.396425 0.831328 0.013147
O13   O     O_2   0.397752 0.497490 0.857887 -0.341852
O14   O     O_2   0.427375 0.313401 0.671444 -0.261491
O15   O     O_3   0.415990 0.291037 0.910258 -0.550500
H19   H     H_    0.380057 0.272300 0.884153 0.383587
S2    S     S_3+6 0.567325 0.398881 0.056884 -0.002562
O16   O     O_2   0.605400 0.507791 0.154394 -0.321935
O17   O     O_2   0.563649 0.288158 0.111315 -0.292743
O18   O     O_3   0.583054 0.341644 0.886877 -0.554758
H20   H     H_    0.615245 0.309867 0.898008 0.375093
N5    N     N_3   0.119517 0.189633 0.558551 -0.478355
H21   H     H_    0.103708 0.104891 0.470608 0.273462
H22   H     H_    0.110841 0.180784 0.655171 0.256910
N6    N     N_3   0.883548 0.838795 0.479995 -0.487016
H23   H     H_    0.899015 0.923394 0.568676 0.271346
H24   H     H_    0.892694 0.848280 0.384140 0.239686
S3    S     S_3+6 0.957756 0.118437 0.316838 0.016050
O19   O     O_2   0.002217 0.138568 0.248829 -0.219981
O20   O     O_2   0.967649 0.031984 0.401770 -0.328349
O21   O     O_3   0.911551 0.041972 0.180834 -0.474430
H25   H     H_    0.891545 0.984781 0.216435 0.348988
S4    S     S_3+6 0.045978 0.911409 0.720832 0.002177
O22   O     O_2   0.036119 0.995893 0.633581 -0.324139
O23   O     O_2   0.001848 0.892761 0.790953 -0.235282
O24   O     O_3   0.092892 0.988637 0.853849 -0.510985
H26   H     H_    0.082571 0.075361 0.909364 0.390005

loop_
_geom_bond_atom_site_label_1
_geom_bond_atom_site_label_2
_ccdc_geom_bond_type
N5    H21   S    
C27   C29   D    
C8    C26   A    
C14   C18   A    
C8    N6    S    
Cu2   N3    S    
S4    O23   D    
C1    O1    A    
C19   C21   A    
C28   H3    S    
C9    C22   A    
C3    C18   A    
C25   H15   S    
Cu2   O6    S    
C12   C42   A    
C34   O10   S    
C31   C32   S    
C5    C33   A    
C45   N1    S    
O24   H26   S    
C40   H9    S    
C21   H13   S    
C2    O4    A    
C38   H11   S    
N5    H22   S    
C41   C43   A    
C42   C44   A    
Cu2   O2    S    
C2    O2    A    
H5    N4    S    
C41   H1    S    
S4    O22   D    
C35   O12   S    
C44   C46   A    
C10   C21   A    
C7    N5    S    
C13   C19   A    
C37   H12   S    
Cu1   Cu2   S    
C14   C20   A    
C4    C6    A    
C34   N2    A    
O18   H20   S    
C5    C7    A    
C19   S3    S    
O15   H19   S    
C24   O6    A    
C15   C26   A    
C6    C8    A    
C39   H10   S    
C6    C34   A    
N6    H24   S    
Cu2   O7    S    
C12   C40   A    
Cu1   N4    S    
C46   N2    S    
C29   C30   S    
C3    C9    A    
C22   H14   S    
C44   H8    S    
S1    O13   D    
S2    O18   S    
C35   N1    A    
C36   O11   S    
N6    H23   S    
S1    O15   S    
C23   O7    A    
C11   C39   A    
C43   C45   A    
Cu1   O1    S    
C42   H2    S    
C4    C17   A    
C43   H7    S    
S1    O14   D    
S2    O17   D    
C20   C22   A    
C4    C10   A    
C27   H4    S    
C33   N1    A    
C1    C27   S    
C24   O8    A    
C16   C25   A    
C15   C17   A    
C32   S1    S    
C31   S2    S    
S3    O20   D    
Cu2   O3    S    
C33   O9    S    
Cu1   O4    S    
C23   O5    A    
C3    C5    A    
C32   N4    D    
C36   N2    A    
C20   S4    S    
C26   H16   S    
C12   C24   S    
C7    C25   A    
S3    O19   D    
C13   C17   A    
C1    O3    A    
C28   C30   D    
Cu1   O5    S    
C37   C39   A    
C38   C40   A    
H6    N3    S    
C11   C23   S    
C10   C36   A    
C11   C41   A    
O21   H25   S    
C38   C46   A    
C30   H17   S    
C29   H18   S    
C31   N3    D    
S3    O21   S    
S2    O16   D    
C16   C18   A    
C13   C16   A    
C9    C35   A    
C14   C15   A    
C2    C28   S    
Cu1   O8    S    
C37   C45   A    
S4    O24   S    
