data_mof_unit_44135.cif
_audit_creation_date              2013-03-05T15:41:54-0500
_audit_creation_method            fapswitch 2.2
_symmetry_space_group_name_H-M    P1
_symmetry_Int_Tables_number       1
_space_group_crystal_system       triclinic
_cell_length_a                    23.517491
_cell_length_b                    8.856047
_cell_length_c                    7.656202
_cell_angle_alpha                 104.692651
_cell_angle_beta                  96.708021
_cell_angle_gamma                 95.506307
_cell_volume                      1518.72650179

loop_
_atom_site_label
_atom_site_type_symbol
_atom_site_description
_atom_site_fract_x
_atom_site_fract_y
_atom_site_fract_z
_atom_type_partial_charge
O1    O     O_R   0.504120 0.286130 0.619770 -0.556754
O2    O     O_R   0.495880 0.713870 0.380230 -0.566365
O3    O     O_R   0.493410 0.256770 0.308360 -0.515165
O4    O     O_R   0.506590 0.743230 0.691640 -0.534951
C1    C     C_R   0.498324 0.200025 0.452349 0.866232
C2    C     C_R   0.501565 0.799883 0.547567 0.879402
O5    O     O_R   0.423230 0.514630 0.655730 -0.580967
O6    O     O_R   0.576770 0.485370 0.344270 -0.516594
O7    O     O_R   0.412530 0.485280 0.344320 -0.546244
O8    O     O_R   0.587470 0.514720 0.655680 -0.580672
C3    C     C_R   0.391474 0.497511 0.497580 1.001445
C4    C     C_R   0.608637 0.499746 0.501413 0.943446
Cu1   Cu    Cu3+1 0.506340 0.517380 0.684380 1.059067
Cu2   Cu    Cu3+1 0.493660 0.482620 0.315620 1.086560
C5    C     C_R   0.884273 0.603340 0.513502 0.629226
C6    C     C_R   0.111725 0.358491 0.365579 0.603777
N1    N     N_R   0.850502 0.460124 0.478827 -0.440178
N2    N     N_R   0.147562 0.479800 0.488254 -0.435512
C7    C     C_R   0.875232 0.324352 0.426997 0.633216
C8    C     C_R   0.125189 0.599074 0.598901 0.661562
C9    C     C_R   0.932062 0.331114 0.384792 -0.169346
C10   C     C_R   0.065894 0.613195 0.566396 -0.156145
C11   C     C_R   0.968697 0.473742 0.460899 -0.070758
C12   C     C_R   0.028671 0.477072 0.465378 -0.083170
C13   C     C_R   0.945040 0.612578 0.532232 -0.136612
C14   C     C_R   0.051587 0.344415 0.368930 -0.138209
C15   C     C_R   0.953685 0.200818 0.275052 -0.187791
C16   C     C_R   0.042877 0.755951 0.632876 -0.115473
C17   C     C_R   0.013843 0.206196 0.272165 0.420976
C18   C     C_R   0.982154 0.755697 0.613887 0.419604
O9    O     O_2   0.859121 0.735517 0.527025 -0.467070
O10   O     O_2   0.134291 0.253942 0.240515 -0.497558
O11   O     O_2   0.846807 0.184563 0.426276 -0.481263
O12   O     O_2   0.159875 0.700085 0.742064 -0.516590
C19   C     C_R   0.243311 0.620877 0.480739 0.387259
C20   C     C_R   0.746277 0.354980 0.359459 0.372791
C21   C     C_R   0.303547 0.627634 0.502391 0.321085
C22   C     C_R   0.687633 0.367705 0.367781 0.341221
C23   C     C_R   0.328816 0.488954 0.490930 -0.332333
C24   C     C_R   0.670730 0.488809 0.501654 -0.321071
C25   C     C_R   0.294120 0.346166 0.479149 -0.252046
C26   C     C_R   0.712720 0.590773 0.638226 -0.244102
C27   C     C_R   0.236417 0.353048 0.510744 0.444232
C28   C     C_R   0.771024 0.564790 0.643482 0.433530
C29   C     C_R   0.209429 0.485247 0.494992 0.021905
C30   C     C_R   0.789175 0.455966 0.495899 0.038397
C31   C     C_2   0.490417 0.030607 0.429056 -0.283829
C32   C     C_2   0.509098 0.969110 0.570523 -0.292517
N3    N     N_2   0.484110 0.456420 0.038520 -0.224473
N4    N     N_2   0.515890 0.543580 0.961480 -0.224150
C33   C     C_2   0.914029 0.070916 0.139932 0.990090
O13   O     O_2   0.867541 0.096655 0.072098 -0.546795
O14   O     O_R   0.931069 0.921952 0.080555 -0.734807
H1    H     H_    0.903783 0.852268 0.972105 0.387754
C34   C     C_2   0.081418 0.908697 0.698832 0.872673
O15   O     O_2   0.123701 0.930602 0.625309 -0.567261
O16   O     O_R   0.068471 0.029847 0.838298 -0.660226
H2    H     H_    0.096894 0.129250 0.864982 0.341454
O17   O     O_3   0.034637 0.082256 0.159245 -0.480206
C35   C     C_3   0.056153 0.983183 0.262032 -0.084872
H3    H     H_    0.080998 0.900738 0.176843 0.191753
H4    H     H_    0.020496 0.910909 0.297706 0.116369
H5    H     H_    0.085838 0.050272 0.386930 0.181862
O18   O     O_3   0.959318 0.888938 0.699441 -0.509146
C36   C     C_3   0.952728 0.987545 0.581858 -0.122531
H6    H     H_    0.932908 0.921624 0.440590 0.165497
H7    H     H_    0.994474 0.056132 0.579812 0.109357
H8    H     H_    0.923597 0.073671 0.635851 0.221392
O19   O     O_3   0.218453 0.751126 0.458148 -0.489221
C37   C     C_3   0.196584 0.724268 0.271674 -0.156410
H9    H     H_    0.159626 0.628339 0.227607 0.128353
H10   H     H_    0.230815 0.697529 0.183576 0.137586
H11   H     H_    0.180435 0.832995 0.251097 0.225261
O20   O     O_3   0.760020 0.230659 0.228211 -0.511547
C38   C     C_3   0.762783 0.273996 0.065117 -0.150033
H12   H     H_    0.805634 0.341552 0.074885 0.144376
H13   H     H_    0.727006 0.340165 0.030678 0.130937
H14   H     H_    0.759322 0.165471 0.951590 0.225713
O21   O     O_3   0.337835 0.767971 0.521865 -0.555952
C39   C     C_3   0.350063 0.847488 0.709282 -0.172044
H15   H     H_    0.387326 0.939761 0.729750 0.198631
H16   H     H_    0.362880 0.769007 0.796089 0.135365
H17   H     H_    0.312448 0.905164 0.755451 0.200629
O22   O     O_3   0.646548 0.266509 0.234669 -0.565001
C40   C     C_3   0.634160 0.127127 0.287380 -0.208964
H18   H     H_    0.599154 0.049529 0.185836 0.232478
H19   H     H_    0.618476 0.151734 0.421477 0.164696
H20   H     H_    0.672290 0.062314 0.291086 0.190550
C41   C     C_2   0.315213 0.189752 0.421305 0.896789
O23   O     O_2   0.362226 0.179459 0.369422 -0.587027
O24   O     O_R   0.279743 0.052008 0.413916 -0.672099
H21   H     H_    0.297067 0.954387 0.356323 0.376627
C42   C     C_2   0.697230 0.732956 0.765950 1.000088
O25   O     O_2   0.662281 0.809966 0.710109 -0.584890
O26   O     O_R   0.723536 0.781863 0.948022 -0.710943
H22   H     H_    0.709809 0.881185 0.019266 0.354233
O27   O     O_3   0.206001 0.231428 0.557670 -0.498580
C43   C     C_3   0.219282 0.258154 0.748675 -0.182418
H23   H     H_    0.202581 0.366434 0.822054 0.130048
H24   H     H_    0.266553 0.265702 0.793151 0.140497
H25   H     H_    0.198309 0.157965 0.789593 0.233738
O28   O     O_3   0.811484 0.657349 0.785315 -0.506675
C44   C     C_3   0.822288 0.571405 0.914065 -0.258812
H26   H     H_    0.837546 0.457301 0.852124 0.141692
H27   H     H_    0.783124 0.554126 0.978177 0.177192
H28   H     H_    0.856631 0.639450 0.025147 0.197500
C45   C     C_2   0.452377 0.936620 0.258686 0.955141
O29   O     O_2   0.463532 0.946994 0.109986 -0.554673
O30   O     O_R   0.403153 0.839473 0.269050 -0.714286
H29   H     H_    0.380815 0.782363 0.144566 0.311811
C46   C     C_2   0.546428 0.063250 0.741738 0.950210
O31   O     O_2   0.532272 0.060776 0.889478 -0.525584
O32   O     O_R   0.597837 0.152830 0.733693 -0.781093
H30   H     H_    0.619137 0.211784 0.858971 0.356219
C47   C     C_2   0.438275 0.331653 0.948520 1.057697
O33   O     O_2   0.413754 0.261756 0.042542 -0.558862
O34   O     O_R   0.419202 0.285324 0.763191 -0.750632
H31   H     H_    0.385393 0.198437 0.727921 0.296994
C48   C     C_2   0.560994 0.670349 0.053077 1.062569
O35   O     O_2   0.584133 0.744446 0.960617 -0.574371
O36   O     O_R   0.581279 0.713032 0.238052 -0.752437
H32   H     H_    0.615161 0.799980 0.275850 0.299556

loop_
_geom_bond_atom_site_label_1
_geom_bond_atom_site_label_2
_geom_bond_distance
_ccdc_geom_bond_type
C25   C41   1.494324 S    
C34   O15   1.221666 D    
C42   O25   1.223450 D    
C18   O18   1.386197 S    
C15   C17   1.413942 A    
C26   C42   1.490341 S    
C45   O30   1.396967 S    
O26   H22   1.013755 S    
O7    Cu2   1.947602 S    
O27   C43   1.412676 S    
C23   C25   1.414186 A    
O28   C44   1.405247 S    
C40   H18   1.106943 S    
O5    C3    1.311764 A    
C21   O21   1.379385 S    
C2    C32   1.454812 S    
C35   H5    1.109512 S    
O1    C1    1.298654 A    
C19   C21   1.400584 A    
C12   C14   1.410782 A    
C5    C13   1.411846 A    
Cu2   N3    2.057708 S    
C47   O33   1.220015 D    
C35   H4    1.107541 S    
O4    Cu1   1.986189 S    
C38   H13   1.114461 S    
N1    C7    1.373890 A    
C46   O32   1.397489 S    
C17   O17   1.382666 S    
C15   C33   1.492784 S    
C36   H7    1.107712 S    
C45   O29   1.221312 D    
C20   C30   1.419720 A    
C37   H9    1.111481 S    
C41   O24   1.394930 S    
C8    O12   1.349345 S    
C24   C26   1.411580 A    
C9    C15   1.420087 A    
O17   C35   1.409817 S    
C42   O26   1.397980 S    
C10   C16   1.421160 A    
Cu1   Cu2   2.738528 S    
C25   C27   1.410263 A    
O2    C2    1.298035 A    
C26   C28   1.409631 A    
C39   H17   1.112012 S    
C16   C34   1.489176 S    
C28   C30   1.423729 A    
C48   O36   1.382787 S    
C6    C14   1.411625 A    
O20   C38   1.402850 S    
C40   H19   1.108144 S    
C33   O13   1.221542 D    
O22   C40   1.408031 S    
C39   H16   1.115054 S    
C7    O11   1.347711 S    
O24   H21   1.011952 S    
C28   O28   1.383430 S    
C47   O34   1.379692 S    
O14   H1    1.010763 S    
N4    C48   1.440712 S    
C35   H3    1.108703 S    
C33   O14   1.395504 S    
C4    C24   1.472542 S    
C38   H12   1.105925 S    
O7    C3    1.309709 A    
C31   C32   1.377214 D    
O6    C4    1.310989 A    
C36   H8    1.108374 S    
C37   H11   1.108757 S    
C44   H27   1.108762 S    
N1    C30   1.461101 S    
C3    C23   1.462463 S    
C27   C29   1.408692 A    
O36   H32   1.013384 S    
O3    Cu2   1.986189 S    
O8    C4    1.315657 A    
O4    C2    1.320637 A    
N3    C47   1.438504 S    
C8    C10   1.410779 A    
N3    N4    1.313596 D    
C43   H24   1.114475 S    
C34   O16   1.393377 S    
C10   C12   1.408583 A    
O21   C39   1.410571 S    
O1    Cu1   1.975126 S    
C36   H6    1.112474 S    
C20   C22   1.401986 A    
C19   C29   1.411635 A    
N2    C29   1.445547 S    
O32   H30   1.013427 S    
C40   H20   1.111526 S    
C13   C18   1.420350 A    
C5    N1    1.377140 A    
C20   O20   1.381790 S    
O6    Cu2   1.938276 S    
C46   O31   1.220614 D    
C7    C9    1.410503 A    
C27   O27   1.381771 S    
C39   H15   1.107160 S    
O3    C1    1.320463 A    
O8    Cu1   1.947602 S    
C48   O35   1.218574 D    
C5    O9    1.347786 S    
C6    O10   1.348718 S    
C43   H25   1.105344 S    
C31   C45   1.492750 S    
O18   C36   1.410400 S    
C9    C11   1.406353 A    
C22   O22   1.384135 S    
C21   C23   1.402433 A    
O30   H29   1.013738 S    
C22   C24   1.406484 A    
O16   H2    1.013629 S    
C16   C18   1.418174 A    
C1    C31   1.456185 S    
C44   H28   1.106758 S    
N2    C8    1.366421 A    
C11   C13   1.407543 A    
O19   C37   1.411414 S    
O2    Cu2   1.975126 S    
C38   H14   1.109288 S    
C11   C12   1.404142 A    
Cu1   N4    2.057708 S    
O5    Cu1   1.938276 S    
C32   C46   1.490114 S    
C19   O19   1.381738 S    
C14   C17   1.418790 A    
C6    N2    1.369697 A    
C43   H23   1.113558 S    
C44   H26   1.114016 S    
C37   H10   1.114240 S    
C41   O23   1.221496 D    
O34   H31   1.012031 S    
