data_mof_unit_47988.cif
_audit_creation_date              2012-12-11T14:06:43-0500
_audit_creation_method            fapswitch 2.2
_symmetry_space_group_name_H-M    P1
_symmetry_Int_Tables_number       1
_space_group_crystal_system       triclinic
_cell_length_a                    6.924915
_cell_length_b                    17.302905
_cell_length_c                    24.08611
_cell_angle_alpha                 104.454248
_cell_angle_beta                  90.321949
_cell_angle_gamma                 90.009605
_cell_volume                      2794.62692673

loop_
_atom_site_label
_atom_site_type_symbol
_atom_type_description
_atom_site_fract_x
_atom_site_fract_y
_atom_site_fract_z
_atom_type_partial_charge
O1    O     O_R   0.494290 0.391990 0.999150 -0.537782
O2    O     O_R   0.827170 0.534410 0.082350 -0.544576
O3    O     O_R   0.994360 0.608010 0.000850 -0.500764
C1    C     C_R   0.658547 0.550995 0.105948 0.703054
O4    O     O_R   0.824210 0.388010 0.004470 -0.549492
O5    O     O_R   0.991370 0.460560 0.922410 -0.541712
C2    C     C_R   0.654510 0.354868 0.001435 0.764768
O6    O     O_R   0.497270 0.539440 0.077590 -0.542492
O7    O     O_3   0.659770 0.523970 0.973170 -0.354352
V1    V     V_3+5 0.935840 0.495550 0.004980 1.444949
O8    O     O_R   0.320910 0.465590 0.917650 -0.545429
C3    C     C_R   0.151699 0.449684 0.893877 0.699549
O9    O     O_R   0.323870 0.611990 0.995530 -0.541746
C4    C     C_R   0.154001 0.645217 0.998858 0.804758
V2    V     V_3+5 0.435470 0.504450 0.995020 1.444306
O10   O     O_3   0.161670 0.476030 0.026830 -0.378854
C5    C     C_2   0.139661 0.730484 0.998816 -0.433759
H1    H     H_    0.273045 0.760733 0.993306 0.135228
C6    C     C_2   0.969704 0.771268 0.005726 0.283082
C7    C     C_R   0.064913 0.241944 0.627254 0.599211
N1    N     N_R   0.110283 0.321043 0.648707 -0.561058
C8    C     C_R   0.144216 0.369569 0.612615 0.575484
C9    C     C_R   0.131264 0.339221 0.552671 -0.010930
C10   C     C_R   0.083952 0.258146 0.530029 -0.016753
C11   C     C_R   0.051456 0.208960 0.567543 -0.087393
C12   C     C_R   0.162872 0.388153 0.514987 -0.147486
C13   C     C_R   0.145656 0.357353 0.455782 -0.131509
C14   C     C_R   0.097006 0.276751 0.432673 -0.016422
C15   C     C_R   0.067433 0.226565 0.469849 -0.079151
C16   C     C_R   0.020584 0.145256 0.447005 -0.127996
C17   C     C_R   0.994900 0.095475 0.485145 0.456075
C18   C     C_R   0.006068 0.128155 0.544701 -0.223873
C19   C     C_R   0.077031 0.245239 0.373136 0.610140
N2    N     N_R   0.029476 0.166539 0.351196 -0.556160
C20   C     C_R   0.001433 0.116588 0.386676 0.606500
O11   O     O_2   0.034248 0.195110 0.663524 -0.521645
O12   O     O_2   0.188123 0.447205 0.634603 -0.510505
H2    H     H_    0.199981 0.450598 0.531102 0.163755
H3    H     H_    0.170120 0.397110 0.428184 0.176932
O13   O     O_2   0.105787 0.292994 0.337385 -0.504438
O14   O     O_2   0.952946 0.039751 0.363554 -0.479250
H4    H     H_    0.978425 0.089583 0.572963 0.186743
C21   C     C_R   0.138619 0.078606 0.259388 -0.188930
H5    H     H_    0.253454 0.056699 0.282031 0.149204
C22   C     C_R   0.124670 0.050924 0.199708 -0.202277
H6    H     H_    0.229142 0.007873 0.177302 0.139129
C23   C     C_R   0.976326 0.077901 0.169266 -0.101457
C24   C     C_R   0.842559 0.133432 0.199642 -0.281689
H7    H     H_    0.729394 0.155973 0.176719 0.140669
C25   C     C_R   0.858105 0.162592 0.259601 0.525761
C26   C     C_R   0.008568 0.135773 0.289734 0.277899
C27   C     C_R   0.953238 0.361442 0.743502 -0.088550
H8    H     H_    0.814975 0.342890 0.723333 0.118804
C28   C     C_R   0.962926 0.393164 0.802962 -0.196560
H9    H     H_    0.830879 0.397938 0.827446 0.128368
C29   C     C_R   0.140909 0.417685 0.830404 -0.055873
C30   C     C_R   0.308624 0.409914 0.796576 -0.194129
H10   H     H_    0.448112 0.427998 0.816044 0.132444
C31   C     C_R   0.298412 0.378513 0.737057 -0.081810
H11   H     H_    0.429094 0.372904 0.711894 0.121837
C32   C     C_R   0.120790 0.353812 0.710079 0.375479
C33   C     C_R   0.524425 0.883485 0.612773 0.578502
N3    N     N_R   0.494154 0.831722 0.646775 -0.546105
C34   C     C_R   0.480657 0.750992 0.623289 0.590873
C35   C     C_R   0.500596 0.719377 0.563743 -0.034895
C36   C     C_R   0.534517 0.771687 0.528442 -0.015032
C37   C     C_R   0.545477 0.854519 0.552949 -0.042953
C38   C     C_R   0.488788 0.636833 0.538787 -0.137539
C39   C     C_R   0.511562 0.606637 0.479691 -0.147367
C40   C     C_R   0.546963 0.658207 0.444053 -0.025637
C41   C     C_R   0.558184 0.741039 0.468527 -0.015082
C42   C     C_R   0.593157 0.793262 0.433229 -0.050357
C43   C     C_R   0.602529 0.875858 0.458094 -0.135107
C44   C     C_R   0.579245 0.906120 0.517203 -0.160262
C45   C     C_R   0.570044 0.629108 0.384369 0.576902
N4    N     N_R   0.603626 0.680642 0.350449 -0.563566
C46   C     C_R   0.616985 0.761403 0.373809 0.604902
O15   O     O_2   0.537064 0.962590 0.636781 -0.520585
O16   O     O_2   0.447972 0.701355 0.657445 -0.505585
H12   H     H_    0.462315 0.595201 0.564843 0.179955
H13   H     H_    0.501490 0.542720 0.462071 0.168355
O17   O     O_2   0.557108 0.549996 0.360387 -0.509477
O18   O     O_2   0.652930 0.810749 0.339668 -0.500057
H14   H     H_    0.627534 0.917439 0.431926 0.209846
H15   H     H_    0.588088 0.970078 0.534756 0.180190
C47   C     C_R   0.465021 0.658344 0.252393 -0.011997
C48   C     C_R   0.479326 0.625756 0.193096 -0.237348
H16   H     H_    0.359764 0.633137 0.165618 0.125737
C49   C     C_R   0.646817 0.584834 0.169040 -0.070020
C50   C     C_R   0.800425 0.577206 0.205729 -0.194549
H17   H     H_    0.931170 0.546116 0.188607 0.136876
C51   C     C_R   0.785166 0.608406 0.265159 -0.049033
H18   H     H_    0.903628 0.600754 0.292816 0.140680
C52   C     C_R   0.618326 0.649471 0.289006 0.339345
C53   C     C_R   0.633514 0.845058 0.742992 -0.120781
H19   H     H_    0.755153 0.809616 0.722900 0.143198
C54   C     C_R   0.626390 0.872416 0.802850 -0.144178
C55   C     C_R   0.467321 0.918965 0.829724 -0.200020
C56   C     C_R   0.318354 0.936921 0.794108 0.423994
C57   C     C_R   0.327324 0.907484 0.734145 -0.168837
H20   H     H_    0.210697 0.920117 0.707588 0.146275
C58   C     C_R   0.484875 0.862001 0.708354 0.308724
C59   C     C_2   0.642843 0.269703 0.001808 -0.339915
H21   H     H_    0.777398 0.238883 0.005227 0.148617
C60   C     C_2   0.472687 0.230161 0.997820 -0.343274
H22   H     H_    0.338130 0.260966 0.994379 0.148420
O19   O     O_R   0.618210 0.960470 0.922400 -0.539269
O20   O     O_R   0.291310 0.111960 0.995450 -0.548818
O21   O     O_R   0.124210 0.039530 0.077580 -0.543144
C61   C     C_R   0.461020 0.145054 0.998336 0.757915
O22   O     O_R   0.288310 0.965490 0.917650 -0.500339
O23   O     O_R   0.121180 0.892010 0.999220 -0.554023
C62   C     C_R   0.456959 0.949443 0.893767 0.745717
O24   O     O_R   0.621230 0.107990 0.000760 -0.539291
O25   O     O_3   0.455770 0.976060 0.026840 -0.380071
V3    V     V_3+5 0.179680 0.004440 0.995020 1.469318
O26   O     O_R   0.791670 0.888040 0.004570 -0.527534
C63   C     C_R   0.960996 0.855441 0.002686 0.703196
O27   O     O_R   0.794680 0.034510 0.082370 -0.546975
C64   C     C_R   0.964121 0.049382 0.105979 0.705173
V4    V     V_3+5 0.680070 0.995560 0.005010 1.450246
O28   O     O_3   0.953840 0.023940 0.973160 -0.358301
O29   O     O_3   0.735021 0.221591 0.288566 -0.528920
C65   C     C_3   0.556388 0.186493 0.295500 -0.198496
H23   H     H_    0.573412 0.136526 0.316707 0.125002
H24   H     H_    0.480286 0.165907 0.253647 0.138233
H25   H     H_    0.465071 0.232332 0.323698 0.200744
C66   C     C_1   0.291880 0.700685 0.275158 0.312021
N5    N     N_1   0.153587 0.735000 0.293528 -0.321078
O30   O     O_3   0.797232 0.733505 0.011858 -0.529115
C67   C     C_3   0.749806 0.751595 0.070585 -0.168903
H26   H     H_    0.723058 0.816515 0.087944 0.111110
H27   H     H_    0.864179 0.730879 0.096162 0.111182
H28   H     H_    0.614594 0.719636 0.075557 0.143387
C68   C     C_1   0.782957 0.849089 0.835075 0.409678
N6    N     N_1   0.908875 0.830226 0.860613 -0.340582
O31   O     O_3   0.158591 0.980562 0.817688 -0.543149
C69   C     C_3   0.187735 0.060780 0.816538 -0.186496
H29   H     H_    0.318927 0.086215 0.841440 0.104942
H30   H     H_    0.062040 0.096271 0.836947 0.157136
H31   H     H_    0.197120 0.067119 0.771766 0.160634
O32   O     O_3   0.945410 0.015930 0.464769 -0.536811
C70   C     C_3   0.107231 0.968464 0.469621 -0.140198
H32   H     H_    0.234752 0.984803 0.446921 0.137485
H33   H     H_    0.071471 0.905230 0.449129 0.180968
H34   H     H_    0.143741 0.972409 0.515269 0.118257

loop_
_geom_bond_atom_site_label_1
_geom_bond_atom_site_label_2
_ccdc_geom_bond_type
C38   H12   S    
C70   H34   S    
C48   H16   S    
O25   V4    S    
C43   C44   A    
C53   H19   S    
C1    O6    A    
C67   H28   S    
C66   N5    T    
C54   C55   A    
C50   H17   S    
C68   N6    T    
C22   H6    S    
C12   C13   A    
C15   C16   A    
V3    O28   S    
C33   C37   A    
C14   C15   A    
C60   C61   S    
C70   H32   S    
C27   C32   A    
O5    C3    A    
C16   C17   A    
C30   C31   A    
C7    C11   A    
C46   O18   S    
V2    O10   S    
C29   C30   A    
N2    C20   A    
C22   C23   A    
C9    C12   A    
O26   V4    S    
C10   C15   A    
O19   C62   A    
C47   C52   A    
O21   V3    S    
N4    C52   S    
O24   V4    S    
O8    V2    S    
C56   C57   A    
C6    C63   S    
C13   H3    S    
C38   C39   A    
C9    C10   A    
O22   V3    S    
O1    V2    S    
O7    V1    S    
C61   O24   A    
C43   H14   S    
N1    C32   S    
C53   C58   A    
C6    O30   S    
C24   C25   A    
C36   C37   A    
C31   H11   S    
C2    C59   S    
O9    C4    A    
C4    C5    S    
N3    C58   S    
C57   C58   A    
C27   C28   A    
C5    H1    S    
O27   V4    S    
C28   C29   A    
C31   C32   A    
C19   O13   S    
C47   C66   S    
C23   C24   A    
O29   C65   S    
N4    C46   A    
O22   C62   A    
O4    C2    A    
C47   C48   A    
C12   H2    S    
C55   C62   S    
C8    O12   S    
O2    C1    A    
C45   N4    A    
C33   N3    A    
C50   C51   A    
C36   C41   A    
O27   C64   A    
C35   C38   A    
C51   C52   A    
C25   C26   A    
N2    C26   S    
C59   C60   D    
C37   C44   A    
C10   C11   A    
C21   C22   A    
V4    O28   S    
C3    C29   S    
O3    C4    A    
C69   H30   S    
C65   H25   S    
C16   C20   A    
C23   C64   S    
C14   C19   A    
C55   C56   A    
O6    V2    S    
C48   C49   A    
C21   H5    S    
C34   O16   S    
O19   V4    S    
C67   H26   S    
O2    V1    S    
O23   V3    S    
C40   C41   A    
C27   H8    S    
C65   H24   S    
C1    C49   S    
O31   C69   S    
C70   H33   S    
C28   H9    S    
C24   H7    S    
O1    C2    A    
C33   O15   S    
C17   C18   A    
C25   O29   S    
C42   C43   A    
C67   H27   S    
C69   H31   S    
O5    V1    S    
C42   C46   A    
O8    C3    A    
C53   C54   A    
C45   O17   S    
C60   H22   S    
C34   C35   A    
O20   V3    S    
C17   O32   S    
O9    V2    S    
O30   C67   S    
O7    V2    S    
O4    V1    S    
O3    V1    S    
V1    O10   S    
O26   C63   A    
O23   C63   A    
C21   C26   A    
C30   H10   S    
O20   C61   A    
C11   C18   A    
C51   H18   S    
C5    C6    D    
C19   N2    A    
C8    C9    A    
C44   H15   S    
C39   C40   A    
C20   O14   S    
C39   H13   S    
C69   H29   S    
N3    C34   A    
C7    O11   S    
C41   C42   A    
C7    N1    A    
C40   C45   A    
C54   C68   S    
C35   C36   A    
C59   H21   S    
C18   H4    S    
O32   C70   S    
C56   O31   S    
C57   H20   S    
C49   C50   A    
N1    C8    A    
O25   V3    S    
O21   C64   A    
C65   H23   S    
C13   C14   A    
