data_mof_unit_53677.cif
_audit_creation_date              2013-03-05T16:11:50-0500
_audit_creation_method            fapswitch 2.2
_symmetry_space_group_name_H-M    P1
_symmetry_Int_Tables_number       1
_space_group_crystal_system       triclinic
_cell_length_a                    11.302966
_cell_length_b                    9.906015
_cell_length_c                    23.662359
_cell_angle_alpha                 85.775438
_cell_angle_beta                  85.542987
_cell_angle_gamma                 91.550901
_cell_volume                      2632.79002503

loop_
_atom_site_label
_atom_site_type_symbol
_atom_site_description
_atom_site_fract_x
_atom_site_fract_y
_atom_site_fract_z
_atom_type_partial_charge
O1    O     O_R   0.317570 0.620260 0.500030 -0.555702
O2    O     O_R   0.317570 0.379740 0.500030 -0.569380
C1    C     C_R   0.260211 0.499311 0.497588 0.979540
O3    O     O_R   0.499840 0.620290 0.417900 -0.465748
O4    O     O_R   0.499840 0.379710 0.417900 -0.528499
C2    C     C_R   0.502766 0.503916 0.391052 0.950864
Cu1   Cu    Cu3+1 0.499860 0.642410 0.500030 1.029816
Cu2   Cu    Cu3+1 0.499860 0.357590 0.500030 1.040702
O5    O     O_R   0.682190 0.620260 0.500010 -0.610474
O6    O     O_R   0.682190 0.379740 0.500010 -0.571917
O7    O     O_R   0.499920 0.620230 0.582140 -0.614446
O8    O     O_R   0.499920 0.379770 0.582140 -0.542113
C3    C     C_R   0.738677 0.502644 0.496956 0.807198
C4    C     C_R   0.500268 0.494972 0.608543 0.851352
C5    C     C_R   0.616034 0.570985 0.874934 0.578782
N1    N     N_R   0.516636 0.530547 0.849776 -0.444778
C6    C     C_R   0.416806 0.486155 0.883968 0.557965
C7    C     C_R   0.408258 0.502306 0.942810 -0.042811
C8    C     C_R   0.513441 0.524046 0.968718 -0.037383
C9    C     C_R   0.619263 0.554140 0.934410 -0.057256
C10   C     C_R   0.299186 0.487180 0.976419 0.132351
C11   C     C_R   0.298475 0.469778 0.036343 0.086865
C12   C     C_R   0.405239 0.493487 0.062823 -0.039122
C13   C     C_R   0.513436 0.515411 0.028614 -0.073917
C14   C     C_R   0.622632 0.522480 0.053996 -0.126188
C15   C     C_R   0.729866 0.528205 0.018319 0.385984
C16   C     C_R   0.726700 0.557668 0.959711 -0.201629
C17   C     C_R   0.408210 0.498752 0.122300 0.605963
N2    N     N_R   0.513735 0.513098 0.145985 -0.459260
C18   C     C_R   0.619548 0.523850 0.113691 0.657546
O9    O     O_2   0.711733 0.626386 0.843124 -0.525399
O10   O     O_2   0.328948 0.416649 0.862496 -0.479782
O11   O     O_2   0.306885 0.495809 0.156503 -0.480966
O12   O     O_2   0.720177 0.542194 0.139525 -0.392434
H1    H     H_    0.809345 0.570057 0.933142 0.216753
C19   C     C_R   0.541258 0.633130 0.232953 0.448083
C20   C     C_R   0.542643 0.627061 0.292161 -0.178170
H2    H     H_    0.574620 0.714666 0.309360 0.275203
C21   C     C_R   0.506714 0.509922 0.327062 -0.043835
C22   C     C_R   0.474959 0.394912 0.299612 -0.138660
H3    H     H_    0.444919 0.302627 0.323493 0.202073
C23   C     C_R   0.479696 0.396215 0.240632 -0.150746
H4    H     H_    0.455876 0.304833 0.221102 0.188370
C24   C     C_R   0.512594 0.514776 0.206764 0.213530
C25   C     C_R   0.413831 0.544280 0.760045 -0.202645
H5    H     H_    0.333292 0.573542 0.783025 0.199726
C26   C     C_R   0.403697 0.486861 0.708489 0.302985
C27   C     C_R   0.506923 0.482998 0.671547 -0.130680
C28   C     C_R   0.616051 0.472253 0.696752 0.028924
C29   C     C_R   0.618811 0.483873 0.755607 -0.071895
H6    H     H_    0.699479 0.459738 0.775408 0.201814
C30   C     C_R   0.518174 0.525407 0.788133 0.245196
C31   C     C_3   0.059245 0.600242 0.536541 0.276961
C32   C     C_3   0.055595 0.356270 0.509430 0.230289
H7    H     H_    0.081783 0.701209 0.516338 0.143454
H8    H     H_    0.096482 0.284765 0.481475 0.179115
C33   C     C_3   0.921742 0.581690 0.541524 -0.474293
C34   C     C_3   0.921326 0.360776 0.499032 -0.413952
H9    H     H_    0.892141 0.520008 0.580641 0.241045
H10   H     H_    0.867431 0.303799 0.534706 0.217728
H11   H     H_    0.880183 0.681124 0.545967 0.177981
H12   H     H_    0.901327 0.305127 0.462064 0.250956
C35   C     C_3   0.080913 0.549714 0.429183 0.535458
C36   C     C_3   0.120186 0.500578 0.493783 -0.353583
C37   C     C_3   0.877070 0.507960 0.491532 -0.073871
C38   C     C_3   0.939046 0.582382 0.433802 0.076167
C39   C     C_3   0.612549 0.090929 0.469899 0.268922
C40   C     C_3   0.601360 0.928998 0.462074 0.245233
H13   H     H_    0.687387 0.103274 0.497010 0.081485
H14   H     H_    0.685889 0.890281 0.475700 0.099801
C41   C     C_3   0.503672 0.071079 0.560498 0.032776
C42   C     C_3   0.523470 0.908145 0.558913 0.025042
C43   C     C_3   0.402282 0.074132 0.471225 -0.019010
C44   C     C_3   0.386221 0.916062 0.487380 0.038581
N3    N     N_3   0.500250 0.143650 0.501250 -0.204221
N4    N     N_3   0.500250 0.856350 0.501250 -0.226719
H15   H     H_    0.426986 0.084836 0.424567 0.188546
H16   H     H_    0.357443 0.867349 0.450350 0.274105
H17   H     H_    0.416286 0.084702 0.583242 0.182708
H18   H     H_    0.459312 0.859125 0.592448 0.180668
C45   C     C_3   0.183821 0.509554 0.949250 -0.642943
H19   H     H_    0.197216 0.576706 0.909442 0.230210
H20   H     H_    0.143559 0.410976 0.940032 0.286364
H21   H     H_    0.122090 0.564304 0.977472 0.245959
S1    S     S_3+6 0.304627 0.343970 0.715137 0.097527
O13   O     O_2   0.312587 0.269614 0.772323 -0.229523
O14   O     O_2   0.179467 0.387753 0.711174 -0.136130
O15   O     O_3   0.340688 0.235589 0.665964 -0.526792
H22   H     H_    0.296313 0.150011 0.679292 0.369730
C46   C     C_3   0.729007 0.441119 0.663967 -0.757559
H23   H     H_    0.794099 0.525543 0.666866 0.269810
H24   H     H_    0.764263 0.345950 0.682808 0.276126
H25   H     H_    0.716398 0.427371 0.618850 0.194427
S2    S     S_3+6 0.106543 0.617391 0.607442 0.040179
O16   O     O_2   0.095414 0.763693 0.619417 -0.345353
O17   O     O_2   0.028304 0.536909 0.652541 -0.169001
O18   O     O_3   0.247026 0.573523 0.613697 -0.504544
H26   H     H_    0.277202 0.636005 0.640446 0.340306
S3    S     S_3+6 0.070505 0.271170 0.578495 0.022164
O19   O     O_2   0.187433 0.310023 0.598707 -0.182510
O20   O     O_2   0.972352 0.302047 0.621544 -0.251417
O21   O     O_3   0.063804 0.103153 0.572263 -0.569748
H27   H     H_    0.081963 0.061848 0.609879 0.393459
S4    S     S_3+6 0.165922 0.697050 0.393207 0.030472
O22   O     O_2   0.293619 0.664962 0.383301 -0.216471
O23   O     O_2   0.120490 0.728903 0.335774 -0.214723
O24   O     O_3   0.157099 0.839135 0.426885 -0.646209
H28   H     H_    0.167144 0.913574 0.396398 0.387318
S5    S     S_3+6 0.116223 0.420706 0.377409 -0.000277
O25   O     O_2   0.049018 0.287385 0.389198 -0.347340
O26   O     O_2   0.093010 0.472972 0.318130 -0.169348
O27   O     O_3   0.259854 0.390063 0.374994 -0.573243
H29   H     H_    0.264054 0.306889 0.354290 0.365077
C47   C     C_3   0.916318 0.738494 0.433731 -0.616240
H30   H     H_    0.964200 0.793704 0.463764 0.224348
H31   H     H_    0.933413 0.793063 0.391076 0.294676
H32   H     H_    0.825398 0.757085 0.447903 0.248507
C48   C     C_3   0.877075 0.540215 0.381206 -0.528842
H33   H     H_    0.781244 0.555330 0.385987 0.235714
H34   H     H_    0.911402 0.601486 0.341920 0.270575
H35   H     H_    0.887047 0.433207 0.373435 0.290223
C49   C     C_3   0.186585 0.414034 0.070565 -0.561790
H36   H     H_    0.123632 0.366497 0.043861 0.260982
H37   H     H_    0.208377 0.330952 0.101766 0.240189
H38   H     H_    0.141553 0.495780 0.092581 0.301159
S6    S     S_3+6 0.680072 0.182284 0.404544 0.037060
O28   O     O_2   0.706908 0.328633 0.405200 -0.336378
O29   O     O_2   0.799037 0.121537 0.392143 -0.233275
O30   O     O_3   0.595076 0.168229 0.350310 -0.549764
H39   H     H_    0.646612 0.201439 0.316001 0.401092
S7    S     S_3+6 0.612172 0.876348 0.388973 0.034036
O31   O     O_2   0.689739 0.953465 0.342757 -0.167518
O32   O     O_2   0.672613 0.745176 0.391407 -0.353103
O33   O     O_3   0.475752 0.862783 0.365650 -0.522994
H40   H     H_    0.462741 0.950575 0.344675 0.382791
C50   C     C_3   0.590658 0.138650 0.599545 -0.716249
H41   H     H_    0.656394 0.209653 0.575877 0.247787
H42   H     H_    0.541586 0.188497 0.633844 0.274605
H43   H     H_    0.641833 0.070786 0.626300 0.213055
C51   C     C_3   0.643965 0.861372 0.581090 -0.816355
H44   H     H_    0.668999 0.761085 0.569912 0.281673
H45   H     H_    0.720048 0.930381 0.565031 0.217693
H46   H     H_    0.637765 0.853045 0.628348 0.230982
C52   C     C_3   0.281705 0.135035 0.474693 -0.710376
H47   H     H_    0.257579 0.157693 0.518753 0.304021
H48   H     H_    0.281869 0.219810 0.443010 0.270516
H49   H     H_    0.211689 0.067515 0.461152 0.236532
C53   C     C_3   0.284531 0.881900 0.535653 -0.689945
H50   H     H_    0.276478 0.955964 0.568038 0.199131
H51   H     H_    0.196529 0.878340 0.519295 0.282546
H52   H     H_    0.298666 0.786482 0.559678 0.278291
S8    S     S_3+6 0.866471 0.472772 0.041626 0.030594
O34   O     O_2   0.846968 0.362547 0.088883 -0.188498
O35   O     O_2   0.936551 0.416069 0.992873 -0.347250
O36   O     O_3   0.942128 0.604188 0.064228 -0.470761
H53   H     H_    0.947048 0.674218 0.031948 0.340014
S9    S     S_3+6 0.573597 0.791212 0.193897 0.071813
O37   O     O_2   0.511991 0.799763 0.139750 -0.281164
O38   O     O_2   0.533315 0.903958 0.229239 -0.251088
O39   O     O_3   0.721126 0.809036 0.178399 -0.448671
H54   H     H_    0.733035 0.897481 0.155981 0.390538

loop_
_geom_bond_atom_site_label_1
_geom_bond_atom_site_label_2
_geom_bond_distance
_ccdc_geom_bond_type
C34   H12   1.102379 S    
S9    O37   1.503159 D    
C7    C10   1.412396 A    
C43   C44   1.586383 S    
C8    C9    1.404535 A    
C51   H46   1.111817 S    
C28   C46   1.493200 S    
C42   N4    1.531465 S    
S7    O33   1.682915 S    
S4    O23   1.504736 D    
C47   H30   1.094570 S    
Cu1   Cu2   2.821430 S    
S8    O35   1.500433 D    
C3    C37   1.558681 S    
C1    C36   1.592562 S    
Cu1   O7    1.939203 S    
C15   C16   1.399400 A    
S6    O28   1.474523 D    
C44   N4    1.482289 S    
C26   S1    1.770951 S    
C44   C53   1.567907 S    
C17   N2    1.365057 A    
C53   H51   1.095636 S    
C52   H49   1.103927 S    
S1    O13   1.502439 D    
O4    C2    1.340852 A    
O7    C4    1.347733 A    
C33   H9    1.095220 S    
C34   H10   1.110611 S    
C5    N1    1.375418 A    
O18   H26   0.989883 S    
C6    C7    1.409350 A    
C7    C8    1.398037 A    
C25   C26   1.394745 A    
C33   H11   1.111099 S    
O5    C3    1.347528 A    
C48   H33   1.095774 S    
S4    O22   1.490799 D    
S3    O19   1.490442 D    
N1    C6    1.378413 A    
C29   C30   1.411191 A    
O24   H28   0.990657 S    
C53   H52   1.088690 S    
C22   C23   1.391567 A    
N2    C18   1.365567 A    
O15   H22   0.991317 S    
S1    O14   1.498686 D    
C35   C38   1.641337 S    
S9    O38   1.503319 D    
C10   C11   1.415085 A    
C43   N3    1.535663 S    
S2    O16   1.503782 D    
C23   C24   1.396878 A    
O3    Cu1   1.971697 S    
C41   H17   1.103968 S    
O27   H29   0.989488 S    
C45   H20   1.109510 S    
C11   C49   1.515668 S    
C31   H7    1.091157 S    
C5    C9    1.408365 A    
C20   C21   1.405213 A    
C32   H8    1.091847 S    
C18   O12   1.346721 S    
C39   C40   1.630886 S    
C51   H44   1.085928 S    
C52   H48   1.083619 S    
C39   S6    1.834651 S    
C21   C22   1.404220 A    
C31   C33   1.554362 S    
C52   H47   1.097846 S    
C4    C27   1.494712 S    
S2    O18   1.672273 S    
C16   H1    1.083551 S    
C14   C15   1.419567 A    
C25   H5    1.081186 S    
Cu2   N3    2.117491 S    
C45   H19   1.110303 S    
O1    C1    1.353939 A    
C48   H35   1.096412 S    
C50   H43   1.096633 S    
C35   S5    1.864304 S    
C40   S7    1.839157 S    
C20   H2    1.052265 S    
C34   C37   1.556486 S    
C46   H24   1.110106 S    
C26   C27   1.405599 A    
S8    O36   1.680900 S    
Cu2   O8    1.971365 S    
C2    C21   1.508071 S    
C29   H6    1.081542 S    
C12   C17   1.415137 A    
C13   C14   1.416223 A    
S2    O17   1.498768 D    
O33   H40   0.989434 S    
C19   S9    1.772917 S    
C50   H42   1.101842 S    
C22   H3    1.071257 S    
S3    O20   1.500217 D    
C10   C45   1.512510 S    
C17   O11   1.348385 S    
C28   C29   1.408488 A    
S9    O39   1.680995 S    
N2    C24   1.438543 S    
C38   C48   1.552502 S    
C6    O10   1.345861 S    
C32   S3    1.804795 S    
S5    O27   1.657053 S    
O3    C2    1.356587 A    
C39   N3    1.542995 S    
C23   H4    1.083166 S    
S6    O30   1.673307 S    
C49   H37   1.110317 S    
S7    O31   1.496584 D    
C41   C50   1.570049 S    
C45   H21   1.108311 S    
C46   H25   1.105702 S    
O30   H39   0.991659 S    
C32   C34   1.557510 S    
S1    O15   1.675311 S    
C14   C18   1.411322 A    
Cu1   O5    2.078382 S    
C19   C20   1.399179 A    
S6    O29   1.504937 D    
C38   C47   1.574385 S    
C31   S2    1.818170 S    
O1    Cu1   2.066153 S    
O2    Cu2   2.077963 S    
N1    C30   1.462038 S    
C33   C37   1.545260 S    
C35   S4    1.841729 S    
S7    O32   1.483771 D    
O6    C3    1.353861 A    
O4    Cu2   1.939618 S    
C47   H31   1.109914 S    
C5    O9    1.348425 S    
Cu1   N4    2.121505 S    
C51   H45   1.109215 S    
C9    C16   1.395744 A    
C40   N4    1.541381 S    
C25   C30   1.408212 A    
O39   H54   0.990532 S    
C49   H38   1.108812 S    
S5    O26   1.503980 D    
O2    C1    1.365264 A    
O8    C4    1.340837 A    
C41   C42   1.638210 S    
C42   H18   1.107279 S    
S5    O25   1.502496 D    
C41   N3    1.531409 S    
C46   H23   1.108339 S    
C32   C36   1.592829 S    
C27   C28   1.414415 A    
C15   S8    1.767301 S    
C31   C36   1.596397 S    
C8    C13   1.413553 A    
C53   H50   1.099717 S    
O21   H27   0.990499 S    
C48   H34   1.109570 S    
C47   H32   1.080852 S    
C19   C24   1.407565 A    
C12   C13   1.415575 A    
C35   C36   1.666761 S    
C42   C51   1.566645 S    
S3    O21   1.681882 S    
S8    O34   1.503326 D    
Cu2   O6    2.066564 S    
C37   C38   1.604740 S    
C44   H16   1.097500 S    
O36   H53   0.990456 S    
C40   H14   1.101541 S    
C43   H15   1.114146 S    
C11   C12   1.424025 A    
C50   H41   1.099737 S    
C39   H13   1.110097 S    
C49   H36   1.105851 S    
S4    O24   1.669290 S    
C43   C52   1.504180 S    
