data_mof_unit_66085.cif
_audit_creation_date              2012-12-10T18:38:26-0500
_audit_creation_method            fapswitch 2.2
_symmetry_space_group_name_H-M    P1
_symmetry_Int_Tables_number       1
_space_group_crystal_system       triclinic
_cell_length_a                    30.173423
_cell_length_b                    31.831576
_cell_length_c                    21.334386
_cell_angle_alpha                 89.916263
_cell_angle_beta                  135.045596
_cell_angle_gamma                 90.134094
_cell_volume                      14477.7402435

loop_
_atom_site_label
_atom_site_type_symbol
_atom_type_description
_atom_site_fract_x
_atom_site_fract_y
_atom_site_fract_z
_atom_type_partial_charge
C1    C     C_R   0.378326 0.500016 0.378266 0.859486
C2    C     C_R   0.878326 0.000042 0.378267 0.859618
C3    C     C_3   0.548728 0.764066 0.514593 -0.164412
C4    C     C_3   0.549558 0.236176 0.516334 -0.164609
C5    C     C_3   0.049291 0.264071 0.516057 -0.163021
C6    C     C_3   0.050853 0.736172 0.519710 -0.163385
C7    C     C_3   0.499803 0.791076 0.499441 0.208943
C8    C     C_3   0.500232 0.208925 0.500093 0.209032
C9    C     C_3   0.999805 0.291074 0.499530 0.208238
C10   C     C_3   0.000232 0.708926 0.500173 0.208273
C11   C     C_3   0.553621 0.736120 0.578736 -0.164002
C12   C     C_3   0.553612 0.263990 0.579733 -0.164165
C13   C     C_3   0.053189 0.236112 0.579266 -0.165281
C14   C     C_3   0.052517 0.763991 0.580822 -0.165391
C15   C     C_3   0.504695 0.763921 0.563582 -0.163568
C16   C     C_3   0.504286 0.235944 0.563491 -0.163691
C17   C     C_3   0.003702 0.263908 0.562739 -0.165122
C18   C     C_3   0.001895 0.735950 0.561284 -0.165185
C19   C     C_1   0.499926 0.663416 0.499676 -0.083724
C20   C     C_1   0.500102 0.336584 0.500180 -0.083858
C21   C     C_1   0.999928 0.163415 0.499704 -0.083215
C22   C     C_1   0.000100 0.836585 0.500202 -0.083273
C23   C     C_1   0.499799 0.836593 0.499476 -0.083574
C24   C     C_1   0.500225 0.163408 0.500042 -0.083713
C25   C     C_1   0.999800 0.336591 0.499563 -0.081085
C26   C     C_1   0.000225 0.663409 0.500120 -0.081180
C27   C     C_3   0.270617 0.465609 0.300324 -0.157315
C28   C     C_3   0.270846 0.534712 0.299913 -0.157279
C29   C     C_3   0.770623 0.964547 0.297302 -0.155080
C30   C     C_3   0.770833 0.033553 0.302853 -0.157765
C31   C     C_3   0.229392 0.500266 0.288494 -0.153391
C32   C     C_3   0.729386 0.997984 0.288410 -0.151872
C33   C     C_3   0.189410 0.500088 0.188946 0.024972
C34   C     C_3   0.689410 0.000122 0.188948 0.023791
C35   C     C_3   0.229357 0.465431 0.199490 -0.171743
C36   C     C_3   0.229573 0.534534 0.199061 -0.171265
C37   C     C_3   0.729361 0.966684 0.196532 -0.171133
C38   C     C_3   0.729576 0.035689 0.202110 -0.172144
C39   C     C_R   0.500002 0.581286 0.499950 0.905953
C40   C     C_R   0.499996 0.418714 0.500027 0.905943
C41   C     C_R   0.000003 0.081286 0.499952 0.905612
C42   C     C_R   0.999996 0.918714 0.500027 0.905607
C43   C     C_3   0.270644 0.499878 0.210736 -0.173693
C44   C     C_3   0.770653 0.002239 0.210824 -0.173402
C45   C     C_3   0.310759 0.500054 0.310450 0.029793
C46   C     C_3   0.810760 0.000103 0.310452 0.028775
C47   C     C_3   0.729403 0.537201 0.749737 -0.154683
C48   C     C_3   0.729263 0.469069 0.766983 -0.161349
C49   C     C_3   0.229404 0.037139 0.750000 -0.155148
C50   C     C_3   0.229262 0.968953 0.766763 -0.161423
C51   C     C_3   0.770728 0.506497 0.829037 -0.154662
C52   C     C_3   0.270729 0.006313 0.829083 -0.154423
C53   C     C_3   0.810595 0.499813 0.810195 0.025575
C54   C     C_3   0.310595 0.999816 0.810193 0.025385
C55   C     C_3   0.770569 0.530518 0.732153 -0.167793
C56   C     C_3   0.770385 0.462392 0.749412 -0.173504
C57   C     C_3   0.270570 0.030641 0.732369 -0.168130
C58   C     C_3   0.270384 0.962461 0.749146 -0.173720
C59   C     C_3   0.729230 0.493129 0.670241 -0.172045
C60   C     C_3   0.229231 0.993318 0.670193 -0.171785
C61   C     C_3   0.689244 0.499804 0.689002 0.029198
C62   C     C_3   0.189244 0.999808 0.689000 0.029536
C63   C     C_R   0.499983 0.999988 0.378354 0.880669
C64   C     C_R   0.999990 0.499977 0.378354 0.899158
C65   C     C_R   0.499956 0.918717 0.499832 0.904345
C66   C     C_R   0.500060 0.081283 0.499934 0.904240
C67   C     C_R   0.999956 0.418717 0.499857 0.913987
C68   C     C_R   0.000060 0.581283 0.499957 0.914053
C69   C     C_R   0.621682 0.499909 0.621642 0.859714
C70   C     C_R   0.121682 0.999911 0.621642 0.859236
C71   C     C_R   0.499916 0.000072 0.621535 0.857175
C72   C     C_R   0.999916 0.500074 0.621535 0.857340
C73   C     C_R   0.999844 0.499973 0.121541 0.887294
C74   C     C_R   0.499901 0.999974 0.121608 0.888139
C75   C     C_R   0.121891 0.500032 0.121574 0.865776
C76   C     C_R   0.621892 0.000038 0.121576 0.865456
C77   C     C_R   0.999709 0.500039 0.877755 0.864848
C78   C     C_R   0.499708 0.000039 0.877753 0.865130
C79   C     C_R   0.878120 0.499951 0.877841 0.865236
C80   C     C_R   0.378120 0.999951 0.877840 0.866524
C81   C     C_3   0.529100 0.033589 0.298907 0.128989
C82   C     C_3   0.528544 0.966167 0.298528 0.128720
C83   C     C_3   0.028640 0.533781 0.298391 0.128124
C84   C     C_3   0.029231 0.466384 0.299145 0.127630
C85   C     C_3   0.060262 0.500243 0.289045 -0.264148
C86   C     C_3   0.560165 0.999793 0.289125 -0.167341
C87   C     C_3   0.999982 0.499925 0.188923 -0.028382
C88   C     C_3   0.499946 0.999931 0.188917 -0.029854
C89   C     C_3   0.969426 0.534550 0.198258 -0.163225
C90   C     C_3   0.970038 0.464992 0.199030 -0.162806
C91   C     C_3   0.469936 0.034806 0.198734 -0.213598
C92   C     C_3   0.469360 0.965223 0.198329 -0.212954
C93   C     C_3   0.439841 0.000095 0.210118 -0.222197
C94   C     C_3   0.939918 0.499622 0.210206 -0.227835
C95   C     C_3   0.446057 0.763893 0.420257 -0.166009
C96   C     C_3   0.446784 0.236001 0.420530 -0.165848
C97   C     C_3   0.946494 0.263898 0.419872 -0.163684
C98   C     C_3   0.947878 0.736003 0.419568 -0.163343
C99   C     C_3   0.499565 0.999960 0.310609 -0.002888
C100  C     C_3   0.999605 0.499937 0.310629 -0.001243
C101  C     C_3   0.521930 0.963193 0.751251 -0.155277
C102  C     C_3   0.536318 0.031636 0.765529 -0.160693
C103  C     C_3   0.021814 0.463164 0.751134 -0.155317
C104  C     C_3   0.036418 0.531586 0.765629 -0.161021
C105  C     C_3   0.058551 0.494564 0.829187 -0.154515
C106  C     C_3   0.558568 0.994646 0.829205 -0.154347
C107  C     C_3   0.999555 0.500150 0.810064 0.025510
C108  C     C_3   0.499554 0.000149 0.810063 0.025267
C109  C     C_3   0.962780 0.468748 0.733262 -0.168346
C110  C     C_3   0.977435 0.537166 0.747769 -0.173368
C111  C     C_3   0.462878 0.968695 0.733360 -0.168483
C112  C     C_3   0.477317 0.037133 0.747651 -0.173346
C113  C     C_3   0.440643 0.005651 0.669827 -0.171738
C114  C     C_3   0.940661 0.505737 0.669845 -0.172018
C115  C     C_3   0.499695 0.000157 0.688888 0.029866
C116  C     C_3   0.999695 0.500159 0.688888 0.030156
C117  C     C_3   0.450951 0.735946 0.484402 -0.164241
C118  C     C_3   0.450837 0.263811 0.483927 -0.164311
C119  C     C_3   0.950392 0.235938 0.483083 -0.164693
C120  C     C_3   0.949541 0.763819 0.480678 -0.164758
C121  C     C_1   0.499965 0.625849 0.499803 -0.192614
C122  C     C_1   0.500047 0.374151 0.500140 -0.192293
C123  C     C_1   0.999967 0.125848 0.499812 -0.192088
C124  C     C_1   0.000046 0.874152 0.500145 -0.191867
C125  C     C_1   0.499843 0.874159 0.499602 -0.190773
C126  C     C_1   0.500170 0.125842 0.499997 -0.190564
C127  C     C_1   0.999844 0.374157 0.499667 -0.185490
C128  C     C_1   0.000171 0.625843 0.500055 -0.185290
C129  C     C_3   0.494984 0.736088 0.435410 -0.166193
C130  C     C_3   0.496108 0.264046 0.436771 -0.166093
C131  C     C_3   0.995981 0.236099 0.436400 -0.164296
C132  C     C_3   0.998498 0.764042 0.439105 -0.164175
C133  C     C_3   0.499876 0.708935 0.499555 0.209215
C134  C     C_3   0.500162 0.291066 0.500170 0.209297
C135  C     C_3   0.999879 0.208933 0.499610 0.208357
C136  C     C_3   0.000161 0.791067 0.500216 0.208395
H1    H     H_    0.410857 0.723647 0.472020 0.130329
H2    H     H_    0.410356 0.275910 0.470638 0.130264
H3    H     H_    0.909838 0.223633 0.469559 0.130912
H4    H     H_    0.907997 0.775924 0.464670 0.130857
H5    H     H_    0.288950 0.499714 0.180340 0.146566
H6    H     H_    0.788968 0.003988 0.180506 0.146929
H7    H     H_    0.789684 0.511927 0.895795 0.123236
H8    H     H_    0.289685 0.011592 0.895879 0.123814
H9    H     H_    0.710729 0.567700 0.747889 0.126680
H10   H     H_    0.710516 0.444005 0.779276 0.133262
H11   H     H_    0.210732 0.067584 0.748369 0.126545
H12   H     H_    0.210512 0.943791 0.778877 0.132962
H13   H     H_    0.789267 0.555567 0.719752 0.136038
H14   H     H_    0.788766 0.431844 0.750842 0.142616
H15   H     H_    0.289267 0.055789 0.720142 0.136023
H16   H     H_    0.288768 0.931968 0.750362 0.142351
H17   H     H_    0.710782 0.487631 0.603815 0.145916
H18   H     H_    0.210785 0.987973 0.603729 0.145973
H19   H     H_    0.109115 0.500492 0.319907 0.125241
H20   H     H_    0.609009 0.999666 0.319954 0.123004
H21   H     H_    0.945576 0.562990 0.156006 0.144423
H22   H     H_    0.946695 0.436302 0.157422 0.144921
H23   H     H_    0.446569 0.063430 0.156980 0.145805
H24   H     H_    0.445533 0.936709 0.156248 0.145872
H25   H     H_    0.391010 0.000222 0.179320 0.160078
H26   H     H_    0.891081 0.499370 0.179390 0.158298
H27   H     H_    0.106605 0.490025 0.896148 0.122006
H28   H     H_    0.606636 0.990174 0.896180 0.122223
H29   H     H_    0.401953 0.776051 0.355273 0.131407
H30   H     H_    0.402982 0.223755 0.355247 0.131393
H31   H     H_    0.902744 0.276060 0.354514 0.132618
H32   H     H_    0.904974 0.723758 0.353444 0.132714
H33   H     H_    0.540110 0.933041 0.750775 0.126912
H34   H     H_    0.566267 0.057312 0.776767 0.132435
H35   H     H_    0.039899 0.432986 0.750562 0.126500
H36   H     H_    0.066447 0.557220 0.776948 0.132124
H37   H     H_    0.932686 0.443125 0.721810 0.136465
H38   H     H_    0.959226 0.567385 0.747946 0.141816
H39   H     H_    0.432864 0.943029 0.721987 0.136514
H40   H     H_    0.459012 0.067326 0.747733 0.141768
H41   H     H_    0.392393 0.010180 0.603179 0.146060
H42   H     H_    0.892427 0.510334 0.603212 0.145901
H43   H     H_    0.508677 0.776104 0.616138 0.129855
H44   H     H_    0.507642 0.223649 0.615453 0.129774
H45   H     H_    0.006868 0.276080 0.614542 0.129978
H46   H     H_    0.003292 0.723661 0.611385 0.129948
H47   H     H_    0.597728 0.723965 0.643720 0.130492
H48   H     H_    0.597415 0.276236 0.645014 0.130375
H49   H     H_    0.096940 0.223951 0.644625 0.130342
H50   H     H_    0.095422 0.776237 0.646943 0.130298
H51   H     H_    0.588818 0.776369 0.526966 0.132696
H52   H     H_    0.590034 0.224074 0.529614 0.132546
H53   H     H_    0.089842 0.276378 0.529574 0.132580
H54   H     H_    0.092393 0.724065 0.535710 0.132414
H55   H     H_    0.491003 0.723906 0.382855 0.131947
H56   H     H_    0.492752 0.276338 0.384807 0.131900
H57   H     H_    0.992816 0.223928 0.384596 0.132737
H58   H     H_    0.997101 0.776328 0.389002 0.132748
H59   H     H_    0.210520 0.500427 0.318113 0.117529
H60   H     H_    0.710510 0.996260 0.317961 0.120957
H61   H     H_    0.289287 0.437503 0.343534 0.129141
H62   H     H_    0.289710 0.562961 0.342797 0.129012
H63   H     H_    0.789306 0.935539 0.338045 0.129160
H64   H     H_    0.789677 0.060820 0.348131 0.131486
H65   H     H_    0.210676 0.437168 0.156680 0.140288
H66   H     H_    0.211059 0.562649 0.155909 0.140251
H67   H     H_    0.710652 0.939415 0.151295 0.139327
H68   H     H_    0.711095 0.064718 0.161456 0.141722
O1    O     O_R   0.406950 0.500000 0.354430 -0.629439
O2    O     O_R   0.906950 0.000000 0.354430 -0.629427
O3    O     O_R   0.552530 0.938390 0.552510 -0.615142
O4    O     O_R   0.552530 0.061610 0.552510 -0.615778
O5    O     O_R   0.052530 0.438390 0.552510 -0.618859
O6    O     O_R   0.052530 0.561610 0.552510 -0.619498
O7    O     O_R   0.447440 0.000000 0.540340 -0.629566
O8    O     O_R   0.947440 0.500000 0.540340 -0.630321
O9    O     O_R   0.552480 0.000000 0.645470 -0.627068
O10   O     O_R   0.052480 0.500000 0.645470 -0.626613
O11   O     O_R   0.000050 0.534770 0.093010 -0.628657
O12   O     O_R   0.000050 0.465230 0.093010 -0.628451
O13   O     O_R   0.500050 0.034770 0.093010 -0.628909
O14   O     O_R   0.500050 0.965230 0.093010 -0.628703
O15   O     O_R   0.093030 0.534780 0.092960 -0.627583
O16   O     O_R   0.093030 0.465220 0.092960 -0.627885
O17   O     O_R   0.593030 0.034780 0.092960 -0.628071
O18   O     O_R   0.593030 0.965220 0.092960 -0.627614
O19   O     O_R   0.999950 0.534800 0.906860 -0.630141
O20   O     O_R   0.999950 0.465200 0.906860 -0.628157
O21   O     O_R   0.499950 0.034800 0.906860 -0.630069
O22   O     O_R   0.499950 0.965200 0.906860 -0.628224
O23   O     O_R   0.906980 0.534790 0.906910 -0.628283
O24   O     O_R   0.906980 0.465210 0.906910 -0.630535
O25   O     O_R   0.406980 0.034790 0.906910 -0.628289
O26   O     O_R   0.406980 0.965210 0.906910 -0.630460
O27   O     O_R   0.407010 0.500000 0.459520 -0.625872
O28   O     O_R   0.907010 0.000000 0.459520 -0.624814
O29   O     O_R   0.499970 0.561610 0.447450 -0.617263
O30   O     O_R   0.499970 0.438390 0.447450 -0.617783
O31   O     O_R   0.999970 0.061610 0.447450 -0.617366
O32   O     O_R   0.999970 0.938390 0.447450 -0.617667
O33   O     O_R   0.500030 0.561620 0.552540 -0.618657
O34   O     O_R   0.500030 0.438380 0.552540 -0.619283
O35   O     O_R   0.000030 0.061620 0.552540 -0.618401
O36   O     O_R   0.000030 0.938380 0.552540 -0.618807
O37   O     O_R   0.593000 0.500000 0.540480 -0.629361
O38   O     O_R   0.093000 1.000000 0.540480 -0.629401
O39   O     O_R   0.593060 0.500000 0.645570 -0.625679
O40   O     O_R   0.093060 0.000000 0.645570 -0.625741
O41   O     O_R   0.447530 0.000000 0.354370 -0.639321
O42   O     O_R   0.947530 0.500000 0.354370 -0.629664
O43   O     O_R   0.552560 0.000000 0.459510 -0.598848
O44   O     O_R   0.052560 0.500000 0.459510 -0.633416
O45   O     O_R   0.447490 0.938400 0.447370 -0.619447
O46   O     O_R   0.447490 0.061600 0.447370 -0.619791
O47   O     O_R   0.947490 0.438400 0.447370 -0.618207
O48   O     O_R   0.947490 0.561600 0.447370 -0.618456
Zn1   Zn    Zn3+2 0.499970 0.500000 0.429830 0.941823
Zn2   Zn    Zn3+2 0.999970 1.000000 0.429830 0.942583
Zn3   Zn    Zn3+2 0.500040 0.500000 0.570170 0.944983
Zn4   Zn    Zn3+2 0.000040 0.000000 0.570170 0.947509
Zn5   Zn    Zn3+2 0.429870 0.000000 0.429720 0.940261
Zn6   Zn    Zn3+2 0.929870 0.500000 0.429720 0.946304
Zn7   Zn    Zn3+2 0.570140 0.000000 0.570120 0.965912
Zn8   Zn    Zn3+2 0.070140 0.500000 0.570120 0.942782
Zn9   Zn    Zn3+2 0.000000 0.546450 0.999940 0.933726
Zn10  Zn    Zn3+2 0.000000 0.453550 0.999940 0.933492
Zn11  Zn    Zn3+2 0.500000 0.046450 0.999940 0.932508
Zn12  Zn    Zn3+2 0.500000 0.953550 0.999940 0.932746
N1    N     N_3   0.561378 0.070527 0.355343 -0.451435
H69   H     H_    0.574646 0.088764 0.330059 0.180865
H70   H     H_    0.528607 0.088079 0.347778 0.170197
N2    N     N_3   0.560213 0.929085 0.354558 -0.451604
H71   H     H_    0.573178 0.910764 0.329071 0.180857
H72   H     H_    0.527155 0.911708 0.346803 0.170238
N3    N     N_3   0.059547 0.571279 0.353316 -0.467560
H73   H     H_    0.075035 0.588594 0.330135 0.182197
H74   H     H_    0.099616 0.561525 0.417567 0.188253
N4    N     N_3   0.060800 0.429215 0.354905 -0.467347
H75   H     H_    0.076559 0.412046 0.332072 0.181950
H76   H     H_    0.100717 0.439387 0.418918 0.188657

loop_
_geom_bond_atom_site_label_1
_geom_bond_atom_site_label_2
_ccdc_geom_bond_type
C78   O22   A    
C113  H41   S    
C55   C59   S    
C32   H60   S    
C117  C133  S    
C59   H17   S    
O48   Zn6   S    
C52   H8    S    
C84   N4    S    
C33   C35   S    
C86   C88   S    
C58   C60   S    
N3    H73   S    
C33   C36   S    
O39   Zn3   S    
C30   C38   S    
C60   C62   S    
N4    H75   S    
C85   H19   S    
C89   C94   S    
C69   O37   A    
C86   H20   S    
C104  C116  S    
C11   C15   S    
C77   O19   A    
C12   C16   S    
C29   H63   S    
C50   C52   S    
C4    C12   S    
C68   C128  S    
C5    C13   S    
C81   C86   S    
C7    C15   S    
C8    C16   S    
C38   H68   S    
C130  C134  S    
C83   C89   S    
C104  C105  S    
C130  H56   S    
O36   Zn4   S    
C27   C31   S    
C84   C100  S    
C97   C131  S    
C6    C132  S    
C39   O29   A    
C42   O36   A    
C35   H65   S    
C4    C130  S    
C81   C99   S    
C27   C35   S    
C32   C34   S    
C21   C123  T    
C6    C10   S    
C16   C118  S    
C1    O27   A    
C75   O15   A    
C111  C113  S    
C98   C120  S    
C129  C133  S    
N2    H72   S    
O7    Zn5   S    
C71   O7    A    
C83   C100  S    
C87   C89   S    
C101  C115  S    
C107  C110  S    
C101  C111  S    
C63   O43   A    
C104  C110  S    
C49   C62   S    
C3    C129  S    
O31   Zn2   S    
C80   O26   A    
C3    H51   S    
C56   C59   S    
C89   H21   S    
C51   H7    S    
C40   C122  S    
C108  C111  S    
C92   H24   S    
C4    H52   S    
C37   C44   S    
C103  C116  S    
C5    H53   S    
C31   H59   S    
C10   C18   S    
C67   O5    A    
C109  H37   S    
C3    C11   S    
C64   O42   A    
O40   Zn4   S    
C20   C134  S    
C118  H2    S    
C21   C135  S    
C98   H32   S    
C113  C115  S    
C102  H34   S    
C30   H64   S    
C66   O46   A    
C15   H43   S    
C53   C55   S    
C68   O6    A    
C95   C117  S    
C105  C107  S    
C62   C70   S    
C78   C108  S    
O47   Zn6   S    
C49   C57   S    
C40   O34   A    
C33   C75   S    
C114  H42   S    
C73   O12   A    
C120  H4    S    
C35   C43   S    
C110  C114  S    
C20   C122  T    
C118  C134  S    
C2    O28   A    
C12   C134  S    
C81   N1    S    
C13   C135  S    
C131  H57   S    
C84   C90   S    
C55   H13   S    
C110  H38   S    
C63   O41   A    
O26   Zn12  S    
C59   C61   S    
O20   Zn10  S    
O15   Zn9   S    
C41   O31   A    
C66   C126  S    
C51   C53   S    
C97   C119  S    
C5    C9    S    
C6    C14   S    
C43   C45   S    
C64   O44   A    
C88   C91   S    
C94   C100  S    
C132  C136  S    
O3    Zn7   S    
C74   O14   A    
C103  C105  S    
N1    H70   S    
C109  C114  S    
C112  H40   S    
O37   Zn1   S    
O21   Zn11  S    
C56   H14   S    
C79   O24   A    
C39   O33   A    
O1    Zn1   S    
C53   C56   S    
C50   H12   S    
C101  C106  S    
C19   C121  T    
C30   C46   S    
C114  C116  S    
C65   O3    A    
C76   O17   A    
C13   C17   S    
O34   Zn3   S    
C64   C100  S    
O12   Zn10  S    
C68   O48   A    
C106  C108  S    
C7    C23   S    
C129  H55   S    
O8    Zn6   S    
C8    C24   S    
N4    H76   S    
C60   H18   S    
C17   H45   S    
C98   C132  S    
C82   N2    S    
O32   Zn2   S    
C16   H44   S    
C34   C76   S    
C54   C57   S    
C72   O10   A    
C47   H9    S    
O13   Zn11  S    
C34   C37   S    
C82   C99   S    
C102  C112  S    
C27   H61   S    
C9    C25   S    
C29   C32   S    
C3    C7    S    
O6    Zn8   S    
C82   C92   S    
C48   C56   S    
C14   C18   S    
C73   C87   S    
C102  C115  S    
O44   Zn8   S    
C58   H16   S    
O28   Zn4   S    
C105  H27   S    
C101  H33   S    
C106  H28   S    
O41   Zn5   S    
C93   C99   S    
O46   Zn5   S    
C91   H23   S    
C104  H36   S    
C27   C45   S    
C78   O21   A    
O4    Zn7   S    
C107  C109  S    
C95   H29   S    
O24   Zn10  S    
C90   C94   S    
C54   C80   S    
O25   Zn11  S    
C50   C58   S    
C13   H49   S    
C84   C85   S    
C40   O30   A    
C69   O39   A    
C57   C60   S    
C47   C51   S    
C82   C86   S    
C119  C135  S    
C15   C117  S    
C22   C136  S    
C120  C136  S    
C38   C44   S    
C91   C93   S    
C66   O4    A    
C77   O20   A    
O18   Zn12  S    
C49   C52   S    
C83   N3    S    
C24   C126  T    
C83   C85   S    
C43   H5    S    
O22   Zn12  S    
O19   Zn9   S    
O23   Zn9   S    
C96   C130  S    
C41   O35   A    
C9    C97   S    
O33   Zn3   S    
C28   C31   S    
O16   Zn10  S    
O45   Zn5   S    
O17   Zn11  S    
C47   C61   S    
C19   C133  S    
C72   C116  S    
C39   C121  S    
C29   C46   S    
C103  C109  S    
C119  H3    S    
C25   C127  T    
C71   O9    A    
O27   Zn3   S    
C12   H48   S    
C14   C136  S    
C75   O16   A    
C92   C93   S    
C28   H62   S    
C17   C119  S    
C81   C91   S    
C108  C112  S    
C5    C131  S    
N2    H71   S    
C28   C36   S    
C44   H6    S    
C87   C90   S    
C29   C37   S    
O35   Zn4   S    
C95   C129  S    
C73   O11   A    
C36   C43   S    
C74   C88   S    
C65   O45   A    
O14   Zn12  S    
O11   Zn9   S    
C8    C96   S    
C80   O25   A    
C4    C8    S    
C1    C45   S    
C42   C124  S    
C2    C46   S    
C111  H39   S    
C96   C118  S    
C53   C79   S    
C131  C135  S    
C11   C133  S    
C14   H50   S    
C18   H46   S    
C57   H15   S    
C49   H11   S    
C10   C98   S    
C70   O40   A    
C42   O32   A    
C48   C51   S    
C88   C92   S    
C48   H10   S    
C63   C99   S    
C31   C33   S    
C93   H25   S    
C1    O1    A    
N1    H69   S    
C94   H26   S    
O29   Zn1   S    
C23   C125  T    
C10   C26   S    
C103  H35   S    
O9    Zn7   S    
C132  H58   S    
O10   Zn8   S    
C36   H66   S    
C79   O23   A    
C112  C113  S    
C52   C54   S    
C85   C87   S    
C28   C45   S    
C77   C107  S    
C11   H47   S    
O5    Zn8   S    
C76   O18   A    
C97   H31   S    
C65   C125  S    
C90   H22   S    
O42   Zn6   S    
C67   C127  S    
C6    H54   S    
C37   H67   S    
C71   C115  S    
C26   C128  T    
O30   Zn1   S    
C2    O2    A    
C9    C17   S    
C50   C62   S    
C96   H30   S    
O2    Zn2   S    
C18   C120  S    
C47   C55   S    
C54   C58   S    
C61   C69   S    
N3    H74   S    
C34   C38   S    
C117  H1    S    
O43   Zn7   S    
C22   C124  T    
C7    C95   S    
C41   C123  S    
C70   O38   A    
C30   C32   S    
C48   C61   S    
C72   O8    A    
C74   O13   A    
C102  C106  S    
O38   Zn2   S    
C44   C46   S    
C67   O47   A    
