data_mof_unit_51379.cif
_audit_creation_date              2012-10-26T19:29:02-0400
_audit_creation_method            fapswitch 2.2
_symmetry_space_group_name_H-M    P1
_symmetry_Int_Tables_number       1
_space_group_crystal_system       triclinic
_cell_length_a                    9.924936
_cell_length_b                    10.964293
_cell_length_c                    17.163975
_cell_angle_alpha                 85.451189
_cell_angle_beta                  85.84345
_cell_angle_gamma                 91.019375
_cell_volume                      1856.48105898

loop_
_atom_site_label
_atom_site_type_symbol
_atom_type_description
_atom_site_fract_x
_atom_site_fract_y
_atom_site_fract_z
_atom_type_partial_charge
Br1   Br    Br    0.851233 0.305692 0.394169 -0.360863
Br2   Br    Br    0.152455 0.251730 0.433333 -0.365074
Br3   Br    Br    0.823568 0.670794 0.625139 -0.343328
Br4   Br    Br    0.101327 0.427621 0.669651 -0.476779
Br5   Br    Br    0.147344 0.685944 0.610615 -0.388535
C1    C     C_R   0.501162 0.739212 0.500425 0.583928
C2    C     C_R   0.534248 0.472669 0.268697 0.055426
C3    C     C_3   0.361748 0.929178 0.499694 -0.217190
C4    C     C_R   0.481938 0.498803 0.649264 0.576634
C5    C     C_3   0.362510 0.068508 0.497390 -0.232492
C6    C     C_3   0.557608 0.913375 0.581248 -0.166626
C7    C     C_3   0.585941 0.946220 0.431794 -0.243849
C8    C     C_3   0.503536 0.878318 0.503506 -0.066032
C9    C     C_3   0.502830 0.121175 0.510918 -0.010070
C10   C     C_3   0.549515 0.054545 0.591051 0.406220
C11   C     C_3   0.594843 0.084383 0.439952 -0.274466
C12   C     C_R   0.360050 0.520526 0.780306 -0.069323
C13   C     C_3   0.913163 0.375949 0.488472 0.086373
C14   C     C_3   0.073588 0.371477 0.496425 0.121651
C15   C     C_3   0.925405 0.581638 0.430327 0.190541
C16   C     C_R   0.499362 0.260836 0.506125 0.580750
C17   C     C_3   0.909641 0.536275 0.573269 0.140756
C18   C     C_3   0.090414 0.570243 0.420531 0.371776
C19   C     C_3   0.071404 0.537469 0.574447 0.288522
C20   C     C_R   0.519021 0.493135 0.351737 0.574453
C21   C     C_R   0.474506 0.486105 0.735218 0.056512
C22   C     C_R   0.582670 0.433681 0.772952 -0.048158
C23   C     C_R   0.462055 0.370994 0.158392 -0.085136
C24   C     C_R   0.574560 0.410588 0.853636 -0.073206
C25   C     C_R   0.460098 0.444553 0.898891 0.038592
C26   C     C_R   0.352440 0.498945 0.861758 -0.079969
C27   C     C_R   0.451251 0.386177 0.238308 -0.079952
C28   C     C_R   0.638196 0.533453 0.220246 -0.077842
C29   C     C_R   0.650715 0.516803 0.140728 -0.085626
C30   C     C_R   0.559431 0.439413 0.108971 0.039280
C31   C     C_2   0.453772 0.428768 0.984929 -0.111665
C32   C     C_2   0.565795 0.435658 0.023787 -0.117608
Cu1   Cu    Cu3+1 0.357600 0.500140 0.499960 1.166421
Cu2   Cu    Cu3+1 0.642400 0.499860 0.500040 1.118774
H1    H     H_    0.673735 0.409012 0.740301 0.168780
H2    H     H_    0.566810 0.134217 0.384532 0.137364
H3    H     H_    0.376406 0.332599 0.276177 0.172917
H4    H     H_    0.700400 0.109878 0.446064 0.249913
H5    H     H_    0.663166 0.882328 0.581797 0.227375
H6    H     H_    0.866777 0.312574 0.536014 0.205727
H7    H     H_    0.087447 0.313557 0.550473 0.176543
H8    H     H_    0.884571 0.542458 0.380186 0.218525
H9    H     H_    0.708162 0.595495 0.243279 0.175054
H10   H     H_    0.868410 0.464456 0.618352 0.149742
H11   H     H_    0.663435 0.455083 0.992048 0.131849
H12   H     H_    0.728470 0.567908 0.103490 0.138177
H13   H     H_    0.263904 0.527032 0.895883 0.138778
H14   H     H_    0.394269 0.306725 0.135300 0.129464
H15   H     H_    0.277870 0.565931 0.753023 0.204880
H16   H     H_    0.354903 0.423862 0.016831 0.139050
H17   H     H_    0.658119 0.365709 0.880159 0.132735
H18   H     H_    0.223824 0.025036 0.713323 0.400118
H19   H     H_    0.790349 0.256886 0.674294 0.350875
H20   H     H_    0.113255 0.363450 0.239962 0.366060
H21   H     H_    0.705439 0.772891 0.317352 0.341741
H22   H     H_    0.066698 0.794752 0.487903 0.394295
H23   H     H_    0.291631 0.889091 0.548165 0.249553
H24   H     H_    0.329815 0.907172 0.442697 0.245846
H25   H     H_    0.341194 0.100436 0.436847 0.187158
H26   H     H_    0.282240 0.098997 0.539347 0.245426
H27   H     H_    0.501421 0.859371 0.631305 0.167343
H28   H     H_    0.688576 0.917606 0.423202 0.257244
H29   H     H_    0.538850 0.928957 0.376640 0.154720
N1    N     N_3   0.856560 0.499750 0.498270 -0.347370
N2    N     N_3   0.143860 0.496700 0.498910 -0.301033
O1    O     O_R   0.379740 0.682430 0.499960 -0.447506
O2    O     O_2   0.392801 0.212746 0.670979 -0.262791
O3    O     O_3   0.287477 0.994301 0.672646 -0.547770
O4    O     O_2   0.748896 0.021201 0.689484 -0.205584
O5    O     O_2   0.823756 0.091741 0.555794 -0.277409
O6    O     O_3   0.708152 0.246720 0.645749 -0.525782
O7    O     O_2   0.017452 0.573273 0.268160 -0.273835
O8    O     O_2   0.251241 0.549410 0.278089 -0.232329
O9    O     O_3   0.095431 0.363217 0.297542 -0.445458
O10   O     O_2   0.837598 0.799853 0.478626 -0.260185
O11   O     O_2   0.924758 0.821001 0.345856 -0.193262
O12   O     O_R   0.620260 0.682190 0.500020 -0.385853
O13   O     O_3   0.703180 0.716768 0.365631 -0.543261
O14   O     O_2   0.324126 0.721263 0.374007 -0.256160
O15   O     O_2   0.141734 0.765526 0.306387 -0.115215
O16   O     O_3   0.122905 0.834641 0.443964 -0.487148
O17   O     O_R   0.365800 0.500150 0.613560 -0.442762
O18   O     O_R   0.606310 0.499910 0.613620 -0.494008
O19   O     O_R   0.379740 0.317810 0.499980 -0.481135
O20   O     O_R   0.620260 0.317570 0.500040 -0.461739
O21   O     O_R   0.393690 0.500090 0.386380 -0.417091
O22   O     O_R   0.634200 0.499850 0.386440 -0.467198
O23   O     O_2   0.490337 0.046581 0.749961 -0.196315
S1    S     S_3+6 0.429350 0.080159 0.673739 0.048265
S2    S     S_3+6 0.713878 0.102780 0.619532 0.057388
S3    S     S_3+6 0.117208 0.508548 0.318207 0.090637
S4    S     S_3+6 0.851667 0.733215 0.405930 0.055350
S5    S     S_3+6 0.174117 0.722940 0.388183 0.136491

loop_
_geom_bond_atom_site_label_1
_geom_bond_atom_site_label_2
_ccdc_geom_bond_type
Cu1   N2    S    
C3    C8    S    
C1    O12   A    
O10   S4    D    
C22   C24   A    
C26   H13   S    
C10   S1    S    
C14   H7    S    
O5    S2    D    
C16   O19   A    
C7    H29   S    
Cu1   O19   S    
C21   C22   A    
O23   S1    D    
C12   C21   A    
O3    S1    S    
C9    C16   S    
C31   C32   D    
C30   C32   S    
C29   C30   A    
O6    S2    S    
C10   S2    S    
C25   C26   A    
Br4   C19   S    
H21   O13   S    
C18   S3    S    
C13   C14   S    
H18   O3    S    
Br1   C13   S    
O15   S5    D    
C6    C10   S    
C15   S4    S    
C7    C11   S    
C23   C30   A    
O8    S3    D    
C17   N1    S    
C6    H27   S    
O2    S1    D    
C13   N1    S    
C2    C28   A    
C18   N2    S    
Cu2   O18   S    
C4    C21   S    
C16   O20   A    
Cu2   N1    S    
C1    O1    A    
C7    H28   S    
C20   O21   A    
C19   N2    S    
C23   C27   A    
C5    C9    S    
H20   O9    S    
Cu1   O21   S    
C24   C25   A    
C15   C18   S    
C22   H1    S    
C28   C29   A    
C29   H12   S    
C6    H5    S    
C11   H4    S    
C17   H10   S    
C12   C26   A    
C17   C19   S    
C15   N1    S    
C13   H6    S    
Cu2   O22   S    
C5    H26   S    
Cu1   O1    S    
C20   O22   A    
C2    C27   A    
Cu2   O20   S    
Br2   C14   S    
H19   O6    S    
O4    S2    D    
C5    H25   S    
Cu2   O12   S    
Br3   C17   S    
C23   H14   S    
C24   H17   S    
O7    S3    D    
C2    C20   S    
C25   C31   S    
Cu1   O17   S    
O14   S5    D    
O9    S3    S    
C4    O18   A    
C31   H16   S    
C4    O17   A    
C1    C8    S    
C32   H11   S    
C6    C8    S    
Cu1   Cu2   S    
Br5   C19   S    
O11   S4    D    
C12   H15   S    
C9    C11   S    
O16   S5    S    
C15   H8    S    
H22   O16   S    
C3    H24   S    
C18   S5    S    
C7    C8    S    
C3    C5    S    
O13   S4    S    
C28   H9    S    
C27   H3    S    
C9    C10   S    
C14   N2    S    
C11   H2    S    
C3    H23   S    
