data_mof_unit_14797.cif
_audit_creation_date              2013-03-05T15:55:52-0500
_audit_creation_method            fapswitch 2.2
_symmetry_space_group_name_H-M    P1
_symmetry_Int_Tables_number       1
_space_group_crystal_system       triclinic
_cell_length_a                    12.382534
_cell_length_b                    13.187697
_cell_length_c                    15.839423
_cell_angle_alpha                 77.322887
_cell_angle_beta                  100.875871
_cell_angle_gamma                 116.81917
_cell_volume                      2240.06536891

loop_
_atom_site_label
_atom_site_type_symbol
_atom_site_description
_atom_site_fract_x
_atom_site_fract_y
_atom_site_fract_z
_atom_type_partial_charge
O1    O     O_R   0.972510 0.318130 0.524770 -0.583464
O2    O     O_R   0.806530 0.359650 0.491510 -0.606241
C1    C     C_R   0.854958 0.286607 0.507344 0.754835
O3    O     O_R   0.082970 0.479240 0.637550 -0.583148
O4    O     O_R   0.916990 0.520750 0.604290 -0.592587
C2    C     C_R   0.999447 0.499765 0.659812 0.808657
Cu1   Cu    Cu3+1 0.098270 0.475420 0.519690 1.001343
Cu2   Cu    Cu3+1 0.901730 0.524580 0.480310 0.928399
O5    O     O_R   0.193470 0.640350 0.508490 -0.543939
O6    O     O_R   0.027490 0.681870 0.475230 -0.598639
O7    O     O_R   0.083010 0.479250 0.395710 -0.500051
O8    O     O_R   0.917030 0.520760 0.362450 -0.604495
C3    C     C_R   0.145057 0.713451 0.487401 0.818122
C4    C     C_R   0.000507 0.500149 0.340211 0.835081
C5    C     C_3   0.959091 0.392015 0.041691 -0.210177
C6    C     C_3   0.887257 0.440954 0.966468 -0.127385
H1    H     H_    0.793232 0.391745 0.937659 0.142906
H2    H     H_    0.923548 0.302568 0.076972 0.156955
H3    H     H_    0.872621 0.589866 0.017981 0.159018
C7    C     C_1   0.999034 0.500173 0.749441 -0.172149
C8    C     C_1   0.001408 0.500155 0.250620 -0.103889
C9    C     C_3   0.072940 0.451708 0.990425 -0.204896
C10   C     C_3   0.001028 0.500975 0.916919 0.131416
C11   C     C_3   0.113611 0.559490 0.032352 0.393304
C12   C     C_3   0.002648 0.500946 0.083308 0.079561
C13   C     C_3   0.044850 0.610405 0.957849 -0.212918
C14   C     C_3   0.931114 0.550046 0.009243 -0.214143
C15   C     C_1   0.999573 0.500533 0.825081 -0.033092
C16   C     C_1   0.002039 0.500387 0.175064 0.022975
H4    H     H_    0.081522 0.700059 0.922997 0.156598
H5    H     H_    0.132432 0.412797 0.981965 0.157974
C17   C     C_R   0.278209 0.023468 0.384363 -0.172737
H6    H     H_    0.097206 0.888863 0.387171 0.148883
H7    H     H_    0.460686 0.221175 0.331274 0.161042
H8    H     H_    0.248595 0.082835 0.339110 0.145631
C18   C     C_R   0.228549 0.835113 0.469531 -0.040141
C19   C     C_R   0.813786 0.083678 0.562686 -0.184313
C20   C     C_R   0.734455 0.968275 0.579187 -0.145864
C21   C     C_R   0.611833 0.931190 0.548992 -0.175422
C22   C     C_R   0.566383 0.009139 0.498142 0.081777
C23   C     C_R   0.650520 0.124120 0.472613 0.079290
C24   C     C_R   0.440440 0.976484 0.470879 0.075103
C25   C     C_R   0.402165 0.054801 0.411872 0.158419
C26   C     C_R   0.488123 0.162449 0.379308 -0.221359
C27   C     C_R   0.610498 0.196052 0.408131 -0.194250
C28   C     C_R   0.350950 0.868494 0.501163 -0.205900
C29   C     C_R   0.191729 0.913686 0.412564 -0.188141
C30   C     C_R   0.772760 0.163229 0.511516 -0.096493
H9    H     H_    0.373949 0.807506 0.548969 0.144268
H10   H     H_    0.907065 0.111044 0.591856 0.155232
H11   H     H_    0.555825 0.840474 0.564874 0.132210
H12   H     H_    0.767484 0.907507 0.618045 0.146045
H13   H     H_    0.673142 0.278043 0.377117 0.178237
C31   C     C_R   0.353079 0.341273 0.647113 -0.292769
H14   H     H_    0.177841 0.325091 0.663710 0.143832
H15   H     H_    0.549881 0.303287 0.674315 0.151335
H16   H     H_    0.354443 0.279825 0.704859 0.149591
N1    N     N_R   0.246280 0.438200 0.549540 -0.228894
C32   C     C_R   0.765734 0.651502 0.386925 0.076488
C33   C     C_R   0.679138 0.694694 0.369526 -0.248828
C34   C     C_R   0.577568 0.641848 0.415646 -0.100024
C35   C     C_R   0.557306 0.540957 0.476715 -0.000013
C36   C     C_R   0.653881 0.506220 0.497512 0.280947
C37   C     C_R   0.449945 0.478746 0.522400 -0.120245
C38   C     C_R   0.451156 0.396389 0.596458 0.135330
C39   C     C_R   0.549291 0.367763 0.618584 -0.251568
C40   C     C_R   0.646670 0.418960 0.568643 -0.170078
C41   C     C_R   0.339446 0.491252 0.496492 0.453306
C42   C     C_R   0.252553 0.365844 0.623677 0.005264
N2    N     N_R   0.754330 0.561180 0.450980 -0.210081
H17   H     H_    0.846003 0.694049 0.352361 0.132517
H18   H     H_    0.520772 0.686029 0.405897 0.202120
H19   H     H_    0.692483 0.771206 0.322170 0.162765
H20   H     H_    0.716357 0.389931 0.589884 0.202581
N3    N     N_R   0.316267 0.540410 0.408880 0.119977
O9    O     O_R   0.312300 0.491171 0.344870 -0.334917
O10   O     O_R   0.311971 0.639688 0.391796 -0.362476
N4    N     N_R   0.238591 0.624884 0.067083 0.121736
O11   O     O_R   0.325045 0.670554 0.016142 -0.356777
O12   O     O_R   0.264689 0.637992 0.148585 -0.298567

loop_
_geom_bond_atom_site_label_1
_geom_bond_atom_site_label_2
_geom_bond_distance
_ccdc_geom_bond_type
C5    H2    1.110165 S    
C21   H11   1.077286 S    
C1    C30   1.473615 S    
N3    O9    1.301313 A    
Cu1   Cu2   2.721296 S    
C31   C38   1.400766 A    
C41   N3    1.432188 S    
Cu1   O7    1.928652 S    
C28   H9    1.076738 S    
C13   C14   1.554467 S    
C35   C36   1.424028 A    
C37   C41   1.424709 A    
C4    C8    1.421191 S    
C11   C13   1.535357 S    
O4    C2    1.304531 A    
O7    C4    1.304311 A    
N4    O12   1.300357 A    
C5    C12   1.539953 S    
C20   H12   1.082870 S    
C5    C6    1.551751 S    
C33   H19   1.082680 S    
C18   C29   1.398720 A    
C24   C28   1.401038 A    
C10   C13   1.539048 S    
O5    C3    1.305719 A    
C35   C37   1.443007 A    
C17   C25   1.403864 A    
C5    C9    1.554503 S    
C6    H1    1.110231 S    
C18   C28   1.396486 A    
H3    C14   1.110161 S    
Cu1   N1    2.050927 S    
C6    C14   1.551687 S    
C22   C24   1.423178 A    
C39   C40   1.387962 A    
C27   H13   1.079821 S    
C32   C33   1.385952 A    
O3    Cu1   1.925319 S    
C12   C16   1.453189 S    
C36   C40   1.406342 A    
C9    H5    1.110170 S    
C17   H8    1.083870 S    
H7    C26   1.084131 S    
C11   C12   1.524196 S    
C3    C18   1.462016 S    
O3    C2    1.303585 A    
C21   C22   1.417667 A    
N4    O11   1.300264 A    
C7    C15   1.197895 T    
C8    C16   1.197586 T    
C33   C34   1.390494 A    
O1    C1    1.311672 A    
C25   C26   1.391617 A    
C19   C20   1.386621 A    
C36   N2    1.383336 A    
Cu2   O8    1.925320 S    
C40   H20   1.066003 S    
C10   C15   1.452617 S    
C19   C30   1.402823 A    
N3    O10   1.300800 A    
H14   C42   1.081636 S    
C34   H18   1.071067 S    
C11   N4    1.457395 S    
C22   C23   1.418638 A    
O8    C4    1.303598 A    
C13   H4    1.110184 S    
C6    C10   1.538012 S    
H6    C29   1.083173 S    
C17   C29   1.392833 A    
C9    C11   1.535313 S    
C24   C25   1.419764 A    
C26   C27   1.386649 A    
N1    C41   1.380519 A    
Cu1   O5    1.935937 S    
O1    Cu1   1.947671 S    
O2    Cu2   1.935937 S    
O6    C3    1.308489 A    
O4    Cu2   1.928652 S    
N1    C42   1.355048 A    
C12   C14   1.540173 S    
C2    C7    1.421851 S    
Cu2   N2    2.038784 S    
C37   C38   1.415881 A    
O2    C1    1.307214 A    
C19   H10   1.083271 S    
C20   C21   1.389935 A    
C31   C42   1.388895 A    
H15   C39   1.084447 S    
C23   C30   1.421219 A    
C34   C35   1.412229 A    
C32   N2    1.356477 A    
Cu2   O6    1.947671 S    
C38   C39   1.391807 A    
C23   C27   1.413005 A    
C9    C10   1.539291 S    
C32   H17   1.081540 S    
C31   H16   1.083860 S    
