data_mof_unit_21600.cif
_audit_creation_date              2012-10-26T18:27:06-0400
_audit_creation_method            fapswitch 2.2
_symmetry_space_group_name_H-M    P1
_symmetry_Int_Tables_number       1
_space_group_crystal_system       triclinic
_cell_length_a                    15.003392
_cell_length_b                    10.895384
_cell_length_c                    9.712398
_cell_angle_alpha                 90.054135
_cell_angle_beta                  90.669944
_cell_angle_gamma                 90.19987
_cell_volume                      1587.54456709

loop_
_atom_site_label
_atom_site_type_symbol
_atom_type_description
_atom_site_fract_x
_atom_site_fract_y
_atom_site_fract_z
_atom_type_partial_charge
C1    C     C_R   0.494316 0.265489 0.499545 0.607213
C2    C     C_R   0.186536 0.399412 0.452197 -0.143028
C3    C     C_R   0.232868 0.502539 0.497606 -0.004724
C4    C     C_R   0.329157 0.499672 0.499346 0.564712
C5    C     C_R   0.188363 0.608670 0.538576 0.260499
C6    C     C_2   0.475841 0.930960 0.402390 -0.107655
C7    C     C_2   0.520020 0.867550 0.499312 0.255912
C8    C     C_2   0.490724 0.063808 0.388579 0.299561
C9    C     C_2   0.472885 0.135308 0.498728 0.118968
C10   C     C_2   0.429583 0.489022 0.924286 0.008998
C11   C     C_2   0.435150 0.455097 0.076033 0.394848
C12   C     C_R   0.906405 0.612194 0.527474 -0.004131
C13   C     C_R   0.506472 0.734501 0.500494 0.538365
C14   C     C_R   0.670898 0.500270 0.500412 0.595927
C15   C     C_R   0.812756 0.612393 0.515869 0.255804
C16   C     C_R   0.767430 0.500813 0.499523 0.011454
C17   C     C_R   0.813281 0.391461 0.474899 0.057644
C18   C     C_R   0.905790 0.396204 0.451222 0.009867
C19   C     C_R   0.953107 0.504020 0.490890 -0.084291
C20   C     C_3   0.751165 0.771213 0.398009 -0.087744
C21   C     C_3   0.602547 0.874200 0.706401 -0.047030
C22   C     C_3   0.530016 0.037946 0.157681 -0.087372
C23   C     C_R   0.952415 0.298021 0.389639 0.134438
C24   C     C_3   0.339008 0.290340 0.052177 -0.096166
C25   C     C_3   0.251534 0.784438 0.460285 -0.060580
C26   C     C_3   0.092386 0.787619 0.796669 -0.049204
C27   C     C_3   0.929324 0.922735 0.536710 -0.033127
C28   C     C_R   0.046097 0.295421 0.396257 0.115443
C29   C     C_R   0.093355 0.398245 0.447992 0.011748
C30   C     C_R   0.046894 0.504089 0.492304 -0.059912
C31   C     C_R   0.094349 0.609061 0.540619 -0.015288
C32   C     C_R   0.046931 0.711446 0.590202 0.260026
C33   C     C_R   0.953867 0.717104 0.573615 0.281785
Cu1   Cu    Cu3+1 0.500020 0.500020 0.638630 1.043974
Cu2   Cu    Cu3+1 0.499980 0.499980 0.361370 1.044912
H1    H     H_    0.364160 0.502912 0.878680 0.124299
H2    H     H_    0.646516 0.936651 0.766887 0.164819
H3    H     H_    0.460003 0.014048 0.129359 0.103493
H4    H     H_    0.570851 0.954093 0.173907 0.118378
H5    H     H_    0.558740 0.088519 0.069487 0.175372
H6    H     H_    0.395649 0.238887 0.006816 0.144143
H7    H     H_    0.293603 0.325330 0.970132 0.122238
H8    H     H_    0.300392 0.224385 0.115016 0.169076
H9    H     H_    0.287241 0.869059 0.492652 0.173816
H10   H     H_    0.187402 0.813053 0.411430 0.153055
H11   H     H_    0.293650 0.736618 0.383693 0.101754
H12   H     H_    0.539244 0.564229 0.109078 0.188799
H13   H     H_    0.127445 0.700683 0.823027 0.128998
H14   H     H_    0.023802 0.786768 0.839084 0.144277
H15   H     H_    0.129512 0.863850 0.847188 0.162604
H16   H     H_    0.871150 0.985121 0.535207 0.181790
H17   H     H_    0.943917 0.898966 0.427557 0.118541
H18   H     H_    0.986083 0.974511 0.582764 0.192939
H19   H     H_    0.225054 0.321080 0.420049 0.168194
H20   H     H_    0.429831 0.885959 0.331118 0.058566
H21   H     H_    0.701501 0.717220 0.337489 0.124184
H22   H     H_    0.814319 0.779215 0.339487 0.111553
H23   H     H_    0.724383 0.865266 0.410262 0.196660
H24   H     H_    0.638543 0.785968 0.695705 0.190069
H25   H     H_    0.540035 0.862766 0.765575 0.138081
I1    I     I_    0.397533 0.073288 0.672049 -0.412752
I2    I     I_    0.616469 0.409286 0.912146 -0.204258
I3    I     I_    0.744636 0.223052 0.520753 -0.233782
I4    I     I_    0.887227 0.179176 0.242784 -0.299994
I5    I     I_    0.115000 0.133703 0.328300 -0.424487
N1    N     N_2   0.499020 0.498660 0.846910 -0.193929
N2    N     N_2   0.499000 0.498630 0.153040 -0.293320
O1    O     O_R   0.500020 0.321960 0.617040 -0.471531
O2    O     O_3   0.586082 0.928247 0.576916 -0.562552
O3    O     O_3   0.533540 0.114724 0.274638 -0.518674
O4    O     O_3   0.368584 0.386705 0.138561 -0.528895
O5    O     O_3   0.237714 0.710844 0.577705 -0.524699
O6    O     O_3   0.091082 0.808327 0.653349 -0.528553
O7    O     O_3   0.908146 0.819784 0.618840 -0.517275
O8    O     O_R   0.499980 0.321920 0.382900 -0.415746
O9    O     O_R   0.370270 0.499990 0.617090 -0.498785
O10   O     O_R   0.370240 0.499950 0.382940 -0.465839
O11   O     O_R   0.500020 0.678080 0.617100 -0.506046
O12   O     O_R   0.499980 0.678040 0.382960 -0.550441
O13   O     O_R   0.629760 0.500050 0.617060 -0.456928
O14   O     O_R   0.629730 0.500010 0.382910 -0.501898
O15   O     O_3   0.764620 0.719710 0.529975 -0.537154

loop_
_geom_bond_atom_site_label_1
_geom_bond_atom_site_label_2
_ccdc_geom_bond_type
C8    C9    D    
C13   O12   A    
C20   O15   S    
C24   H7    S    
C6    H20   S    
C20   H21   S    
Cu1   N1    S    
Cu2   O14   S    
Cu2   O8    S    
C2    C29   A    
C9    I1    S    
C28   C29   A    
C21   H24   S    
C5    O5    S    
C26   H15   S    
C30   C31   A    
C11   O4    S    
C15   C16   A    
C22   H3    S    
C1    O1    A    
Cu1   Cu2   S    
Cu1   O13   S    
C11   N2    D    
C16   C17   A    
C14   O13   A    
C27   O7    S    
C26   H13   S    
C24   H6    S    
C25   H9    S    
H12   N2    S    
C27   H16   S    
C15   O15   S    
C10   N1    D    
I2    N1    S    
C18   C23   A    
C1    O8    A    
C1    C9    S    
C21   H25   S    
C2    H19   S    
C26   H14   S    
Cu1   O1    S    
C32   O6    S    
C18   C19   A    
C6    C8    S    
C26   O6    S    
Cu2   O10   S    
C21   O2    S    
C29   C30   A    
C31   C32   A    
C12   C15   A    
Cu2   N2    S    
C22   H5    S    
C17   C18   A    
C25   O5    S    
C23   C28   A    
C23   I4    S    
C14   C16   S    
C20   H23   S    
C3    C4    S    
C25   H10   S    
C27   H17   S    
C13   O11   A    
C3    C5    A    
C7    O2    S    
C27   H18   S    
C6    C7    D    
C8    O3    S    
C32   C33   A    
C2    C3    A    
C12   C33   A    
C4    O10   A    
Cu1   O11   S    
C22   H4    S    
C12   C19   A    
Cu2   O12   S    
C28   I5    S    
C4    O9    A    
C10   C11   S    
C33   O7    S    
C7    C13   S    
C21   H2    S    
C24   H8    S    
C10   H1    S    
C14   O14   A    
C20   H22   S    
C19   C30   A    
C25   H11   S    
C22   O3    S    
C17   I3    S    
C24   O4    S    
Cu1   O9    S    
C5    C31   A    
