data_mof_unit_11466.cif
_audit_creation_date              2013-03-05T15:42:25-0500
_audit_creation_method            fapswitch 2.2
_symmetry_space_group_name_H-M    P1
_symmetry_Int_Tables_number       1
_space_group_crystal_system       triclinic
_cell_length_a                    13.015536
_cell_length_b                    10.932634
_cell_length_c                    9.733587
_cell_angle_alpha                 90.157954
_cell_angle_beta                  95.991623
_cell_angle_gamma                 90.943419
_cell_volume                      1377.26504551

loop_
_atom_site_label
_atom_site_type_symbol
_atom_site_description
_atom_site_fract_x
_atom_site_fract_y
_atom_site_fract_z
_atom_type_partial_charge
O1    O     O_R   0.500020 0.321960 0.617050 -0.542717
O2    O     O_R   0.499980 0.321920 0.382890 -0.584396
C1    C     C_R   0.501138 0.265530 0.500104 0.870449
O3    O     O_R   0.349010 0.500000 0.598060 -0.539809
O4    O     O_R   0.348980 0.499950 0.363910 -0.585582
C2    C     C_R   0.300721 0.500055 0.474324 0.851347
Cu1   Cu    Cu3+1 0.500020 0.500020 0.638640 1.038439
Cu2   Cu    Cu3+1 0.499980 0.499980 0.361360 0.966467
O5    O     O_R   0.500020 0.678080 0.617110 -0.568885
O6    O     O_R   0.499980 0.678040 0.382950 -0.572707
O7    O     O_R   0.651020 0.500050 0.636090 -0.622629
O8    O     O_R   0.650990 0.500000 0.401940 -0.591075
C3    C     C_R   0.499037 0.734494 0.500107 0.827931
C4    C     C_R   0.699326 0.500159 0.525835 0.807414
C5    C     C_R   0.812120 0.499874 0.541374 -0.119588
C6    C     C_R   0.188086 0.503200 0.459990 -0.148585
C7    C     C_R   0.025535 0.530077 0.318805 0.463382
C8    C     C_R   0.132995 0.522566 0.330939 -0.259460
C9    C     C_R   0.135659 0.489246 0.577400 -0.156748
C10   C     C_R   0.028262 0.496406 0.568426 -0.023048
C11   C     C_R   0.972737 0.514317 0.436867 0.018280
C12   C     C_R   0.865209 0.516304 0.425173 -0.207302
C13   C     C_R   0.866827 0.483451 0.671497 -0.267602
C14   C     C_R   0.974641 0.482987 0.686921 0.353964
H1    H     H_    0.822386 0.530324 0.325039 0.201139
H2    H     H_    0.825787 0.472308 0.762066 0.183696
H3    H     H_    0.172980 0.532493 0.239316 0.193861
H4    H     H_    0.179294 0.470687 0.675387 0.241997
C15   C     C_2   0.502392 0.932751 0.387823 -0.143680
C16   C     C_2   0.494300 0.866435 0.501950 -0.303971
H5    H     H_    0.511055 0.887971 0.290013 0.180609
H6    H     H_    0.481760 0.907300 0.600003 0.167385
C17   C     C_2   0.497874 0.066653 0.386947 -0.150227
C18   C     C_2   0.506219 0.133651 0.503136 -0.280296
H7    H     H_    0.488860 0.110819 0.286649 0.191181
H8    H     H_    0.519134 0.093324 0.604681 0.172977
C19   C     C_2   0.450164 0.418933 0.917462 0.504548
N1    N     N_2   0.498860 0.498660 0.846770 -0.076984
C20   C     C_2   0.435768 0.435413 0.068519 -0.044158
N2    N     N_2   0.498840 0.498630 0.152900 -0.290649
H9    H     H_    0.372930 0.385629 0.109318 0.167403
H10   H     H_    0.566968 0.527123 0.118642 0.221716
N3    N     N_R   0.409929 0.307757 0.853625 0.104670
O9    O     O_R   0.442828 0.203816 0.904154 -0.392129
O10   O     O_R   0.324378 0.309204 0.771882 -0.345323
O11   O     O_3   0.505720 0.612049 0.902683 -0.499907
C21   C     C_3   0.608649 0.655027 0.902457 0.168994
H11   H     H_    0.630761 0.668520 0.797239 0.191887
H12   H     H_    0.664384 0.590316 0.955955 0.096859
C22   C     C_3   0.619170 0.778322 0.976062 -0.833292
H13   H     H_    0.608809 0.766741 0.087139 0.243857
H14   H     H_    0.696509 0.819654 0.966589 0.205888
H15   H     H_    0.559794 0.841617 0.928628 0.276386
O12   O     O_3   0.971291 0.547408 0.190605 -0.552057
C23   C     C_3   0.985581 0.669771 0.149320 0.112365
H16   H     H_    0.061305 0.680999 0.107028 0.192784
H17   H     H_    0.981679 0.736009 0.236165 0.116832
C24   C     C_3   0.900080 0.701167 0.037396 -0.746193
H18   H     H_    0.824406 0.690117 0.079215 0.224415
H19   H     H_    0.909683 0.797308 0.003813 0.206503
H20   H     H_    0.901890 0.639528 0.946962 0.273359
N4    N     N_R   0.027678 0.470004 0.823103 0.112064
O13   O     O_R   0.098715 0.549410 0.869026 -0.383486
O14   O     O_R   0.992196 0.393558 0.909624 -0.318565

loop_
_geom_bond_atom_site_label_1
_geom_bond_atom_site_label_2
_geom_bond_distance
_ccdc_geom_bond_type
C19   N3    1.429888 S    
O4    Cu2   1.968085 S    
C22   H14   1.109311 S    
C23   H16   1.112160 S    
C19   N1    1.308075 D    
O12   C23   1.412808 S    
Cu1   O7    1.968085 S    
C9    C10   1.394936 A    
Cu2   O8    1.963931 S    
Cu1   O5    1.958487 S    
C24   H20   1.109534 S    
C5    C13   1.400214 A    
C7    C8    1.395080 A    
C5    C12   1.396127 A    
Cu1   Cu2   2.698872 S    
C21   H12   1.112634 S    
C6    C8    1.398298 A    
C11   C12   1.392797 A    
C16   H6    1.081533 S    
C9    H4    1.079423 S    
N3    O10   1.299564 A    
C15   C16   1.340555 D    
C14   N4    1.437693 S    
O3    Cu1   1.963931 S    
N2    H10   1.023580 S    
C17   H7    1.086531 S    
Cu1   N1    2.027578 S    
C17   C18   1.339583 D    
O2    C1    1.297141 A    
C21   C22   1.522203 S    
C18   H8    1.081528 S    
C23   H17   1.117290 S    
N3    O9    1.300648 A    
C6    C9    1.398308 A    
O4    C2    1.300196 A    
C19   C20   1.512154 S    
O7    C4    1.299174 A    
O2    Cu2   1.958487 S    
N1    O11   1.350315 S    
C22   H15   1.110913 S    
C8    H3    1.083303 S    
C13   C14   1.395695 A    
C2    C6    1.459045 S    
C21   H11   1.102021 S    
C15   C17   1.466059 S    
C3    C16   1.444938 S    
C10   C11   1.418885 A    
C20   H9    1.084978 S    
C15   H5    1.086481 S    
O3    C2    1.299070 A    
O11   C21   1.412583 S    
C23   C24   1.518095 S    
C20   N2    1.289793 D    
C13   H2    1.083547 S    
O5    C3    1.295626 A    
C4    C5    1.460108 S    
N4    O14   1.301285 A    
Cu2   N2    2.027581 S    
C1    C18   1.444630 S    
C22   H13   1.110764 S    
C24   H18   1.109256 S    
O1    Cu1   1.957400 S    
C24   H19   1.110554 S    
C7    O12   1.383212 S    
C12   H1    1.083673 S    
Cu2   O6    1.957400 S    
C7    C11   1.408752 A    
N4    O13   1.301320 A    
C10   C14   1.415804 A    
O8    C4    1.300643 A    
O1    C1    1.294769 A    
O6    C3    1.296447 A    
