data_mof_unit_20401.cif
_audit_creation_date              2012-12-10T17:23:10-0500
_audit_creation_method            fapswitch 2.2
_symmetry_space_group_name_H-M    P1
_symmetry_Int_Tables_number       1
_space_group_crystal_system       triclinic
_cell_length_a                    15.84116
_cell_length_b                    10.765603
_cell_length_c                    9.639465
_cell_angle_alpha                 90.124517
_cell_angle_beta                  89.498935
_cell_angle_gamma                 90.729268
_cell_volume                      1643.71137601

loop_
_atom_site_label
_atom_site_type_symbol
_atom_type_description
_atom_site_fract_x
_atom_site_fract_y
_atom_site_fract_z
_atom_type_partial_charge
C1    C     C_R   0.506508 0.262993 0.500693 0.848677
C2    C     C_3   0.082687 0.505461 0.500701 0.054622
C3    C     C_3   0.972984 0.621886 0.527539 -0.105634
C4    C     C_3   0.917007 0.507350 0.498567 0.076567
C5    C     C_3   0.029944 0.585294 0.402717 -0.187550
C6    C     C_3   0.972257 0.470830 0.373541 -0.165644
C7    C     C_1   0.174504 0.503553 0.501455 0.040421
C8    C     C_1   0.825320 0.507628 0.497874 0.064799
C9    C     C_R   0.667018 0.115823 0.546539 0.265891
C10   C     C_R   0.741429 0.048774 0.523144 0.439990
C11   C     C_R   0.736785 0.924215 0.485696 -0.101478
C12   C     C_R   0.340009 0.500112 0.500482 0.820001
C13   C     C_R   0.658852 0.864153 0.479529 -0.186978
C14   C     C_R   0.583413 0.931077 0.496055 0.074739
C15   C     C_R   0.587041 0.061278 0.515380 -0.026007
C16   C     C_R   0.510138 0.128382 0.505032 -0.049150
C17   C     C_R   0.432729 0.065506 0.494823 -0.127041
C18   C     C_R   0.429567 0.937192 0.495555 -0.136331
C19   C     C_R   0.504177 0.870408 0.496534 0.004564
C20   C     C_R   0.618041 0.651710 0.137947 -0.239283
C21   C     C_R   0.680415 0.711874 0.058731 0.315140
C22   C     C_R   0.669755 0.721715 0.915498 0.311867
C23   C     C_R   0.498274 0.736933 0.499451 0.764259
C24   C     C_R   0.591915 0.685469 0.861130 0.298256
C25   C     C_R   0.549522 0.585118 0.925805 0.069484
C26   C     C_R   0.554742 0.578349 0.073694 0.084091
C27   C     C_R   0.449185 0.422215 0.072952 0.467978
C28   C     C_R   0.451118 0.420467 0.925632 -0.030847
C29   C     C_R   0.659920 0.503599 0.499369 0.821854
C30   C     C_3   0.969455 0.427367 0.596721 -0.135625
C31   C     C_3   0.026020 0.392470 0.472097 0.447239
C32   C     C_1   0.250162 0.501790 0.501442 -0.105871
C33   C     C_1   0.749709 0.506461 0.498045 -0.065507
C34   C     C_3   0.027130 0.541902 0.625485 -0.209164
Cu1   Cu    Cu3+1 0.499990 0.499990 0.640660 1.035539
Cu2   Cu    Cu3+1 0.500010 0.500010 0.359340 1.024184
H1    H     H_    0.658315 0.765263 0.460704 0.130552
H2    H     H_    0.368856 0.889684 0.492952 0.145156
H3    H     H_    0.411057 0.355526 0.870111 0.171790
H4    H     H_    0.948625 0.440931 0.270494 0.189066
H5    H     H_    0.055958 0.650229 0.323416 0.188584
H6    H     H_    0.949515 0.716578 0.550311 0.191276
H7    H     H_    0.374221 0.116363 0.488944 0.164837
N1    N     N_R   0.500800 0.501210 0.147910 -0.204889
N2    N     N_R   0.500830 0.501290 0.852040 -0.201143
O1    O     O_R   0.499990 0.319640 0.618810 -0.544127
O2    O     O_R   0.500000 0.319660 0.381240 -0.529168
O3    O     O_R   0.379070 0.499980 0.618770 -0.583582
O4    O     O_R   0.379080 0.500000 0.381190 -0.525498
O5    O     O_R   0.500000 0.680340 0.618760 -0.531207
O6    O     O_R   0.500010 0.680360 0.381190 -0.605536
O7    O     O_R   0.620920 0.500000 0.618810 -0.536095
O8    O     O_R   0.620930 0.500020 0.381230 -0.606346
Cl1   Cl    Cl    0.062161 0.239882 0.435248 -0.493641
H8    H     H_    0.793922 0.871515 0.470447 0.200983
Cl2   Cl    Cl    0.379314 0.317583 0.155299 -0.548141
H9    H     H_    0.622544 0.664387 0.246749 0.220999
Cl3   Cl    Cl    0.766415 0.783487 0.142818 -0.528497
Cl4   Cl    Cl    0.739636 0.812784 0.814451 -0.489269
Cl5   Cl    Cl    0.529107 0.819503 0.846377 -0.526754
H10   H     H_    0.943517 0.361988 0.675645 0.214626
H11   H     H_    0.050822 0.571227 0.728688 0.186002
Cl6   Cl    Cl    0.676047 0.246385 0.654466 -0.531972
Cl7   Cl    Cl    0.841908 0.116298 0.549382 -0.476062

loop_
_geom_bond_atom_site_label_1
_geom_bond_atom_site_label_2
_ccdc_geom_bond_type
C19   C23   S    
C24   C25   A    
C17   H7    S    
C3    H6    S    
C7    C32   T    
C13   C14   A    
C9    C10   A    
C27   Cl2   S    
C23   O6    A    
C2    C7    S    
C3    C34   S    
C12   O3    A    
C24   Cl5   S    
C4    C30   S    
C2    C34   S    
Cu1   O5    S    
C12   O4    A    
C18   H2    S    
C3    C5    S    
C26   N1    A    
C21   Cl3   S    
C1    C16   S    
C21   C22   A    
C12   C32   S    
C11   C13   A    
C5    C6    S    
Cu2   O6    S    
C29   O8    A    
Cu1   O3    S    
C14   C19   A    
C1    O2    A    
C25   C26   A    
C17   C18   A    
C6    H4    S    
C8    C33   T    
C31   Cl1   S    
C9    C15   A    
C30   C31   S    
C28   N2    A    
C22   C24   A    
C1    O1    A    
Cu2   N1    S    
C2    C5    S    
C16   C17   A    
C10   C11   A    
C30   C34   S    
C3    C4    S    
Cu1   N2    S    
C34   H11   S    
C25   N2    A    
C27   C28   A    
C11   H8    S    
C20   C21   A    
Cu2   O2    S    
C4    C6    S    
C18   C19   A    
C30   H10   S    
C22   Cl4   S    
C5    H5    S    
C14   C15   A    
Cu1   O7    S    
C23   O5    A    
C6    C31   S    
Cu2   O8    S    
C28   H3    S    
C4    C8    S    
C20   H9    S    
C9    Cl6   S    
Cu1   O1    S    
C13   H1    S    
C27   N1    A    
C15   C16   A    
C10   Cl7   S    
Cu2   O4    S    
Cu1   Cu2   S    
C29   C33   S    
C2    C31   S    
C20   C26   A    
C29   O7    A    
