data_mof_unit_57813.cif
_audit_creation_date              2013-03-05T16:48:30-0500
_audit_creation_method            fapswitch 2.2
_symmetry_space_group_name_H-M    P1
_symmetry_Int_Tables_number       1
_space_group_crystal_system       triclinic
_cell_length_a                    10.799358
_cell_length_b                    14.840902
_cell_length_c                    14.66053
_cell_angle_alpha                 64.613897
_cell_angle_beta                  105.942464
_cell_angle_gamma                 102.499982
_cell_volume                      2027.92944718

loop_
_atom_site_label
_atom_site_type_symbol
_atom_site_description
_atom_site_fract_x
_atom_site_fract_y
_atom_site_fract_z
_atom_type_partial_charge
O1    O     O_R   0.455540 0.022090 0.338120 -0.636475
O2    O     O_R   0.544460 0.977910 0.661880 -0.621393
O3    O     O_R   0.512510 0.160150 0.379180 -0.528854
O4    O     O_R   0.487490 0.839850 0.620820 -0.594187
C1    C     C_R   0.477389 0.119063 0.310702 0.807738
C2    C     C_R   0.523420 0.880800 0.689188 0.778945
O5    O     O_R   0.291160 0.930970 0.479480 -0.599319
O6    O     O_R   0.708840 0.069030 0.520520 -0.609254
O7    O     O_R   0.348130 0.069020 0.520540 -0.590132
O8    O     O_R   0.651870 0.930980 0.479460 -0.549941
C3    C     C_R   0.263157 0.999089 0.502011 0.799664
C4    C     C_R   0.736689 0.001232 0.497429 0.796871
Cu1   Cu    Cu3+1 0.466270 0.918260 0.475690 0.944053
Cu2   Cu    Cu3+1 0.533730 0.081740 0.524310 0.952294
H1    H     H_    0.439981 0.070447 0.900652 0.158862
H2    H     H_    0.578808 0.975180 0.071614 0.142052
C5    C     C_R   0.343672 0.967320 0.828807 -0.138701
C6    C     C_R   0.683733 0.065973 0.155907 -0.106583
H3    H     H_    0.390238 0.904061 0.889776 0.139759
H4    H     H_    0.652657 0.135437 0.094716 0.173633
C7    C     C_R   0.256402 0.955121 0.743829 -0.104515
C8    C     C_R   0.764625 0.066768 0.247999 -0.144454
H5    H     H_    0.236373 0.881947 0.739946 0.130994
H6    H     H_    0.795871 0.137527 0.256926 0.139247
C9    C     C_R   0.193368 0.036137 0.665198 0.035055
C10   C     C_R   0.808333 0.977526 0.326950 0.030660
C11   C     C_R   0.219444 0.131144 0.672302 0.008754
C12   C     C_R   0.767786 0.885818 0.313309 0.031638
C13   C     C_R   0.310312 0.142443 0.757385 -0.063920
C14   C     C_R   0.682395 0.886049 0.221348 -0.099019
H7    H     H_    0.333660 0.214260 0.764262 0.186627
H8    H     H_    0.648194 0.817050 0.209287 0.185062
C15   C     C_R   0.371317 0.060936 0.835179 -0.112116
C16   C     C_R   0.642478 0.975763 0.142720 -0.126491
C17   C     C_R   0.966036 0.017474 0.575525 -0.215551
C18   C     C_R   0.033636 0.982178 0.424215 -0.218476
H9    H     H_    0.939489 0.028493 0.635740 0.174279
H10   H     H_    0.060316 0.971416 0.363851 0.173335
C19   C     C_R   0.870246 0.001332 0.496210 -0.052171
C20   C     C_R   0.129522 0.998854 0.503286 -0.072332
C21   C     C_R   0.903791 0.984115 0.419058 -0.015350
C22   C     C_R   0.096131 0.018319 0.579125 -0.028309
C23   C     C_R   0.460053 0.185011 0.198751 -0.147365
C24   C     C_R   0.547975 0.813436 0.800578 -0.146082
C25   C     C_R   0.367540 0.223574 0.016657 -0.080832
C26   C     C_R   0.675462 0.767547 0.975120 -0.159053
C27   C     C_R   0.396128 0.152056 0.117807 -0.039298
C28   C     C_R   0.631340 0.842226 0.879189 -0.032695
C29   C     C_R   0.505262 0.286819 0.172738 -0.173453
C30   C     C_R   0.497190 0.712814 0.825776 -0.244907
C31   C     C_R   0.483106 0.358060 0.070287 0.085074
C32   C     C_R   0.538542 0.636747 0.922698 0.118283
C33   C     C_R   0.402035 0.326675 0.992904 0.050824
C34   C     C_R   0.632101 0.665198 0.998196 0.045153
C35   C     C_R   0.536050 0.460255 0.044354 0.087343
C36   C     C_R   0.492171 0.533222 0.945108 0.068219
C37   C     C_R   0.404546 0.499998 0.871276 -0.291508
C38   C     C_R   0.635952 0.490202 0.114073 -0.215821
C39   C     C_R   0.360266 0.398748 0.893231 -0.049749
C40   C     C_R   0.682994 0.590472 0.093512 -0.036058
H11   H     H_    0.426301 0.696451 0.765881 0.150107
H12   H     H_    0.553056 0.310294 0.235021 0.188073
H13   H     H_    0.321197 0.197301 0.955781 0.200063
H14   H     H_    0.744855 0.791241 0.031315 0.220827
H15   H     H_    0.367629 0.550802 0.794418 0.165210
H16   H     H_    0.682734 0.435764 0.185387 0.156308
N1    N     N_R   0.584450 0.204570 0.560790 -0.241592
N2    N     N_R   0.415550 0.795430 0.439210 -0.253318
C41   C     C_R   0.695272 0.273327 0.688708 -0.114118
C42   C     C_R   0.309084 0.726361 0.311038 -0.150055
C43   C     C_R   0.684823 0.204636 0.642287 0.058603
C44   C     C_R   0.317958 0.795953 0.356010 0.084204
C45   C     C_R   0.515992 0.287185 0.506736 0.102427
C46   C     C_R   0.482707 0.712161 0.495315 0.113929
C47   C     C_R   0.543532 0.368721 0.539478 -0.090477
C48   C     C_R   0.458836 0.630757 0.462557 0.005188
C49   C     C_R   0.611116 0.349146 0.641711 0.045718
C50   C     C_R   0.393325 0.650324 0.359710 -0.042889
C51   C     C_R   0.500737 0.466253 0.477882 0.050946
C52   C     C_R   0.502213 0.533131 0.524763 0.140293
C53   C     C_R   0.535446 0.496353 0.633007 -0.191090
C54   C     C_R   0.470675 0.503133 0.369878 -0.124852
C55   C     C_R   0.591098 0.406655 0.691863 0.052062
C56   C     C_R   0.415291 0.593031 0.310081 0.024903
H17   H     H_    0.512040 0.534184 0.673605 0.104722
H18   H     H_    0.497333 0.464902 0.331172 0.205131
C57   C     C_2   0.609437 0.370361 0.805576 0.351688
H19   H     H_    0.629593 0.423996 0.841448 0.089249
O9    O     O_2   0.594714 0.280881 0.859472 -0.590918
C58   C     C_2   0.398735 0.632203 0.196056 0.437644
H20   H     H_    0.394819 0.711810 0.149604 0.043562
O10   O     O_2   0.390997 0.576195 0.152807 -0.516684
C59   C     C_2   0.592014 0.712639 0.581664 0.448900
H21   H     H_    0.574618 0.695845 0.656796 0.054400
O11   O     O_2   0.703494 0.723913 0.572039 -0.549181
C60   C     C_2   0.392679 0.280311 0.433532 0.470245
H22   H     H_    0.303082 0.255763 0.460905 0.053996
O12   O     O_2   0.388556 0.305108 0.342105 -0.550382
C61   C     C_2   0.217542 0.865053 0.317065 0.478205
H23   H     H_    0.242756 0.943249 0.303972 0.096608
O13   O     O_2   0.102736 0.833947 0.300650 -0.559764
C62   C     C_2   0.785473 0.136332 0.678975 0.464567
H24   H     H_    0.760356 0.058105 0.692407 0.096427
O14   O     O_2   0.900204 0.168040 0.693490 -0.554448
C63   C     C_2   0.801191 0.272408 0.779006 0.967769
O15   O     O_2   0.825658 0.193269 0.851969 -0.501549
O16   O     O_R   0.871358 0.362867 0.780816 -0.745175
H25   H     H_    0.937735 0.353231 0.847399 0.360114
C64   C     C_2   0.203869 0.726495 0.220642 0.868927
O17   O     O_2   0.141475 0.647375 0.220129 -0.517891
O18   O     O_R   0.176887 0.816411 0.136175 -0.704278
H26   H     H_    0.103283 0.806309 0.079958 0.358164
C65   C     C_2   0.153714 0.218578 0.591665 0.379189
H27   H     H_    0.082757 0.211366 0.525934 0.097075
O19   O     O_2   0.179365 0.300788 0.596640 -0.492862
C66   C     C_2   0.814300 0.790322 0.393418 0.491605
H28   H     H_    0.893799 0.790423 0.457407 0.114325
O20   O     O_2   0.762530 0.709666 0.390270 -0.523501
C67   C     C_2   0.263865 0.372915 0.810949 0.842788
O21   O     O_2   0.273551 0.419072 0.720808 -0.554386
O22   O     O_R   0.158647 0.299726 0.835376 -0.734172
H29   H     H_    0.100102 0.289841 0.772478 0.394978
C68   C     C_2   0.789409 0.611759 0.173401 0.855662
O23   O     O_2   0.878767 0.559690 0.214761 -0.515581
O24   O     O_R   0.785319 0.686889 0.205456 -0.762596
H30   H     H_    0.866324 0.695429 0.257244 0.389992
C69   C     C_2   0.671871 0.948226 0.866743 0.322573
H31   H     H_    0.610611 0.006315 0.814744 0.097727
O25   O     O_2   0.773378 0.971700 0.917868 -0.471000
C70   C     C_2   0.358163 0.045192 0.132970 0.331744
H32   H     H_    0.413718 0.986688 0.192809 0.097364
O26   O     O_2   0.265185 0.021383 0.074976 -0.471506

loop_
_geom_bond_atom_site_label_1
_geom_bond_atom_site_label_2
_geom_bond_distance
_ccdc_geom_bond_type
C55   C57   1.484392 S    
C35   C36   1.416561 A    
C59   H21   1.081059 S    
C11   C13   1.408097 A    
N2    C46   1.385073 A    
C41   C49   1.414482 A    
O18   H26   1.013924 S    
C57   H19   1.085642 S    
C33   C39   1.410483 A    
C68   O23   1.222960 D    
C19   C21   1.410268 A    
C34   C40   1.413434 A    
C66   H28   1.084137 S    
O5    C3    1.302352 A    
C63   O16   1.398679 S    
C56   C58   1.487268 S    
O1    C1    1.302901 A    
C17   H9    1.082289 S    
C48   C50   1.409187 A    
C64   O18   1.397242 S    
C17   C19   1.396568 A    
C37   C39   1.396073 A    
C42   C50   1.416890 A    
C49   C55   1.421634 A    
C38   C40   1.391278 A    
C13   C15   1.395455 A    
C36   C37   1.415325 A    
O4    Cu1   1.912676 S    
C41   C43   1.420573 A    
C17   C22   1.388894 A    
C12   C66   1.482277 S    
H2    C16   1.082109 S    
C38   H16   1.078558 S    
C29   C31   1.407661 A    
C60   O12   1.218744 D    
C30   C32   1.409654 A    
Cu2   N1    2.037602 S    
N1    C45   1.383937 A    
N1    C43   1.375351 A    
N2    C44   1.373997 A    
O7    C3    1.298279 A    
C67   O22   1.398198 S    
C1    C23   1.489930 S    
C25   C33   1.403189 A    
C59   O11   1.217862 D    
C2    C24   1.487831 S    
Cu1   Cu2   2.712501 S    
C44   C61   1.480832 S    
C45   C47   1.430708 A    
C46   C59   1.476214 S    
C18   C21   1.389305 A    
O2    C2    1.304782 A    
C5    C15   1.394477 A    
C53   C55   1.397989 A    
C32   C34   1.423354 A    
C25   C27   1.400600 A    
C26   C28   1.399039 A    
C14   C16   1.395295 A    
C27   C70   1.482934 S    
C32   C36   1.429619 A    
C3    C20   1.447654 S    
C18   C20   1.397478 A    
O4    C2    1.315709 A    
C41   C63   1.490143 S    
C23   C29   1.398420 A    
O6    Cu2   1.958561 S    
C31   C35   1.421739 A    
C54   H18   1.078568 S    
C25   H13   1.080533 S    
C5    C7    1.395563 A    
C26   H14   1.076630 S    
C31   C33   1.414723 A    
C40   C68   1.487598 S    
C70   O26   1.221055 D    
O7    Cu2   1.959707 S    
C69   O25   1.221494 D    
C42   C64   1.489588 S    
C6    C16   1.394499 A    
C58   O10   1.221722 D    
C61   H23   1.076408 S    
O6    C4    1.302481 A    
C60   H22   1.079522 S    
C26   C34   1.406941 A    
C62   O14   1.220866 D    
C47   C49   1.407476 A    
O22   H29   1.013473 S    
O3    Cu2   1.912676 S    
O8    C4    1.298074 A    
C11   C65   1.485802 S    
C61   O13   1.221397 D    
C43   C62   1.478725 S    
C54   C56   1.400280 A    
C57   O9    1.221071 D    
O24   H30   1.013622 S    
C8    H6    1.083479 S    
O1    Cu1   1.933839 S    
C46   C48   1.432219 A    
O16   H25   1.013631 S    
C69   H31   1.080907 S    
C18   H10   1.082996 S    
C65   H27   1.083774 S    
C24   C30   1.396794 A    
C7    C9    1.404533 A    
C39   C67   1.489913 S    
C29   H12   1.075901 S    
C6    C8    1.395488 A    
C48   C52   1.441005 A    
C37   H15   1.073299 S    
C52   C53   1.405081 A    
O3    C1    1.318758 A    
O8    Cu1   1.959707 S    
C9    C22   1.484221 S    
C51   C54   1.401267 A    
C67   O21   1.222824 D    
C9    C11   1.419911 A    
C63   O15   1.222835 D    
C10   C12   1.418247 A    
C4    C19   1.447003 S    
C7    H5    1.083466 S    
C70   H32   1.080127 S    
C12   C14   1.407999 A    
C13   H7    1.082389 S    
C64   O17   1.222763 D    
C28   C69   1.483003 S    
C14   H8    1.082556 S    
C58   H20   1.085038 S    
C23   C27   1.423174 A    
C20   C22   1.410815 A    
C5    H3    1.082202 S    
C66   O20   1.221075 D    
C6    H4    1.082400 S    
C62   H24   1.075725 S    
O2    Cu2   1.933839 S    
C68   O24   1.395723 S    
C51   C52   1.424718 A    
C50   C56   1.421692 A    
O5    Cu1   1.958559 S    
C8    C10   1.404528 A    
C35   C38   1.407970 A    
C30   H11   1.071979 S    
C42   C44   1.420166 A    
C45   C60   1.478365 S    
C47   C51   1.436581 A    
H1    C15   1.082129 S    
C53   H17   1.078887 S    
C24   C28   1.416692 A    
C10   C21   1.483450 S    
C65   O19   1.220469 D    
Cu1   N2    2.037602 S    
