data_mof_unit_33544.cif
_audit_creation_date              2012-12-10T16:42:58-0500
_audit_creation_method            fapswitch 2.2
_symmetry_space_group_name_H-M    P1
_symmetry_Int_Tables_number       1
_space_group_crystal_system       triclinic
_cell_length_a                    7.461983
_cell_length_b                    8.682968
_cell_length_c                    12.976005
_cell_angle_alpha                 88.052203
_cell_angle_beta                  79.031979
_cell_angle_gamma                 102.719486
_cell_volume                      802.599308786

loop_
_atom_site_label
_atom_site_type_symbol
_atom_type_description
_atom_site_fract_x
_atom_site_fract_y
_atom_site_fract_z
_atom_type_partial_charge
C1    C     C_R   0.452851 0.199724 0.503201 0.878334
C2    C     C_R   0.547149 0.800276 0.496799 0.878334
C3    C     C_R   0.465687 0.493821 0.701512 0.876544
C4    C     C_R   0.534313 0.506179 0.298488 0.876544
C5    C     C_R   0.555190 0.514004 0.184558 -0.304296
C6    C     C_R   0.444810 0.485996 0.815442 -0.304295
C7    C     C_R   0.251230 0.421595 0.990437 0.656698
C8    C     C_R   0.748770 0.578405 0.009563 0.656699
C9    C     C_R   0.267761 0.428814 0.881928 0.583981
C10   C     C_R   0.732239 0.571186 0.118072 0.583981
C11   C     C_R   0.604245 0.535181 0.858206 -0.203627
C12   C     C_R   0.395755 0.464819 0.141794 -0.203627
C13   C     C_R   0.589025 0.528576 0.966658 -0.147532
C14   C     C_R   0.410975 0.471424 0.033342 -0.147532
C15   C     C_2   0.426240 0.031923 0.504736 -0.335316
C16   C     C_2   0.573760 0.968077 0.495264 -0.335317
Cu1   Cu    Cu3+1 0.686350 0.517570 0.488220 1.016799
Cu2   Cu    Cu3+1 0.313650 0.482430 0.511780 1.016799
H1    H     H_    0.283951 0.960545 0.513667 0.184492
H2    H     H_    0.716049 0.039455 0.486333 0.184492
N1    N     N_2   0.033570 0.455950 0.529530 -0.207527
N2    N     N_2   0.966430 0.544050 0.470470 -0.207527
O1    O     O_R   0.621060 0.286250 0.492350 -0.590937
O2    O     O_R   0.378940 0.713750 0.507650 -0.590937
O3    O     O_R   0.306310 0.256580 0.512240 -0.582455
O4    O     O_R   0.693690 0.743420 0.487760 -0.582454
O5    O     O_R   0.631800 0.512400 0.642670 -0.604949
O6    O     O_R   0.368200 0.487600 0.357330 -0.604949
O7    O     O_R   0.317060 0.482730 0.662570 -0.513634
O8    O     O_R   0.682940 0.517270 0.337430 -0.513634
H3    H     H_    0.259715 0.420445 0.193129 0.249527
H4    H     H_    0.740285 0.579555 0.806871 0.249527
F1    F     F_    0.889052 0.622866 0.157529 -0.595595
F2    F     F_    0.110948 0.377134 0.842471 -0.595595
F3    F     F_    0.079522 0.365011 0.053316 -0.603534
F4    F     F_    0.920478 0.634989 0.946684 -0.603534
H5    H     H_    0.933852 0.376353 0.583143 0.243026
H6    H     H_    0.066148 0.623647 0.416857 0.243026

loop_
_geom_bond_atom_site_label_1
_geom_bond_atom_site_label_2
_ccdc_geom_bond_type
C1    O3    A    
C8    C13   A    
C1    C15   S    
Cu2   N1    S    
C2    C16   S    
Cu1   N2    S    
C16   H2    S    
C3    C6    S    
C6    C9    A    
C3    O5    A    
Cu1   Cu2   S    
N1    H5    S    
C5    C10   A    
C2    O4    A    
Cu2   O7    S    
C13   C14   A    
C15   H1    S    
Cu1   O8    S    
C11   C13   A    
Cu1   O1    S    
Cu2   O3    S    
Cu2   O2    S    
Cu1   O4    S    
C4    O6    A    
C12   C14   A    
C11   H4    S    
C1    O1    A    
C10   F1    S    
C12   H3    S    
C2    O2    A    
C9    F2    S    
C15   C16   D    
N2    H6    S    
C7    C9    A    
Cu2   O6    S    
C5    C12   A    
C8    C10   A    
C8    F4    S    
C6    C11   A    
C3    O7    A    
N1    N2    D    
C7    F3    S    
C7    C14   A    
C4    O8    A    
C4    C5    S    
Cu1   O5    S    
