data_mof_unit_66753.cif
_audit_creation_date              2013-03-05T15:40:47-0500
_audit_creation_method            fapswitch 2.2
_symmetry_space_group_name_H-M    P1
_symmetry_Int_Tables_number       1
_space_group_crystal_system       triclinic
_cell_length_a                    8.265562
_cell_length_b                    12.806625
_cell_length_c                    15.051339
_cell_angle_alpha                 95.862145
_cell_angle_beta                  98.776183
_cell_angle_gamma                 97.761107
_cell_volume                      1547.86214641

loop_
_atom_site_label
_atom_site_type_symbol
_atom_site_description
_atom_site_fract_x
_atom_site_fract_y
_atom_site_fract_z
_atom_type_partial_charge
P1    P     P_3+3 0.998660 0.747790 0.570900 0.528078
O1    O     O_2   0.168170 0.764170 0.543850 -0.365662
O2    O     O_3   0.898670 0.629780 0.545890 -0.347755
O3    O     O_3   0.365980 0.695510 0.380810 -0.374173
O4    O     O_2   0.299567 0.883358 0.440277 -0.427235
O5    O     O_3   0.046804 0.802797 0.687552 -0.580724
O6    O     O_3   0.343747 0.863013 0.272417 -0.558038
H1    H     H_    0.348918 0.714594 0.204069 0.134542
C1    C     C_3   0.377665 0.838282 0.116565 0.639968
H2    H     H_    0.405039 0.926388 0.124502 0.115260
P2    P     P_3+3 0.306970 0.411860 0.294270 0.531043
P3    P     P_3+3 0.885227 0.630267 0.218294 0.524258
O7    O     O_2   0.136040 0.444100 0.280280 -0.327002
O8    O     O_3   0.934510 0.640480 0.335500 -0.415006
O9    O     O_2   0.011018 0.569545 0.176704 -0.338865
O10   O     O_3   0.263391 0.273872 0.266937 -0.485379
O11   O     O_3   0.919533 0.757905 0.186471 -0.453722
C2    C     C_3   0.930791 0.832103 0.263462 0.328361
H3    H     H_    0.039090 0.824710 0.314566 0.123385
H4    H     H_    0.816992 0.820583 0.294062 0.017008
C3    C     C_3   0.957036 0.943804 0.237687 0.103620
H5    H     H_    0.992939 0.001535 0.300082 0.045578
H6    H     H_    0.054696 0.950587 0.194842 0.186383
C4    C     C_3   0.714399 0.291021 0.262263 0.106966
H7    H     H_    0.587571 0.298937 0.274125 0.084379
H8    H     H_    0.795831 0.369194 0.280664 0.125420
C5    C     C_3   0.711854 0.249378 0.162612 0.466465
H9    H     H_    0.670513 0.162410 0.152201 0.158639
Ba1   Ba    Ba6+2 0.153570 0.551840 0.456200 1.633019
C6    C     C_3   0.064044 0.737320 0.757717 1.006175
C7    C     C_3   0.933208 0.751823 0.817102 -0.780076
H10   H     H_    0.943149 0.836097 0.846492 0.260450
H11   H     H_    0.944722 0.701674 0.873159 0.266014
H12   H     H_    0.812119 0.728745 0.776455 0.235873
C8    C     C_3   0.246970 0.221865 0.343328 0.403544
H13   H     H_    0.113593 0.203268 0.347122 0.084485
H14   H     H_    0.313480 0.266564 0.408582 0.107940
C9    C     C_3   0.317066 0.119212 0.329905 -0.909958
H15   H     H_    0.256204 0.072773 0.264934 0.261745
H16   H     H_    0.301342 0.072419 0.386823 0.233523
H17   H     H_    0.449137 0.137163 0.324287 0.269427
P4    P     P_3+3 0.811620 0.252200 0.429030 0.489795
O12   O     O_2   0.642110 0.235770 0.456130 -0.377508
O13   O     O_3   0.911620 0.370210 0.454030 -0.382358
O14   O     O_3   0.444310 0.304480 0.619110 -0.408973
O15   O     O_3   0.773760 0.213957 0.312136 -0.573411
P5    P     P_3+3 0.921933 0.364902 0.783407 0.562007
O16   O     O_3   0.400800 0.556680 0.607590 -0.382251
O17   O     O_3   0.875770 0.359510 0.664420 -0.300379
O18   O     O_2   0.818860 0.444869 0.822642 -0.342384
O19   O     O_3   0.837581 0.245283 0.817502 -0.530208
Ba2   Ba    Ba6+2 0.656590 0.448150 0.543720 1.639597
P6    P     P_3+3 0.412731 0.832792 0.381395 0.432105
C10   C     C_3   0.408634 0.798720 0.209422 0.118011
H18   H     H_    0.544268 0.802944 0.230250 0.075116
O20   O     O_3   0.409490 0.443300 0.392340 -0.427760
C11   C     C_3   0.563491 0.765995 0.663867 0.186812
H19   H     H_    0.655051 0.725465 0.631955 0.047966
H20   H     H_    0.448364 0.757951 0.613911 0.148011
C12   C     C_3   0.634449 0.883050 0.686371 -0.087883
H21   H     H_    0.765686 0.892162 0.719227 0.156604
H22   H     H_    0.629255 0.921361 0.623312 0.116922
P7    P     P_3+3 0.496446 0.586414 0.720810 0.531408
O21   O     O_2   0.674250 0.555830 0.719690 -0.344284
O22   O     O_3   0.528713 0.724380 0.743517 -0.488739
C13   C     C_3   0.958928 0.178025 0.830936 0.847740
H23   H     H_    0.086809 0.220537 0.844132 -0.157500
C14   C     C_3   0.940272 0.124374 0.915589 -0.766696
H24   H     H_    0.808625 0.096612 0.917870 0.281156
H25   H     H_    0.010509 0.056393 0.918865 0.248813
H26   H     H_    0.991250 0.182586 0.976262 0.259330
P8    P     P_3+3 0.401016 0.166804 0.614639 0.529284
C15   C     C_3   0.411476 0.214438 0.784963 0.440357
H27   H     H_    0.283100 0.227282 0.760165 0.001412
O23   O     O_2   0.522492 0.117850 0.560389 -0.342897
O24   O     O_3   0.463704 0.140094 0.724902 -0.426748
H28   H     H_    0.496696 0.291108 0.793961 0.114813
H29   H     H_    0.369000 0.230954 0.922977 0.222260
C16   C     C_3   0.415223 0.173732 0.876360 -0.669106
H30   H     H_    0.543636 0.164956 0.905297 0.279170
H31   H     H_    0.334587 0.095691 0.869148 0.289477
C17   C     C_R   0.080733 0.183476 0.531933 -0.494053
C18   C     C_R   0.731645 0.814914 0.464413 -0.545407
C19   C     C_R   0.695436 0.992916 0.431405 -0.163013
C20   C     C_R   0.632023 0.884950 0.427995 0.236466
C21   C     C_R   0.893579 0.849843 0.508952 0.247453
C22   C     C_R   0.958265 0.962297 0.515346 -0.062705
C23   C     C_R   0.857110 0.035175 0.476185 -0.034115
C24   C     C_R   0.920187 0.148044 0.485420 0.332583
C25   C     C_R   0.182545 0.113171 0.565501 0.169493
C26   C     C_R   0.120901 0.004484 0.558646 -0.037094
H32   H     H_    0.615572 0.043368 0.400830 0.176882
H33   H     H_    0.202437 0.953312 0.585793 0.213789
H34   H     H_    0.130666 0.266960 0.538050 0.153847
H35   H     H_    0.679299 0.732247 0.461487 0.173280
C27   C     C_R   0.249107 0.441624 0.768306 -0.418045
C28   C     C_R   0.143316 0.414570 0.828915 0.220703
C29   C     C_R   0.201157 0.436606 0.922503 -0.252640
C30   C     C_R   0.364143 0.490681 0.956510 0.142839
C31   C     C_R   0.458273 0.529510 0.892298 -0.124203
C32   C     C_R   0.397400 0.509215 0.799662 0.301713
C33   C     C_R   0.601406 0.556874 0.088194 -0.093886
C34   C     C_R   0.670838 0.567097 0.179488 0.237349
C35   C     C_R   0.414723 0.480616 0.213831 0.320444
C36   C     C_R   0.341918 0.472709 0.122435 -0.148675
C37   C     C_R   0.434346 0.509555 0.056784 0.096237
C38   C     C_R   0.577134 0.530590 0.242315 -0.562219
H36   H     H_    0.683543 0.584124 0.043630 0.163361
H37   H     H_    0.115378 0.412537 0.966374 0.161386
H38   H     H_    0.216658 0.432037 0.104098 0.183041
H39   H     H_    0.574052 0.582188 0.911617 0.156029
H40   H     H_    0.633147 0.536829 0.312863 0.180606
H41   H     H_    0.204987 0.423905 0.696078 0.178248
N1    N     N_R   0.595770 0.294817 0.100632 0.183410
O25   O     O_R   0.438039 0.264947 0.097649 -0.447641
O26   O     O_R   0.645209 0.339467 0.033564 -0.405453
Cl1   Cl    Cl    0.916810 0.271108 0.136807 -0.571637
N2    N     N_R   0.222974 0.773828 0.817508 0.269373
O27   O     O_R   0.293811 0.706180 0.862102 -0.348134
O28   O     O_R   0.256641 0.873087 0.852543 -0.265577
Cl2   Cl    Cl    0.043607 0.600894 0.717911 -0.609507
Cl3   Cl    Cl    0.168524 0.797981 0.062257 -0.523417
Cl4   Cl    Cl    0.508106 0.787275 0.044542 -0.506260
N3    N     N_R   0.539390 0.934262 0.746482 0.326958
O29   O     O_R   0.597231 0.955550 0.832653 -0.301657
O30   O     O_R   0.384000 0.936542 0.717774 -0.325959
Cl5   Cl    Cl    0.774218 0.974906 0.175552 -0.593469
N4    N     N_R   0.940785 0.098870 0.751760 0.200178
O31   O     O_R   0.043637 0.030651 0.749316 -0.435002
O32   O     O_R   0.834291 0.103276 0.679663 -0.382932

loop_
_geom_bond_atom_site_label_1
_geom_bond_atom_site_label_2
_geom_bond_distance
_ccdc_geom_bond_type
C13   C14   1.526249 S    
C22   C23   1.445798 A    
P7    O22   1.741082 S    
C17   H34   1.082132 S    
C22   C26   1.410068 A    
O3    P6    1.747203 S    
C2    C3    1.516290 S    
C38   H40   1.082083 S    
C8    H13   1.107436 S    
C4    C5    1.535718 S    
P8    O24   1.743916 S    
N4    O31   1.300359 A    
C28   C29   1.403309 A    
C11   H19   1.113074 S    
P5    O17   1.765455 S    
C17   C24   1.394968 A    
O1    Ba1   2.877359 S    
O7    Ba1   2.831688 S    
C8    H14   1.109024 S    
C36   H38   1.075735 S    
C4    H8    1.111978 S    
C2    H3    1.108857 S    
C6    Cl2   1.765114 S    
O10   C8    1.401319 S    
P4    O15   1.745830 S    
C6    C7    1.522576 S    
O12   Ba2   2.877765 S    
C11   H20   1.104928 S    
C12   N3    1.449470 S    
P1    O1    1.511612 D    
C15   H27   1.109560 S    
O2    Ba1   2.901436 S    
N2    O27   1.296051 A    
C34   C38   1.388762 A    
C30   C31   1.417684 A    
C14   H24   1.105003 S    
P3    O11   1.748707 S    
C7    H11   1.111805 S    
C33   H36   1.074883 S    
P2    C35   1.835588 S    
C3    Cl5   1.767514 S    
C1    H2    1.110806 S    
O3    Ba1   2.813768 S    
P7    C32   1.836789 S    
O13   Ba2   2.902341 S    
C13   H23   1.100704 S    
C29   H37   1.076637 S    
C3    H5    1.109286 S    
O14   P8    1.743370 S    
P4    O13   1.600118 S    
P8    O23   1.543881 D    
C35   C36   1.402590 A    
O11   C2    1.404535 S    
P5    O18   1.545633 D    
C5    Cl1   1.787100 S    
Ba1   O16   2.808539 S    
P1    O5    1.787667 S    
C8    C9    1.513918 S    
C4    H7    1.105996 S    
C9    H17   1.102737 S    
Ba2   O21   2.831885 S    
H1    C10   1.112359 S    
C16   H31   1.109390 S    
C21   C22   1.455063 A    
C11   C12   1.517943 S    
P5    O19   1.754287 S    
C6    N2    1.463403 S    
O14   Ba2   2.813128 S    
P7    O21   1.573291 D    
C12   H21   1.106880 S    
P1    O2    1.600099 S    
O19   C13   1.412746 S    
C26   H33   1.067983 S    
P8    C25   1.852924 S    
P2    O10   1.748205 S    
C7    H10   1.111167 S    
P3    O9    1.547634 D    
O17   Ba2   2.800620 S    
C18   H35   1.082085 S    
C27   C28   1.393913 A    
P1    Ba1   3.402157 S    
C1    Cl3   1.778908 S    
C15   C16   1.517559 S    
C7    H12   1.076894 S    
C17   C25   1.393534 A    
C19   C20   1.403827 A    
P3    C34   1.826531 S    
C18   C20   1.394677 A    
P3    O8    1.736180 S    
C3    H6    1.107420 S    
Ba1   O13   2.849428 S    
C15   O24   1.401551 S    
C27   H41   1.082876 S    
P4    O12   1.511957 D    
O6    P6    1.751929 S    
O8    Ba1   2.800021 S    
N3    O30   1.296364 A    
O4    P6    1.542415 D    
P1    C21   1.907948 S    
C30   C37   1.514386 S    
C10   H18   1.109487 S    
O5    C6    1.416329 S    
H29   C16   1.108019 S    
C19   C23   1.410059 A    
C11   O22   1.413570 S    
O16   P7    1.746147 S    
N4    O32   1.300006 A    
N1    O26   1.301401 A    
O2    Ba2   2.850061 S    
N1    O25   1.300771 A    
Ba1   O20   2.910722 S    
C36   C37   1.418070 A    
P5    C28   1.853729 S    
P4    C24   1.904470 S    
C4    O15   1.395698 S    
C12   H22   1.109860 S    
C9    H16   1.108041 S    
P2    O7    1.515072 D    
C25   C26   1.403835 A    
C9    H15   1.101523 S    
C14   H26   1.107224 S    
C31   C32   1.393330 A    
C1    Cl4   1.779459 S    
C13   N4    1.458730 S    
C33   C37   1.419060 A    
C2    H4    1.107812 S    
C33   C34   1.391756 A    
N2    O28   1.301597 A    
C16   H30   1.109082 S    
C5    N1    1.455371 S    
O16   Ba2   2.909808 S    
C18   C21   1.394365 A    
C23   C24   1.453902 A    
P2    Ba1   3.380237 S    
C31   H39   1.075237 S    
C14   H25   1.110832 S    
C29   C30   1.421846 A    
C5    H9    1.107705 S    
C15   H28   1.111542 S    
P6    C20   1.847397 S    
C1    C10   1.531694 S    
C19   H32   1.071558 S    
O6    C10   1.406968 S    
C27   C32   1.388478 A    
C35   C38   1.389884 A    
P2    O20   1.569640 S    
Ba2   O20   2.807766 S    
P4    Ba2   3.402630 S    
N3    O29   1.299404 A    
Ba1   Ba2   4.572535 S    
