data_mof_unit_54300.cif
_audit_creation_date              2012-12-11T14:44:29-0500
_audit_creation_method            fapswitch 2.2
_symmetry_space_group_name_H-M    P1
_symmetry_Int_Tables_number       1
_space_group_crystal_system       triclinic
_cell_length_a                    19.896708
_cell_length_b                    7.232141
_cell_length_c                    19.698419
_cell_angle_alpha                 90.017772
_cell_angle_beta                  98.55276
_cell_angle_gamma                 90.024487
_cell_volume                      2802.99751741

loop_
_atom_site_label
_atom_site_type_symbol
_atom_type_description
_atom_site_fract_x
_atom_site_fract_y
_atom_site_fract_z
_atom_type_partial_charge
O1    O     O_R   0.673210 0.377390 0.686390 -0.517646
O2    O     O_R   0.326790 0.622610 0.313610 -0.518389
O3    O     O_R   0.826790 0.877390 0.813610 -0.518013
O4    O     O_R   0.173210 0.122610 0.186390 -0.517355
O5    O     O_R   0.810750 0.706450 0.681250 -0.513148
O6    O     O_R   0.189250 0.293550 0.318750 -0.513343
O7    O     O_R   0.689250 0.206450 0.818750 -0.513770
O8    O     O_R   0.310750 0.793550 0.181250 -0.513064
C1    C     C_R   0.832175 0.538766 0.666695 0.798480
C2    C     C_R   0.167827 0.461236 0.333306 0.797702
C3    C     C_R   0.667850 0.038730 0.833333 0.796446
C4    C     C_R   0.332171 0.961261 0.166695 0.798085
O9    O     O_R   0.672750 0.707060 0.678240 -0.542538
O10   O     O_R   0.327250 0.292940 0.321760 -0.545552
O11   O     O_R   0.827250 0.207060 0.821760 -0.545242
O12   O     O_R   0.172750 0.792940 0.178240 -0.544895
O13   O     O_R   0.687800 0.877990 0.810580 -0.542416
O14   O     O_R   0.312200 0.122010 0.189420 -0.542272
O15   O     O_R   0.812200 0.377990 0.689420 -0.541967
O16   O     O_R   0.187800 0.622010 0.310580 -0.541938
C5    C     C_R   0.647409 0.539599 0.662465 0.724615
C6    C     C_R   0.352665 0.460390 0.337433 0.721270
C7    C     C_R   0.852601 0.039694 0.837513 0.719913
C8    C     C_R   0.147393 0.960304 0.162495 0.721621
O17   O     O_3   0.755100 0.544060 0.793420 -0.377584
O18   O     O_3   0.244900 0.455940 0.206580 -0.376298
O19   O     O_3   0.744900 0.044060 0.706580 -0.374778
O20   O     O_3   0.255100 0.955940 0.293420 -0.376712
V1    V     V_3+5 0.749050 0.818670 0.741950 1.568820
V2    V     V_3+5 0.250950 0.181330 0.258050 1.560348
V3    V     V_3+5 0.750950 0.318670 0.758050 1.565047
V4    V     V_3+5 0.249050 0.681330 0.241950 1.561620
C9    C     C_R   0.084179 0.962084 0.111094 -0.137537
C10   C     C_R   0.915811 0.037916 0.888920 -0.137229
C11   C     C_R   0.415892 0.462536 0.388837 -0.106224
C12   C     C_R   0.584142 0.537608 0.611121 -0.168970
C13   C     C_R   0.025654 0.172329 0.937920 0.198404
C14   C     C_R   0.974322 0.827732 0.062107 0.198564
C15   C     C_R   0.473698 0.669908 0.562803 0.199815
C16   C     C_R   0.526463 0.331282 0.437663 0.194227
C17   C     C_R   0.971373 0.157739 0.883228 0.227921
C18   C     C_R   0.028609 0.842293 0.116793 0.227846
C19   C     C_R   0.528249 0.655864 0.617284 0.235886
C20   C     C_R   0.472066 0.345217 0.382637 0.167554
C21   C     C_R   0.918275 0.926562 0.947526 -0.276557
C22   C     C_R   0.081711 0.073451 0.052491 -0.276395
C23   C     C_R   0.581868 0.427840 0.552089 -0.240457
C24   C     C_R   0.417837 0.572143 0.447893 -0.281567
C25   C     C_R   0.973027 0.937372 0.002243 0.032770
C26   C     C_R   0.026955 0.062660 0.997778 0.032763
C27   C     C_R   0.526978 0.438798 0.497613 0.090209
C28   C     C_R   0.472635 0.561891 0.502554 0.003898
H1    H     H_    0.124374 0.164177 0.049230 0.135771
H2    H     H_    0.875613 0.835831 0.950785 0.135596
H3    H     H_    0.374798 0.661126 0.451505 0.134993
H4    H     H_    0.624697 0.338216 0.547954 0.175394
C29   C     C_R   0.557979 0.146343 0.872352 0.468488
C30   C     C_R   0.442090 0.853714 0.127777 0.470516
C31   C     C_R   0.942042 0.646697 0.627669 0.468005
C32   C     C_R   0.057953 0.353329 0.372316 0.468272
C33   C     C_R   0.615794 0.029589 0.880094 -0.243567
C34   C     C_R   0.384254 0.970397 0.119982 -0.243571
C35   C     C_R   0.884242 0.529712 0.619955 -0.244254
C36   C     C_R   0.115757 0.470297 0.380039 -0.243860
C37   C     C_R   0.623402 0.895392 0.931592 -0.209759
C38   C     C_R   0.376656 0.104580 0.068488 -0.209804
C39   C     C_R   0.876641 0.395360 0.568485 -0.206385
C40   C     C_R   0.123357 0.604655 0.431508 -0.209425
C41   C     C_R   0.575940 0.876470 0.977179 0.114515
C42   C     C_R   0.424147 0.123567 0.022944 0.114661
C43   C     C_R   0.924099 0.376402 0.522907 0.113971
C44   C     C_R   0.075890 0.623634 0.477076 0.114741
C45   C     C_R   0.522816 0.006533 0.975579 -0.095437
C46   C     C_R   0.477283 0.993535 0.024563 -0.095932
C47   C     C_R   0.977227 0.506564 0.524482 -0.095462
C48   C     C_R   0.022761 0.493473 0.475498 -0.095288
C49   C     C_R   0.515351 0.149181 0.925021 -0.041986
C50   C     C_R   0.484746 0.850902 0.075128 -0.042707
C51   C     C_R   0.984690 0.649409 0.575008 -0.041911
C52   C     C_R   0.015298 0.350629 0.424972 -0.041829
C53   C     C_R   0.580551 0.727093 0.023400 0.127687
C54   C     C_R   0.419543 0.272972 0.976744 0.128308
C55   C     C_R   0.919471 0.226880 0.476720 0.127900
C56   C     C_R   0.080510 0.773177 0.523255 0.128214
C57   C     C_R   0.533599 0.709773 0.070260 0.176214
C58   C     C_R   0.466505 0.290328 0.929903 0.175769
C59   C     C_R   0.966420 0.209461 0.429870 0.175025
C60   C     C_R   0.033558 0.790598 0.570102 0.175696
H5    H     H_    0.666563 0.802716 0.934990 0.180665
H6    H     H_    0.333478 0.197205 0.065061 0.180900
H7    H     H_    0.833482 0.302576 0.565103 0.183661
H8    H     H_    0.166520 0.697426 0.434897 0.180775
N1    N     N_3   0.024844 0.734299 0.177653 -0.560030
H9    H     H_    0.980935 0.774548 0.197041 0.282066
H10   H     H_    0.064510 0.763081 0.216918 0.267533
N2    N     N_3   0.975120 0.265784 0.822375 -0.559837
H11   H     H_    0.019119 0.225872 0.803054 0.282253
H12   H     H_    0.935522 0.236655 0.783060 0.267413
N3    N     N_3   0.476288 0.239714 0.321260 -0.602409
H13   H     H_    0.518032 0.289009 0.300146 0.267533
H14   H     H_    0.434805 0.260997 0.283233 0.280948
N4    N     N_3   0.524430 0.762912 0.678373 -0.555906
H15   H     H_    0.480946 0.720513 0.698112 0.282022
H16   H     H_    0.564590 0.735708 0.717292 0.267620
N5    N     N_3   0.079182 0.301147 0.931090 -0.630602
H17   H     H_    0.082524 0.396842 0.971253 0.235949
H18   H     H_    0.125020 0.228895 0.934042 0.232975
N6    N     N_3   0.920782 0.698968 0.068950 -0.630889
H19   H     H_    0.874951 0.771257 0.065990 0.232592
H20   H     H_    0.917429 0.603244 0.028796 0.235890
N7    N     N_3   0.419713 0.796599 0.570215 -0.627543
H21   H     H_    0.415877 0.893212 0.530348 0.235946
H22   H     H_    0.374177 0.722762 0.567117 0.233141
N8    N     N_3   0.581481 0.205672 0.432949 -0.670875
H23   H     H_    0.561424 0.073025 0.423108 0.263691
H24   H     H_    0.606004 0.245770 0.391939 0.251324
S1    S     S_3+6 0.532753 0.255339 0.791051 0.004808
O21   O     O_2   0.456558 0.256745 0.773729 -0.327200
O22   O     O_2   0.559164 0.450196 0.794528 -0.351179
O23   O     O_3   0.563745 0.142538 0.727759 -0.506410
H25   H     H_    0.540717 0.198958 0.684695 0.366218
S2    S     S_3+6 0.467290 0.744882 0.209125 -0.001707
O24   O     O_2   0.440781 0.550104 0.205766 -0.349123
O25   O     O_2   0.543488 0.743225 0.226433 -0.334710
O26   O     O_3   0.436369 0.858154 0.272365 -0.510359
H26   H     H_    0.459681 0.802402 0.315480 0.358632
S3    S     S_3+6 0.967238 0.756149 0.708937 0.004766
O27   O     O_2   0.043430 0.757515 0.726305 -0.327349
O28   O     O_2   0.940928 0.951052 0.705380 -0.350381
O29   O     O_3   0.936149 0.643765 0.772255 -0.507421
H27   H     H_    0.959572 0.699405 0.815322 0.365766
S4    S     S_3+6 0.032766 0.243847 0.291050 0.004749
O30   O     O_2   0.058994 0.048872 0.294646 -0.350160
O31   O     O_2   0.956579 0.242698 0.273644 -0.327983
O32   O     O_3   0.063935 0.355971 0.227731 -0.507044
H28   H     H_    0.040408 0.300701 0.184628 0.365709
N9    N     N_3   0.631762 0.588270 0.020570 -0.677963
H29   H     H_    0.662005 0.579372 0.068596 0.242719
H30   H     H_    0.608301 0.460720 0.008469 0.235760
N10   N     N_3   0.368326 0.411781 0.979573 -0.677611
H31   H     H_    0.338092 0.420702 0.931543 0.243615
H32   H     H_    0.391780 0.539331 0.991694 0.235868
N11   N     N_3   0.868240 0.088009 0.479573 -0.674098
H33   H     H_    0.837999 0.078910 0.431550 0.243883
H34   H     H_    0.891678 0.960532 0.491710 0.235582
N12   N     N_3   0.131733 0.912066 0.520393 -0.677692
H35   H     H_    0.161977 0.921184 0.568416 0.243574
H36   H     H_    0.108287 0.039536 0.508252 0.235854
N13   N     N_3   0.531487 0.540163 0.107697 -0.546006
H37   H     H_    0.579114 0.515825 0.136536 0.267804
H38   H     H_    0.520525 0.431584 0.072904 0.215033
N14   N     N_3   0.468617 0.459970 0.892488 -0.545622
H39   H     H_    0.420996 0.484301 0.863636 0.269445
H40   H     H_    0.479560 0.568529 0.927292 0.215189
N15   N     N_3   0.968472 0.039749 0.392454 -0.545436
H41   H     H_    0.920844 0.015378 0.363597 0.268917
H42   H     H_    0.979384 0.931248 0.427253 0.215112
N16   N     N_3   0.031486 0.960330 0.607503 -0.545373
H43   H     H_    0.079114 0.984759 0.636352 0.269481
H44   H     H_    0.020562 0.068799 0.572693 0.215012

loop_
_geom_bond_atom_site_label_1
_geom_bond_atom_site_label_2
_ccdc_geom_bond_type
C30   C34   A    
C24   H3    S    
C55   C59   A    
O1    C5    A    
N1    H9    S    
O19   V1    S    
C18   N1    S    
O13   V1    S    
C45   C46   A    
O3    C7    A    
N7    H21   S    
C44   C48   A    
O15   V3    S    
C32   S4    S    
N8    H23   S    
O32   H28   S    
C38   H6    S    
C14   C25   A    
C38   C42   A    
O18   V4    S    
C6    C11   S    
N5    H18   S    
C13   C17   A    
C9    C18   A    
C36   C40   A    
O9    V1    S    
N10   H32   S    
C14   C18   A    
C52   C59   A    
N13   H38   S    
O4    C8    A    
C20   N3    S    
C17   N2    S    
N15   H42   S    
C31   S3    S    
N11   H33   S    
O1    V3    S    
C4    C34   S    
N6    H19   S    
C12   C23   A    
O2    V4    S    
O3    V1    S    
C15   N7    S    
C54   N10   S    
C1    O15   A    
C43   C55   A    
C16   N8    S    
C2    O16   A    
S4    O30   D    
N2    H12   S    
C42   C46   A    
C41   C45   A    
O14   V2    S    
C60   N16   S    
O5    V1    S    
C40   C44   A    
O11   C7    A    
C15   C28   A    
N9    H29   S    
O12   C8    A    
C43   C47   A    
N16   H44   S    
C9    C22   A    
C10   C17   A    
O10   V2    S    
C11   C24   A    
C51   C60   A    
O7    C3    A    
N12   H36   S    
C15   C19   A    
C35   C39   A    
C30   S2    S    
O7    V3    S    
C34   C38   A    
C27   C28   A    
O8    V4    S    
C29   C49   A    
C24   C28   A    
N10   H31   S    
S1    O23   S    
C31   C51   A    
C5    C12   S    
C23   C27   A    
C13   N5    S    
C54   C58   A    
O11   V3    S    
O4    V2    S    
C56   C60   A    
C53   N9    S    
C47   C48   A    
S3    O28   D    
O5    C1    A    
C58   N14   S    
N9    H30   S    
N3    H13   S    
C21   C25   A    
O8    C4    A    
C7    C10   S    
N2    H11   S    
C39   H7    S    
O9    C5    A    
N7    H22   S    
C10   C21   A    
N4    H16   S    
C11   C20   A    
C44   C56   A    
C50   C57   A    
S4    O31   D    
N3    H14   S    
N14   H40   S    
C49   C58   A    
N16   H43   S    
C59   N15   S    
S2    O25   D    
S3    O27   D    
O23   H25   S    
C29   S1    S    
N12   H35   S    
O16   V4    S    
N11   H34   S    
C22   C26   A    
C32   C52   A    
O6    V2    S    
C1    C35   S    
O17   V3    S    
C2    C36   S    
C48   C52   A    
C3    C33   S    
C3    O13   A    
C21   H2    S    
N8    H24   S    
C29   C33   A    
C56   N12   S    
O12   V4    S    
C16   C27   A    
N5    H17   S    
C37   H5    S    
C31   C35   A    
C8    C9    S    
C32   C36   A    
O10   C6    A    
S2    O26   S    
S1    O22   D    
O29   H27   S    
C19   N4    S    
N13   H37   S    
C55   N11   S    
C13   C26   A    
O26   H26   S    
S4    O32   S    
C37   C41   A    
C22   H1    S    
O20   V2    S    
O2    C6    A    
C40   H8    S    
N6    H20   S    
C39   C43   A    
C14   N6    S    
N4    H15   S    
C42   C54   A    
C57   N13   S    
S3    O29   S    
C41   C53   A    
O6    C2    A    
C30   C50   A    
C33   C37   A    
C16   C20   A    
N14   H39   S    
N1    H10   S    
C25   C26   A    
C46   C50   A    
C4    O14   A    
N15   H41   S    
C45   C49   A    
C12   C19   A    
S2    O24   D    
S1    O21   D    
C47   C51   A    
C53   C57   A    
C23   H4    S    
