data_mof_unit_5691.cif
_audit_creation_date              2012-12-10T17:26:23-0500
_audit_creation_method            fapswitch 2.2
_symmetry_space_group_name_H-M    P1
_symmetry_Int_Tables_number       1
_space_group_crystal_system       triclinic
_cell_length_a                    10.307553
_cell_length_b                    10.516059
_cell_length_c                    27.429399
_cell_angle_alpha                 91.414996
_cell_angle_beta                  82.276364
_cell_angle_gamma                 96.077886
_cell_volume                      2929.50549496

loop_
_atom_site_label
_atom_site_type_symbol
_atom_type_description
_atom_site_fract_x
_atom_site_fract_y
_atom_site_fract_z
_atom_type_partial_charge
C1    C     C_R   0.556613 0.734432 0.497575 0.892106
C2    C     C_R   0.454485 0.603067 0.126501 0.009617
C3    C     C_R   0.491661 0.485023 0.647302 -0.198760
C4    C     C_R   0.495291 0.508889 0.353317 -0.212598
C5    C     C_R   0.393480 0.606421 0.029896 0.083760
C6    C     C_R   0.348953 0.371633 0.982614 0.084373
C7    C     C_R   0.326211 0.376435 0.034626 -0.019862
C8    C     C_R   0.362093 0.605177 0.981330 -0.022607
C9    C     C_R   0.368221 0.492018 0.057310 0.031508
C10   C     C_R   0.361084 0.487309 0.956121 0.027654
C11   C     C_R   0.462839 0.713341 0.049686 -0.214170
C12   C     C_R   0.443761 0.265006 0.504455 0.888502
C13   C     C_R   0.375558 0.258230 0.956741 -0.213266
C14   C     C_R   0.494583 0.711068 0.097243 -0.165722
C15   C     C_R   0.405237 0.258185 0.905773 -0.161668
C16   C     C_R   0.499793 0.498522 0.593840 0.894313
C17   C     C_R   0.499348 0.501758 0.406291 0.915850
C18   C     C_R   0.340560 0.716204 0.956287 0.162376
C19   C     C_R   0.271243 0.270465 0.064490 0.153848
C20   C     C_2   0.590585 0.872461 0.501683 0.014437
C21   C     C_2   0.414058 0.127543 0.515334 0.006210
C22   C     C_2   0.508570 0.934276 0.533985 -0.262806
C23   C     C_R   0.378328 0.485250 0.904545 -0.084314
C24   C     C_2   0.510267 0.072134 0.532926 -0.245082
C25   C     C_2   0.929056 0.508375 0.505400 0.178233
C26   C     C_2   0.072153 0.492919 0.493668 0.167482
C27   C     C_R   0.376460 0.584466 0.826785 0.525517
C28   C     C_R   0.354504 0.398435 0.187057 0.586502
C29   C     C_R   0.439089 0.373145 0.828336 0.528574
C30   C     C_R   0.482312 0.600488 0.174721 0.479399
C31   C     C_R   0.362968 0.399121 0.722739 0.140496
C32   C     C_R   0.399868 0.602816 0.287639 0.156258
C33   C     C_R   0.398125 0.389836 0.671282 0.090723
C34   C     C_R   0.388624 0.493173 0.106841 -0.091502
C35   C     C_R   0.440513 0.613497 0.334973 0.060913
C36   C     C_R   0.562199 0.576002 0.675290 0.017332
C37   C     C_R   0.533084 0.406676 0.321881 -0.010674
C38   C     C_R   0.551064 0.560563 0.726479 0.513788
C39   C     C_R   0.519247 0.412770 0.271859 0.508391
C40   C     C_R   0.446435 0.477994 0.750292 0.125503
C41   C     C_R   0.447147 0.505868 0.255409 0.126774
C42   C     C_3   0.633915 0.698099 0.652425 -0.399511
C43   C     C_3   0.538544 0.798480 0.649425 -0.886923
C44   C     C_3   0.585238 0.289959 0.341128 -0.339523
C45   C     C_R   0.374228 0.598116 0.878155 -0.104594
C46   C     C_3   0.475592 0.204228 0.371091 -0.843880
C47   C     C_3   0.286984 0.046476 0.506432 -0.383652
C48   C     C_3   0.184972 0.114926 0.485092 -0.915829
C49   C     C_3   0.704999 0.945439 0.469087 -0.413750
C50   C     C_3   0.787715 0.863946 0.432755 -0.856890
C51   C     C_3   0.116356 0.408835 0.450162 -0.366638
C52   C     C_3   0.122074 0.477633 0.401316 -0.861246
C53   C     C_3   0.886715 0.593374 0.548544 -0.372567
C54   C     C_3   0.888186 0.526262 0.597602 -0.867125
C55   C     C_3   0.635848 0.732920 0.770834 -0.287723
C56   C     C_R   0.349104 0.383524 0.136016 -0.127265
C57   C     C_3   0.691831 0.362555 0.217255 -0.346229
C58   C     C_3   0.402237 0.845460 0.878094 -0.364472
C59   C     C_3   0.521304 0.919506 0.897481 -0.950074
C60   C     C_3   0.294295 0.138385 0.139106 -0.333996
C61   C     C_3   0.366636 0.040187 0.106918 -0.940076
C62   C     C_3   0.434908 0.738584 0.364428 -0.392300
C63   C     C_3   0.527260 0.846112 0.338013 -0.852827
C64   C     C_3   0.339777 0.275797 0.642932 -0.381679
C65   C     C_3   0.402108 0.154920 0.652730 -0.866033
C66   C     C_3   0.303087 0.689793 0.271968 -0.371528
C67   C     C_R   0.363768 0.716919 0.904040 0.148195
C68   C     C_3   0.169583 0.616163 0.266848 -0.872458
C69   C     C_3   0.232703 0.332983 0.747534 -0.369339
C70   C     C_3   0.117907 0.404702 0.737356 -0.834915
C71   C     C_3   0.274895 0.825495 0.984212 -0.421048
C72   C     C_3   0.148580 0.777746 0.017362 -0.852599
C73   C     C_3   0.162211 0.175612 0.047815 -0.416229
C74   C     C_3   0.049328 0.243772 0.033394 -0.847587
C75   C     C_R   0.299789 0.267420 0.113723 0.136610
C76   C     C_R   0.406182 0.370682 0.879392 -0.005732
H1    H     H_    0.129979 0.610245 0.548920 0.169793
H2    H     H_    0.489685 0.822983 0.686431 0.270771
H3    H     H_    0.592990 0.886814 0.632553 0.256344
H4    H     H_    0.714403 0.737905 0.673133 0.234061
H5    H     H_    0.680680 0.680427 0.614904 0.214016
H6    H     H_    0.413046 0.260069 0.397655 0.241252
H7    H     H_    0.412196 0.150812 0.346157 0.271903
H8    H     H_    0.519499 0.135384 0.392314 0.231465
H9    H     H_    0.630669 0.230490 0.310873 0.242002
H10   H     H_    0.665619 0.319486 0.363375 0.209921
H11   H     H_    0.146415 0.187953 0.511474 0.276729
H12   H     H_    0.870352 0.390607 0.450855 0.161072
H13   H     H_    0.227999 0.157862 0.449303 0.255844
H14   H     H_    0.100709 0.044601 0.478481 0.249772
H15   H     H_    0.312551 0.966999 0.480594 0.227229
H16   H     H_    0.239576 0.003569 0.541900 0.211539
H17   H     H_    0.845218 0.803688 0.452621 0.271600
H18   H     H_    0.724337 0.802992 0.409893 0.264783
H19   H     H_    0.858674 0.927630 0.407896 0.242933
H20   H     H_    0.664863 0.016337 0.447341 0.221074
H21   H     H_    0.771531 0.998911 0.492947 0.212434
H22   H     H_    0.022272 0.492940 0.393357 0.236414
H23   H     H_    0.549749 0.794503 0.111093 0.186873
H24   H     H_    0.180519 0.572288 0.402178 0.277750
H25   H     H_    0.169069 0.419227 0.370978 0.259162
H26   H     H_    0.211461 0.376113 0.452698 0.273386
H27   H     H_    0.052231 0.317346 0.450178 0.158522
H28   H     H_    0.806906 0.448096 0.603588 0.286022
H29   H     H_    0.981368 0.483275 0.598833 0.242878
H30   H     H_    0.877814 0.596040 0.628469 0.249551
H31   H     H_    0.949694 0.685907 0.546887 0.150882
H32   H     H_    0.790933 0.624607 0.546290 0.262697
H33   H     H_    0.549394 0.774816 0.760135 0.178802
H34   H     H_    0.427492 0.169902 0.887065 0.187982
H35   H     H_    0.725055 0.798047 0.757978 0.180517
H36   H     H_    0.627347 0.730329 0.811525 0.190539
H37   H     H_    0.760881 0.381511 0.245139 0.160969
H38   H     H_    0.691828 0.449493 0.194969 0.186951
H39   H     H_    0.728970 0.286646 0.191984 0.203431
H40   H     H_    0.493726 0.960409 0.934585 0.255360
H41   H     H_    0.600076 0.855893 0.899079 0.269121
H42   H     H_    0.561906 0.999437 0.872374 0.270212
H43   H     H_    0.433486 0.835315 0.838440 0.250747
H44   H     H_    0.318231 0.904176 0.881275 0.205538
H45   H     H_    0.502267 0.795259 0.027405 0.147176
H46   H     H_    0.312862 0.006919 0.076019 0.258368
H47   H     H_    0.467605 0.081627 0.092292 0.268315
H48   H     H_    0.374096 0.955265 0.129262 0.267793
H49   H     H_    0.345709 0.146510 0.172044 0.276504
H50   H     H_    0.190754 0.099817 0.151071 0.205925
H51   H     H_    0.627875 0.816012 0.328880 0.266854
H52   H     H_    0.492174 0.873641 0.303675 0.275406
H53   H     H_    0.533014 0.931041 0.362564 0.246411
H54   H     H_    0.332920 0.765306 0.372247 0.197554
H55   H     H_    0.467836 0.731968 0.400938 0.211874
H56   H     H_    0.385312 0.171703 0.975750 0.135813
H57   H     H_    0.509055 0.167070 0.639007 0.262283
H58   H     H_    0.389337 0.133371 0.692576 0.275020
H59   H     H_    0.355274 0.072244 0.633213 0.252013
H60   H     H_    0.231419 0.259750 0.652326 0.210385
H61   H     H_    0.356326 0.289758 0.602833 0.216447
H62   H     H_    0.176777 0.548482 0.235293 0.276224
H63   H     H_    0.130584 0.562832 0.300991 0.268121
H64   H     H_    0.098639 0.684354 0.260331 0.249222
H65   H     H_    0.283135 0.767984 0.298594 0.210511
H66   H     H_    0.342629 0.738608 0.237031 0.234207
H67   H     H_    0.600970 0.127004 0.540469 0.182080
H68   H     H_    0.128293 0.503014 0.753119 0.291399
H69   H     H_    0.113874 0.411165 0.697279 0.251027
H70   H     H_    0.023809 0.353916 0.754795 0.257670
H71   H     H_    0.217070 0.231962 0.735356 0.214542
H72   H     H_    0.228246 0.328864 0.787970 0.213028
H73   H     H_    0.081382 0.716820 0.995891 0.264935
H74   H     H_    0.170337 0.722440 0.048661 0.269578
H75   H     H_    0.097699 0.860753 0.032713 0.243090
H76   H     H_    0.342234 0.883368 0.005974 0.190580
H77   H     H_    0.245225 0.893651 0.958777 0.211045
H78   H     H_    0.425704 0.882602 0.556459 0.170988
H79   H     H_    0.011989 0.307253 0.063908 0.258640
H80   H     H_    0.081736 0.301359 0.999765 0.267552
H81   H     H_    0.967507 0.171853 0.025654 0.247858
H82   H     H_    0.198562 0.113471 0.017059 0.200693
H83   H     H_    0.117621 0.109765 0.077803 0.216416
H84   H     H_    0.461580 0.762125 0.626436 0.259610
N1    N     N_R   0.422300 0.479053 0.803008 -0.313203
N2    N     N_R   0.426162 0.502392 0.204707 -0.314026
N3    N     N_2   0.842700 0.448890 0.480020 -0.222597
N4    N     N_2   0.157300 0.551110 0.519980 -0.225717
O1    O     O_R   0.431060 0.692470 0.504020 -0.624278
O2    O     O_2   0.283463 0.314868 0.219309 -0.581457
O3    O     O_2   0.563067 0.695764 0.191881 -0.594100
O4    O     O_2   0.483346 0.269850 0.803969 -0.579231
O5    O     O_3   0.653323 0.608891 0.751986 -0.609581
O6    O     O_3   0.563833 0.319198 0.239402 -0.596479
O7    O     O_R   0.568940 0.307530 0.495980 -0.613232
O8    O     O_R   0.651120 0.659650 0.491200 -0.618462
O9    O     O_R   0.348880 0.340350 0.508800 -0.625099
O10   O     O_R   0.389980 0.516390 0.577660 -0.611785
O11   O     O_R   0.610020 0.483610 0.422340 -0.606523
O12   O     O_R   0.610040 0.483570 0.564830 -0.622590
O13   O     O_R   0.389960 0.516430 0.435170 -0.620674
O14   O     O_2   0.326429 0.670659 0.800974 -0.611970
Zn1   Zn    Zn3+2 0.353060 0.521910 0.508560 0.896991
Zn2   Zn    Zn3+2 0.646940 0.478090 0.491440 0.904041

loop_
_geom_bond_atom_site_label_1
_geom_bond_atom_site_label_2
_ccdc_geom_bond_type
C66   C68   S    
C64   H60   S    
C34   C56   A    
C23   C45   A    
C55   H36   S    
C47   H16   S    
C62   H54   S    
C36   C42   S    
C27   O14   S    
C23   C76   A    
C28   C56   A    
C28   N2    A    
C14   H23   S    
C39   C41   A    
C29   C76   A    
C53   C54   S    
C51   H26   S    
C42   H4    S    
C20   C49   S    
C61   H48   S    
C63   H51   S    
C29   O4    S    
C54   H28   S    
C60   H49   S    
C25   C53   S    
C30   O3    S    
C5    C11   A    
C39   O6    S    
C11   C14   A    
C50   H19   S    
C27   C45   A    
C3    C33   A    
C24   H67   S    
C43   H3    S    
C71   H77   S    
C31   C40   A    
C73   C74   S    
C26   N4    D    
C60   H50   S    
C7    C19   A    
C46   H6    S    
C68   H62   S    
C47   C48   S    
C59   H40   S    
O13   Zn1   S    
C45   C67   A    
C32   C41   A    
C31   C33   A    
C70   H70   S    
C65   H58   S    
C54   H29   S    
C28   O2    S    
O8    Zn2   S    
H1    N4    S    
C15   C76   A    
C4    C35   A    
C59   H41   S    
C56   C75   A    
C48   H14   S    
C41   N2    S    
C55   H33   S    
C15   H34   S    
C11   H45   S    
C42   H5    S    
C44   H10   S    
C44   C46   S    
C12   O7    A    
C64   H61   S    
C52   H25   S    
C54   H30   S    
C51   C52   S    
C32   C35   A    
C29   N1    A    
C19   C73   S    
C57   H39   S    
C43   H84   S    
C66   H65   S    
C50   H18   S    
C57   H37   S    
C25   C26   S    
C73   H82   S    
C52   H24   S    
C8    C18   A    
C60   C61   S    
C43   H2    S    
C5    C9    A    
C62   C63   S    
C53   H31   S    
O12   Zn2   S    
C71   H76   S    
C1    O1    A    
C72   H75   S    
C58   H44   S    
C48   H11   S    
C74   H80   S    
C70   H69   S    
C65   H59   S    
N4    Zn1   S    
C46   H8    S    
C4    C17   S    
C20   C22   D    
C72   H73   S    
C59   H42   S    
C72   H74   S    
C48   H13   S    
C13   C15   A    
C9    C34   A    
C69   H71   S    
C22   C24   S    
O7    Zn2   S    
C68   H64   S    
C42   C43   S    
C30   N2    A    
C44   H9    S    
C38   O5    S    
C32   C66   S    
C57   O6    S    
C22   H78   S    
C16   O10   A    
C18   C71   S    
C7    C9    A    
C1    C20   S    
C1    O8    A    
C74   H81   S    
C55   H35   S    
C2    C34   A    
C47   H15   S    
C62   H55   S    
C63   H52   S    
C6    C10   A    
C5    C8    A    
C50   H17   S    
C6    C7    A    
C66   H66   S    
C10   C23   A    
H12   N3    S    
C73   H83   S    
C60   C75   S    
C70   H68   S    
C61   H47   S    
C2    C30   A    
C64   C65   S    
C37   C44   S    
C19   C75   A    
C18   C67   A    
C40   N1    S    
C37   C39   A    
C26   C51   S    
C27   N1    A    
C36   C38   A    
C38   C40   A    
C53   H32   S    
C16   O12   A    
C57   H38   S    
C3    C36   A    
C25   N3    D    
C33   C64   S    
O1    Zn1   S    
C12   C21   S    
C52   H22   S    
C58   H43   S    
C13   H56   S    
C74   H79   S    
C35   C62   S    
C63   H53   S    
C49   H20   S    
C69   C70   S    
C2    C14   A    
C58   C59   S    
O11   Zn2   S    
C49   H21   S    
C46   H7    S    
C58   C67   S    
C31   C69   S    
C71   C72   S    
C4    C37   A    
C8    C10   A    
C49   C50   S    
C21   C24   D    
N3    Zn2   S    
C69   H72   S    
O9    Zn1   S    
C61   H46   S    
C68   H63   S    
C17   O13   A    
C21   C47   S    
C51   H27   S    
O10   Zn1   S    
C55   O5    S    
C65   H57   S    
C3    C16   S    
C17   O11   A    
C12   O9    A    
C6    C13   A    
