data_mof_unit_28455.cif
_audit_creation_date              2012-12-10T17:59:43-0500
_audit_creation_method            fapswitch 2.2
_symmetry_space_group_name_H-M    P1
_symmetry_Int_Tables_number       1
_space_group_crystal_system       triclinic
_cell_length_a                    10.833307
_cell_length_b                    9.51847
_cell_length_c                    15.914634
_cell_angle_alpha                 89.973753
_cell_angle_beta                  90.158996
_cell_angle_gamma                 90.000223
_cell_volume                      1641.05498828

loop_
_atom_site_label
_atom_site_type_symbol
_atom_type_description
_atom_site_fract_x
_atom_site_fract_y
_atom_site_fract_z
_atom_type_partial_charge
C1    C     C_R   0.262066 0.500000 0.500031 0.793866
C2    C     C_R   0.936156 0.627672 0.500327 -0.159768
C3    C     C_R   0.871789 0.499999 0.500321 -0.015667
C4    C     C_R   0.128222 0.499999 0.500177 -0.019139
C5    C     C_R   0.421833 0.074451 0.448769 -0.011321
C6    C     C_R   0.421833 0.925625 0.448769 -0.011614
C7    C     C_R   0.500073 0.500030 0.340246 0.816171
C8    C     C_R   0.578180 0.925546 0.551312 -0.004280
C9    C     C_R   0.578178 0.074379 0.551314 -0.000931
C10   C     C_R   0.737941 0.500000 0.500155 0.802750
C11   C     C_R   0.500161 0.499953 0.659741 0.842571
C12   C     C_3   0.647972 0.489094 0.950849 -0.158478
C13   C     C_3   0.459666 0.642029 0.049689 -0.474848
C14   C     C_3   0.420786 0.382718 0.049892 -0.543238
C15   C     C_3   0.431647 0.365911 0.952502 0.271534
C16   C     C_3   0.445178 0.639583 0.951934 0.267014
C17   C     C_1   0.501892 0.499657 0.749092 -0.029870
C18   C     C_3   0.508199 0.499445 0.083257 0.132882
C19   C     C_3   0.507300 0.497773 0.917115 -0.038813
C20   C     C_2   0.308705 0.651685 0.929066 0.405037
C21   C     C_2   0.302217 0.350027 0.914689 0.410295
C22   C     C_2   0.719137 0.620254 0.922647 0.379047
C23   C     C_3   0.643995 0.476533 0.051862 0.620894
C24   C     C_2   0.723538 0.367044 0.914357 0.491817
C25   C     C_1   0.504094 0.498743 0.824451 0.122932
C26   C     C_1   0.504404 0.499937 0.175474 0.094618
C27   C     C_1   0.501961 0.500074 0.250820 -0.162526
C28   C     C_R   0.063858 0.372326 0.500301 -0.162491
C29   C     C_R   0.063859 0.627672 0.500232 -0.163080
C30   C     C_R   0.936155 0.372326 0.500395 -0.159605
Cu1   Cu    Cu3+1 0.500020 0.640660 0.500000 0.971928
Cu2   Cu    Cu3+1 0.500020 0.359340 0.500000 0.976933
H1    H     H_    0.640803 0.869425 0.592390 0.136754
H2    H     H_    0.888131 0.727495 0.500348 0.152897
H3    H     H_    0.359169 0.130570 0.407721 0.118585
H4    H     H_    0.359171 0.869568 0.407721 0.118442
H5    H     H_    0.237573 0.630798 0.975329 0.032865
H6    H     H_    0.220243 0.364238 0.952791 0.051170
H7    H     H_    0.496582 0.222369 0.875513 0.385904
H8    H     H_    0.497278 0.762738 0.858568 0.365364
H9    H     H_    0.806176 0.553403 0.079776 0.331866
H10   H     H_    0.641387 0.268051 0.054628 0.347900
H11   H     H_    0.729893 0.710298 0.963738 0.162252
H12   H     H_    0.640795 0.130440 0.592395 0.139466
H13   H     H_    0.800833 0.324597 0.949695 0.093354
H14   H     H_    0.371332 0.669080 0.081472 0.138555
H15   H     H_    0.325157 0.410825 0.069089 0.130540
H16   H     H_    0.439185 0.280830 0.081893 0.231029
H17   H     H_    0.524701 0.726886 0.068743 0.254024
H18   H     H_    0.111888 0.272506 0.500287 0.154360
H19   H     H_    0.111889 0.727493 0.500163 0.154191
H20   H     H_    0.888130 0.272503 0.500472 0.153010
N1    N     N_R   0.500030 0.852070 0.500020 -0.162882
N2    N     N_R   0.500030 0.147930 0.500020 -0.163509
O1    O     O_R   0.319660 0.618740 0.500000 -0.588981
O2    O     O_2   0.288038 0.320446 0.840616 -0.522243
O3    O     O_3   0.494928 0.239084 0.937062 -0.704844
O4    O     O_3   0.504023 0.761317 0.920744 -0.695918
O5    O     O_3   0.718782 0.580268 0.089639 -0.746349
O6    O     O_3   0.687425 0.345194 0.081955 -0.742316
O7    O     O_2   0.758586 0.630961 0.851000 -0.511873
O8    O     O_2   0.707496 0.323749 0.842949 -0.525344
O9    O     O_R   0.319660 0.381260 0.500000 -0.588715
O10   O     O_R   0.500020 0.618840 0.379440 -0.577065
O11   O     O_R   0.500020 0.381160 0.379440 -0.575820
O12   O     O_R   0.680370 0.618830 0.500010 -0.590482
O13   O     O_R   0.680370 0.381170 0.500010 -0.590403
O14   O     O_R   0.500010 0.618730 0.620560 -0.573390
O15   O     O_R   0.500010 0.381270 0.620560 -0.561938
O16   O     O_2   0.276659 0.680541 0.857461 -0.515079

loop_
_geom_bond_atom_site_label_1
_geom_bond_atom_site_label_2
_ccdc_geom_bond_type
C8    N1    A    
C8    C9    A    
Cu1   O12   S    
C24   O8    D    
C11   O15   A    
Cu2   O15   S    
C7    O11   A    
C14   C18   S    
Cu1   O10   S    
C4    C29   A    
C18   C26   S    
C16   C20   S    
C1    C4    S    
C17   C25   T    
C2    H2    S    
C28   C30   A    
C2    C3    A    
C1    O1    A    
C3    C10   S    
C16   O4    S    
C10   O13   A    
Cu1   N1    S    
C22   O7    D    
C23   O5    S    
C20   H5    S    
C15   O3    S    
C12   C23   S    
C20   O16   D    
C26   C27   T    
C23   O6    S    
C10   O12   A    
C13   C18   S    
Cu2   O13   S    
C13   H17   S    
C24   H13   S    
C1    O9    A    
C3    C30   A    
Cu2   N2    S    
C4    C28   A    
C6    H4    S    
C15   C19   S    
C21   O2    D    
C8    H1    S    
C2    C29   A    
C16   C19   S    
Cu1   O14   S    
C19   C25   S    
C7    O10   A    
C13   C16   S    
H8    O4    S    
C6    N1    A    
C18   C23   S    
H7    O3    S    
C12   C22   S    
C5    N2    A    
C15   C21   S    
C7    C27   S    
C11   O14   A    
C12   C19   S    
C12   C24   S    
C29   H19   S    
H9    O5    S    
H10   O6    S    
C5    C6    A    
C30   H20   S    
C13   H14   S    
C11   C17   S    
C9    H12   S    
C14   H16   S    
C9    N2    A    
Cu1   O1    S    
C14   C15   S    
C14   H15   S    
C28   H18   S    
C5    H3    S    
C22   H11   S    
C21   H6    S    
Cu1   Cu2   S    
Cu2   O9    S    
Cu2   O11   S    
