data_mof_unit_35136.cif
_audit_creation_date              2013-03-05T15:55:00-0500
_audit_creation_method            fapswitch 2.2
_symmetry_space_group_name_H-M    P1
_symmetry_Int_Tables_number       1
_space_group_crystal_system       triclinic
_cell_length_a                    23.459538
_cell_length_b                    10.618836
_cell_length_c                    9.96869
_cell_angle_alpha                 88.778428
_cell_angle_beta                  90.221825
_cell_angle_gamma                 93.272768
_cell_volume                      2478.70774782

loop_
_atom_site_label
_atom_site_type_symbol
_atom_site_description
_atom_site_fract_x
_atom_site_fract_y
_atom_site_fract_z
_atom_type_partial_charge
O1    O     O_R   0.500000 0.316780 0.614690 -0.547864
O2    O     O_R   0.500000 0.316750 0.385360 -0.645466
C1    C     C_R   0.500652 0.260994 0.501141 0.997461
O3    O     O_R   0.416160 0.499970 0.614690 -0.537128
O4    O     O_R   0.416150 0.499950 0.385360 -0.657041
C2    C     C_R   0.389568 0.504276 0.499746 0.914501
Zn1   Zn    Zn3+2 0.500000 0.500020 0.653130 1.030816
Zn2   Zn    Zn3+2 0.500000 0.499980 0.346870 1.012014
O5    O     O_R   0.500000 0.683250 0.614640 -0.619653
O6    O     O_R   0.500000 0.683220 0.385310 -0.571040
O7    O     O_R   0.583850 0.500050 0.614640 -0.613300
O8    O     O_R   0.583840 0.500030 0.385310 -0.576953
C3    C     C_R   0.500021 0.738909 0.498706 0.852603
C4    C     C_R   0.610650 0.499928 0.500316 0.847277
C5    C     C_R   0.882586 0.614125 0.502822 0.580723
N1    N     N_R   0.852686 0.505081 0.469967 -0.328963
C6    C     C_R   0.879017 0.401270 0.429077 0.655762
C7    C     C_R   0.938577 0.402731 0.425921 -0.127666
C8    C     C_R   0.970502 0.513042 0.463045 -0.011258
C9    C     C_R   0.942226 0.620384 0.499806 -0.028519
C10   C     C_R   0.966492 0.296692 0.386743 -0.116661
C11   C     C_R   0.025758 0.298123 0.384255 0.463621
C12   C     C_R   0.058441 0.405797 0.429768 -0.151279
C13   C     C_R   0.030553 0.515370 0.464987 -0.048397
C14   C     C_R   0.062447 0.626568 0.503415 -0.068374
C15   C     C_R   0.033196 0.733916 0.542352 -0.045929
C16   C     C_R   0.973680 0.729929 0.536941 -0.169808
C17   C     C_R   0.117808 0.406664 0.446523 0.533619
N2    N     N_R   0.148039 0.516072 0.476259 -0.345513
C18   C     C_R   0.122320 0.625887 0.497819 0.544246
O9    O     O_2   0.854496 0.715336 0.539574 -0.509099
O10   O     O_2   0.847496 0.296741 0.393903 -0.534952
H1    H     H_    0.942389 0.212508 0.354599 0.222374
O11   O     O_2   0.145405 0.299123 0.437119 -0.519896
O12   O     O_2   0.155051 0.733600 0.510298 -0.496348
H2    H     H_    0.951767 0.811789 0.567560 0.213905
C19   C     C_R   0.236608 0.539905 0.605309 -0.061362
H3    H     H_    0.212044 0.558915 0.693692 0.179980
C20   C     C_R   0.295920 0.544116 0.612557 0.487438
C21   C     C_R   0.327512 0.514904 0.497097 -0.165829
C22   C     C_R   0.298713 0.494234 0.374959 -0.211991
H4    H     H_    0.321619 0.477002 0.283892 0.186912
C23   C     C_R   0.239827 0.494976 0.368281 -0.080794
H5    H     H_    0.218206 0.478699 0.273499 0.179792
C24   C     C_R   0.208717 0.515968 0.483631 0.188874
C25   C     C_R   0.760244 0.532036 0.367902 0.521976
C26   C     C_R   0.701116 0.532575 0.378071 -0.274549
H6    H     H_    0.676837 0.559937 0.290599 0.200292
C27   C     C_R   0.673305 0.499039 0.499034 -0.175710
C28   C     C_R   0.705625 0.464682 0.613402 -0.112059
C29   C     C_R   0.765612 0.466259 0.604337 -0.142664
C30   C     C_R   0.792066 0.499137 0.480590 0.191337
C31   C     C_R   0.607203 0.142508 0.491044 -0.125146
H7    H     H_    0.609268 0.244163 0.493202 0.139469
C32   C     C_R   0.658557 0.083137 0.484284 -0.199787
H8    H     H_    0.698330 0.140200 0.481525 0.167896
C33   C     C_R   0.658413 0.951172 0.481224 0.500435
C34   C     C_R   0.606326 0.880621 0.484936 -0.105513
H9    H     H_    0.607546 0.778994 0.482054 0.153215
C35   C     C_R   0.553835 0.940122 0.491896 -0.038319
C36   C     C_R   0.554383 0.071484 0.495309 -0.006559
C37   C     C_R   0.501849 0.128416 0.503007 -0.219607
C38   C     C_R   0.449173 0.060188 0.506356 0.410727
C39   C     C_R   0.448077 0.929481 0.501699 0.340210
C40   C     C_R   0.500631 0.871444 0.495715 -0.211666
C41   C     C_R   0.418552 0.350945 0.148226 -0.206087
H10   H     H_    0.422359 0.336635 0.253191 0.254218
C42   C     C_R   0.370197 0.294262 0.089155 -0.175763
C43   C     C_R   0.366848 0.293284 0.949457 -0.186056
C44   C     C_R   0.413274 0.346738 0.872698 0.442632
C45   C     C_R   0.457857 0.426471 0.931376 0.098757
C46   C     C_R   0.459150 0.426554 0.075210 -0.000420
N3    N     N_R   0.499460 0.498800 0.142780 -0.114662
C47   C     C_R   0.538961 0.571945 0.070593 0.507902
H11   H     H_    0.570140 0.629468 0.871014 0.181140
C48   C     C_R   0.538763 0.571246 0.926866 -0.228098
N4    N     N_R   0.499440 0.498720 0.857170 -0.109168
C49   C     C_2   0.677376 0.418481 0.738962 1.007281
O13   O     O_2   0.659520 0.308336 0.749614 -0.634160
O14   O     O_R   0.671207 0.501149 0.844425 -0.751775
H12   H     H_    0.652071 0.458144 0.925555 0.336584
C50   C     C_2   0.800985 0.433648 0.723171 0.947585
O15   O     O_2   0.839518 0.361783 0.712178 -0.604274
O16   O     O_R   0.790440 0.485872 0.847576 -0.739470
H13   H     H_    0.817251 0.456583 0.920362 0.365646
O17   O     O_3   0.399723 0.125301 0.511310 -0.724439
H14   H     H_    0.365899 0.065866 0.521452 0.414959
O18   O     O_3   0.708185 0.888434 0.474531 -0.721188
H15   H     H_    0.741075 0.951429 0.472679 0.364463
O19   O     O_3   0.395480 0.862824 0.503347 -0.758104
H16   H     H_    0.399485 0.773072 0.483515 0.321007
O20   O     O_3   0.578605 0.646258 0.139888 -0.736081
H17   H     H_    0.604302 0.692519 0.074661 0.327902
O21   O     O_3   0.049803 0.194009 0.333257 -0.672614
H18   H     H_    0.080751 0.225108 0.271557 0.368662
C51   C     C_2   0.323653 0.238684 0.176536 0.990176
O22   O     O_2   0.335214 0.182988 0.280748 -0.569114
O23   O     O_R   0.266552 0.254383 0.142547 -0.774739
H19   H     H_    0.238993 0.214492 0.211383 0.375611
C52   C     C_2   0.317863 0.226720 0.879779 1.004735
O24   O     O_2   0.298349 0.124154 0.921768 -0.570475
O25   O     O_R   0.295792 0.279637 0.762371 -0.744912
H20   H     H_    0.263308 0.225282 0.722662 0.363811
O26   O     O_3   0.417181 0.307884 0.744465 -0.667290
H21   H     H_    0.405982 0.216503 0.741809 0.338388
C53   C     C_2   0.061633 0.849144 0.599127 1.015704
O27   O     O_2   0.094845 0.840822 0.693355 -0.554383
O28   O     O_R   0.047640 0.967717 0.549773 -0.739013
H22   H     H_    0.068959 0.039415 0.597687 0.376762
O29   O     O_3   0.320928 0.578856 0.732406 -0.711222
H23   H     H_    0.354086 0.637797 0.711388 0.347980
O30   O     O_3   0.788375 0.564694 0.249593 -0.728728
H24   H     H_    0.759951 0.584938 0.179625 0.355513

loop_
_geom_bond_atom_site_label_1
_geom_bond_atom_site_label_2
_geom_bond_distance
_ccdc_geom_bond_type
C41   C42   1.388471 A    
C32   H8    1.083258 S    
C25   O30   1.381736 S    
C7    C10   1.397939 A    
C11   O21   1.377069 S    
N3    C47   1.370770 A    
C8    C9    1.406986 A    
C39   O19   1.386999 S    
C23   H5    1.083106 S    
C15   C53   1.481866 S    
O19   H16   0.987240 S    
C26   C27   1.402777 A    
C3    C40   1.406306 S    
C31   H7    1.078447 S    
Zn1   O7    2.005593 S    
C15   C16   1.395325 A    
C37   C38   1.396478 A    
C47   C48   1.432941 A    
C18   O12   1.348474 S    
O20   H17   0.991523 S    
C17   N2    1.363646 A    
C19   H3    1.083469 S    
C43   C44   1.418185 A    
O4    C2    1.304692 A    
O7    C4    1.303771 A    
C44   O26   1.356625 S    
C4    C27   1.470535 S    
C10   H1    1.083808 S    
C53   O27   1.223053 D    
C34   C35   1.418368 A    
C5    N1    1.364455 A    
C25   C30   1.395646 A    
O28   H22   1.013956 S    
C7    C8    1.409305 A    
C22   H4    1.080950 S    
C47   O20   1.378150 S    
O5    C3    1.286796 A    
O29   H23   0.990359 S    
O30   H24   0.991821 S    
O25   H20   1.013786 S    
C31   C36   1.413662 A    
O16   H13   1.013900 S    
C20   O29   1.377064 S    
C41   C46   1.405212 A    
C42   C43   1.394743 A    
C51   O23   1.398776 S    
C12   C13   1.418180 A    
C44   C45   1.438124 A    
Zn1   N4    2.033852 S    
C41   H10   1.058295 S    
C17   O11   1.349609 S    
C10   C11   1.389880 A    
C22   C23   1.383269 A    
O21   H18   0.990916 S    
O3    Zn1   2.002345 S    
C28   C49   1.479747 S    
O26   H21   0.991593 S    
C28   C29   1.409657 A    
C31   C32   1.393752 A    
C5    C9    1.397303 A    
C29   C30   1.411239 A    
C13   C14   1.420221 A    
O3    C2    1.303723 A    
C20   C21   1.420688 A    
C49   O13   1.222237 D    
C46   N3    1.367766 A    
C14   C15   1.425193 A    
C50   O15   1.222548 D    
N2    C24   1.425151 S    
C35   C36   1.395371 A    
O1    C1    1.289254 A    
H11   C48   1.081946 S    
N2    C18   1.364573 A    
C26   H6    1.083252 S    
Zn2   O8    2.002342 S    
C51   O22   1.221687 D    
C52   O25   1.397921 S    
C6    C7    1.396917 A    
C42   C51   1.487010 S    
C12   C17   1.401596 A    
C48   N4    1.365117 A    
C23   C24   1.393048 A    
C29   C50   1.489826 S    
C21   C22   1.405405 A    
O8    C4    1.305525 A    
C35   C40   1.409405 A    
O23   H19   1.013956 S    
C50   O16   1.397880 S    
C32   C33   1.402109 A    
C38   O17   1.385555 S    
C2    C21   1.466679 S    
C19   C24   1.397159 A    
C45   N4    1.408316 A    
O17   H14   0.989404 S    
C1    C37   1.409433 S    
C14   C18   1.406367 A    
Zn1   O5    1.975121 S    
C25   C26   1.391560 A    
O1    Zn1   1.991167 S    
O2    Zn2   1.975120 S    
N1    C30   1.424162 S    
O14   H12   1.013816 S    
O6    C3    1.286849 A    
O4    Zn2   2.005595 S    
C5    O9    1.350219 S    
C9    C16   1.397452 A    
C16   H2    1.084698 S    
C33   O18   1.379479 S    
C39   C40   1.411467 A    
O2    C1    1.286346 A    
C34   H9    1.082173 S    
C45   C46   1.434063 A    
C19   C20   1.391232 A    
C33   C34   1.396571 A    
N1    C6    1.364459 A    
C53   O28   1.398115 S    
Zn2   N3    2.034802 S    
C8    C13   1.407642 A    
C49   O14   1.397082 S    
C36   C37   1.406418 A    
C38   C39   1.388491 A    
C43   C52   1.491542 S    
O18   H15   0.991861 S    
Zn2   O6    1.991169 S    
C27   C28   1.419497 A    
C6    O10   1.350066 S    
C11   C12   1.421383 A    
C52   O24   1.223147 D    
