data_mof_unit_42313.cif
_audit_creation_date              2012-12-11T17:06:32-0500
_audit_creation_method            fapswitch 2.2
_symmetry_space_group_name_H-M    P1
_symmetry_Int_Tables_number       1
_space_group_crystal_system       triclinic
_cell_length_a                    6.968917
_cell_length_b                    14.479628
_cell_length_c                    15.984977
_cell_angle_alpha                 90.442618
_cell_angle_beta                  89.801817
_cell_angle_gamma                 89.927887
_cell_volume                      1612.94216949

loop_
_atom_site_label
_atom_site_type_symbol
_atom_type_description
_atom_site_fract_x
_atom_site_fract_y
_atom_site_fract_z
_atom_type_partial_charge
O1    O     O_R   0.494400 0.415450 0.412630 -0.542558
O2    O     O_R   0.823940 0.405730 0.586760 -0.523478
O3    O     O_R   0.994240 0.584550 0.587370 -0.526873
C1    C     C_R   0.654665 0.382301 0.614137 0.722193
O4    O     O_R   0.824110 0.404430 0.413240 -0.545404
O5    O     O_R   0.994420 0.583240 0.412620 -0.532794
C2    C     C_R   0.655551 0.382122 0.384383 0.684644
O6    O     O_R   0.494230 0.416760 0.587380 -0.534661
O7    O     O_3   0.660800 0.558670 0.500000 -0.347881
V1    V     V_3+5 0.935650 0.489120 0.500000 1.510728
O8    O     O_R   0.324140 0.594270 0.413240 -0.533686
C3    C     C_R   0.154838 0.617657 0.385600 0.741032
O9    O     O_R   0.323960 0.595570 0.586760 -0.526503
C4    C     C_R   0.154429 0.617507 0.615577 0.751781
V2    V     V_3+5 0.435660 0.510880 0.500000 1.513708
O10   O     O_3   0.160640 0.441330 0.500000 -0.364864
C5    C     C_3   0.958680 0.713669 0.735271 0.438052
C6    C     C_3   0.067657 0.706307 0.818797 -0.295166
H1    H     H_    0.016322 0.672660 0.876865 0.133253
C7    C     C_3   0.123426 0.808911 0.810924 -0.147079
C8    C     C_3   0.013090 0.815948 0.728211 0.410638
C9    C     C_3   0.196807 0.790615 0.678781 0.065479
C10   C     C_3   0.308611 0.783021 0.762360 -0.123984
C11   C     C_3   0.252374 0.679454 0.768918 -0.185523
C12   C     C_3   0.141382 0.687346 0.685557 -0.166331
H2    H     H_    0.453770 0.811590 0.774477 0.181869
H3    H     H_    0.349261 0.622092 0.786290 0.136423
C13   C     C_R   0.248863 0.738720 0.179924 0.101544
C14   C     C_R   0.116802 0.811566 0.179754 -0.125781
C15   C     C_R   0.982866 0.815212 0.245943 -0.201411
H4    H     H_    0.875166 0.869221 0.247180 0.139999
C16   C     C_R   0.996156 0.754415 0.314508 0.150653
C17   C     C_R   0.141000 0.685189 0.316475 -0.120680
C18   C     C_R   0.258609 0.676520 0.245516 0.059316
C19   C     C_3   0.471158 0.667439 0.237112 -0.390194
C20   C     C_3   0.460407 0.736397 0.165751 -0.382591
H5    H     H_    0.514718 0.597031 0.216261 0.170605
H6    H     H_    0.548372 0.694201 0.292692 0.214548
H7    H     H_    0.498748 0.705704 0.103971 0.167707
H8    H     H_    0.530748 0.803448 0.180506 0.184359
C21   C     C_R   0.488522 0.310908 0.736491 -0.110013
C22   C     C_R   0.644842 0.312858 0.681556 -0.171747
C23   C     C_R   0.782732 0.242118 0.688267 0.454550
C24   C     C_R   0.778021 0.180688 0.756351 -0.275500
H9    H     H_    0.886673 0.127363 0.760184 0.159272
C25   C     C_R   0.623665 0.181733 0.813550 -0.138558
C26   C     C_R   0.478164 0.247243 0.802070 0.040185
C27   C     C_3   0.270764 0.227186 0.787024 -0.450103
C28   C     C_3   0.285313 0.291873 0.712266 0.438135
H10   H     H_    0.179837 0.256078 0.838193 0.162419
H11   H     H_    0.241627 0.153180 0.774447 0.163360
H12   H     H_    0.194327 0.354520 0.719934 0.059773
C29   C     C_R   0.498559 0.318170 0.254855 0.069645
C30   C     C_R   0.647928 0.315955 0.313331 -0.102373
C31   C     C_R   0.796172 0.251348 0.299250 -0.167139
H13   H     H_    0.916413 0.247843 0.341700 0.124915
C32   C     C_R   0.784278 0.186316 0.233379 -0.131964
H14   H     H_    0.896284 0.134895 0.227016 0.125951
C33   C     C_R   0.624192 0.184195 0.179508 -0.123737
C34   C     C_R   0.487088 0.254177 0.189671 0.118093
C35   C     C_3   0.274051 0.248610 0.196278 0.009110
C36   C     C_3   0.286538 0.318756 0.267596 -0.428479
H15   H     H_    0.225014 0.179321 0.216621 0.109088
H16   H     H_    0.245100 0.290028 0.329333 0.157286
H17   H     H_    0.222162 0.387034 0.253162 0.191096
O11   O     O_R   0.771650 0.079500 0.908680 -0.534196
O12   O     O_R   0.441690 0.091800 0.082800 -0.535478
O13   O     O_R   0.271460 0.912980 0.083410 -0.542054
C37   C     C_R   0.610465 0.113827 0.111959 0.714875
O14   O     O_R   0.441930 0.090510 0.909280 -0.537472
O15   O     O_R   0.271690 0.911670 0.908660 -0.548343
C38   C     C_R   0.611031 0.112190 0.880489 0.758516
O16   O     O_R   0.771410 0.080810 0.083440 -0.533614
O17   O     O_3   0.605100 0.937580 0.996050 -0.378430
V3    V     V_3+5 0.330220 0.007110 0.996030 1.452178
O18   O     O_R   0.941980 0.900620 0.909250 -0.528411
C39   C     C_R   0.111358 0.878593 0.880693 0.749835
O19   O     O_R   0.941740 0.901920 0.082770 -0.549168
C40   C     C_R   0.110296 0.880046 0.111535 0.690006
V4    V     V_3+5 0.830220 0.985300 0.996000 1.457615
O20   O     O_3   0.105210 0.054870 0.996020 -0.356098
O21   O     O_3   0.912546 0.227638 0.624459 -0.526131
C41   C     C_3   0.828846 0.169397 0.563620 -0.206019
H18   H     H_    0.935991 0.156245 0.513429 0.161833
H19   H     H_    0.702444 0.202742 0.534070 0.110357
H20   H     H_    0.788576 0.101416 0.590466 0.122600
O22   O     O_3   0.272307 0.255277 0.629014 -0.510062
C42   C     C_3   0.321736 0.160849 0.619382 -0.130681
H21   H     H_    0.201448 0.115772 0.639137 0.167117
H22   H     H_    0.454358 0.141749 0.652935 0.107886
H23   H     H_    0.347457 0.146755 0.551982 0.136819
O23   O     O_3   0.772881 0.680234 0.717516 -0.546119
C43   C     C_3   0.750083 0.591419 0.751716 -0.184566
H24   H     H_    0.717778 0.596877 0.819676 0.121273
H25   H     H_    0.877325 0.546096 0.741335 0.105150
H26   H     H_    0.626795 0.557292 0.720674 0.138945
I1    I     I_    0.138231 0.301173 0.086395 -0.428174
O24   O     O_3   0.886481 0.891010 0.717128 -0.568341
C44   C     C_3   0.807609 0.888718 0.636403 -0.186474
H27   H     H_    0.754235 0.819073 0.618417 0.215140
H28   H     H_    0.912361 0.914272 0.589823 0.178463
H29   H     H_    0.683843 0.936819 0.635440 0.168236
I2    I     I_    0.307949 0.851859 0.567294 -0.460494
I3    I     I_    0.812384 0.782387 0.417900 -0.410872

loop_
_geom_bond_atom_site_label_1
_geom_bond_atom_site_label_2
_ccdc_geom_bond_type
O15   V3    S    
C31   H13   S    
C43   H24   S    
C21   C22   A    
C28   O22   S    
C19   C20   S    
C11   H3    S    
C1    O6    A    
C29   C30   A    
O13   V3    S    
C7    C39   S    
C6    C11   S    
C13   C14   A    
C19   H5    S    
C18   C19   S    
O5    C3    A    
C15   H4    S    
O19   V4    S    
C32   C33   A    
V2    O10   S    
C6    H1    S    
C10   H2    S    
C35   H15   S    
C36   H16   S    
C30   C31   A    
O8    V2    S    
C27   H11   S    
O11   C38   A    
C26   C27   S    
C9    C12   S    
C10   C11   S    
C16   I3    S    
C37   O16   A    
O1    V2    S    
O7    V1    S    
C25   C38   S    
O13   C40   A    
C27   H10   S    
C13   C18   A    
C33   C34   A    
C43   H25   S    
O17   V4    S    
C8    C9    S    
C5    O23   S    
C21   C28   S    
C29   C34   A    
C24   C25   A    
C17   C18   A    
O17   V3    S    
C20   H8    S    
C19   H6    S    
C11   C12   S    
O4    C2    A    
O19   C40   A    
V3    O20   S    
C5    C8    S    
C9    I2    S    
C34   C35   S    
O12   C37   A    
O2    C1    A    
C23   C24   A    
C14   C15   A    
C29   C36   S    
C41   H18   S    
C14   C40   S    
C7    C10   S    
C28   H12   S    
C44   H29   S    
C5    C6    S    
C21   C26   A    
O18   C39   A    
O3    C4    A    
C33   C37   S    
C27   C28   S    
C44   H28   S    
C42   H22   S    
O24   C44   S    
O6    V2    S    
O9    V2    S    
O12   V3    S    
C22   C23   A    
O2    V1    S    
O15   C39   A    
C24   H9    S    
C25   C26   A    
C36   H17   S    
C41   H19   S    
C7    C8    S    
O1    C2    A    
C20   H7    S    
C35   I1    S    
O18   V4    S    
V4    O20   S    
O5    V1    S    
O8    C3    A    
C43   H26   S    
O11   V4    S    
C44   H27   S    
C5    C12   S    
C16   C17   A    
C31   C32   A    
O7    V2    S    
O4    V1    S    
O3    V1    S    
V1    O10   S    
C15   C16   A    
C8    O24   S    
C32   H14   S    
C42   H23   S    
C1    C22   S    
O23   C43   S    
O16   V4    S    
C6    C7    S    
C4    C12   S    
C35   C36   S    
C41   H20   S    
C42   H21   S    
C13   C20   S    
O22   C42   S    
O21   C41   S    
O14   V3    S    
C23   O21   S    
C9    C10   S    
O14   C38   A    
C2    C30   S    
C3    C17   S    
O9    C4    A    
