data_mof_unit_10882.cif
_audit_creation_date              2013-03-05T15:52:19-0500
_audit_creation_method            fapswitch 2.2
_symmetry_space_group_name_H-M    P1
_symmetry_Int_Tables_number       1
_space_group_crystal_system       triclinic
_cell_length_a                    10.640499
_cell_length_b                    10.737098
_cell_length_c                    17.127636
_cell_angle_alpha                 80.346753
_cell_angle_beta                  99.369857
_cell_angle_gamma                 118.610237
_cell_volume                      1685.83130721

loop_
_atom_site_label
_atom_site_type_symbol
_atom_site_description
_atom_site_fract_x
_atom_site_fract_y
_atom_site_fract_z
_atom_type_partial_charge
O1    O     O_R   0.754020 0.497590 0.609930 -0.503932
O2    O     O_R   0.481420 0.271390 0.600630 -0.461940
C1    C     C_R   0.384008 0.283168 0.631989 0.551486
O3    O     O_R   0.263810 0.254550 0.589590 -0.517882
O4    O     O_R   0.300820 0.531200 0.560890 -0.516107
C2    C     C_R   0.368318 0.654363 0.585002 0.542413
O5    O     O_R   0.491480 0.744020 0.564270 -0.518146
O6    O     O_R   0.726290 0.693800 0.583010 -0.494910
C3    C     C_R   0.776332 0.618386 0.627078 0.544749
O7    O     O_R   0.747830 0.500190 0.434090 -0.517813
O8    O     O_R   0.475680 0.273800 0.437630 -0.502905
C4    C     C_R   0.350855 0.225176 0.400590 0.562146
O9    O     O_R   0.257620 0.257160 0.413750 -0.516236
O10   O     O_R   0.295080 0.533620 0.397890 -0.513079
C5    C     C_R   0.365777 0.653775 0.360570 0.547715
O11   O     O_R   0.485280 0.746620 0.388440 -0.508189
O12   O     O_R   0.720550 0.696220 0.420010 -0.504839
C6    C     C_R   0.768685 0.620723 0.398509 0.546251
Cr1   Cr    Cr6+3 0.608440 0.389080 0.519680 1.042091
Cr2   Cr    Cr6+3 0.288640 0.400090 0.490760 1.006509
Cr3   Cr    Cr6+3 0.602940 0.710800 0.489510 1.023638
O13   O     O_3   0.500010 0.499990 0.499980 -0.272599
C7    C     C_R   0.319500 0.703560 0.810262 -0.007786
C8    C     C_R   0.204523 0.593763 0.771017 -0.019326
C9    C     C_R   0.204966 0.583148 0.691863 -0.001116
C10   C     C_R   0.409218 0.815441 0.681382 -0.124565
C11   C     C_R   0.419322 0.821436 0.762763 0.185706
C12   C     C_3   0.140489 0.436348 0.792082 -0.249244
C13   C     C_3   0.141462 0.424321 0.705181 -0.237362
C14   C     C_R   0.317502 0.686955 0.648679 -0.029388
H1    H     H_    0.491423 0.902640 0.647573 0.176919
H2    H     H_    0.030317 0.390394 0.810794 0.178898
H3    H     H_    0.214837 0.403863 0.832826 0.141891
H4    H     H_    0.216353 0.384897 0.696172 0.153686
H5    H     H_    0.031876 0.370479 0.673917 0.163659
C15   C     C_1   0.822890 0.656374 0.706124 -0.023258
C16   C     C_1   0.851180 0.684972 0.773571 -0.016094
C17   C     C_1   0.364108 0.231645 0.714128 -0.012154
C18   C     C_1   0.332952 0.185196 0.781216 -0.012797
C19   C     C_1   0.336329 0.663759 0.277633 -0.048062
C20   C     C_1   0.323298 0.673176 0.207049 -0.046756
C21   C     C_R   0.819744 0.662375 0.155208 0.016179
C22   C     C_R   0.798972 0.538087 0.205139 0.041779
C23   C     C_R   0.789423 0.530803 0.284267 0.035492
C24   C     C_R   0.800196 0.763096 0.266323 -0.154255
C25   C     C_R   0.809197 0.771077 0.185006 -0.152320
C26   C     C_3   0.883772 0.455874 0.221393 -0.257219
C27   C     C_3   0.869975 0.446721 0.308765 -0.275573
C28   C     C_R   0.801544 0.646333 0.317390 0.013648
H6    H     H_    0.796172 0.849096 0.289232 0.138914
H7    H     H_    0.820177 0.866691 0.147314 0.141663
H8    H     H_    0.997227 0.520416 0.207094 0.159281
H9    H     H_    0.825264 0.350870 0.197063 0.164883
H10   H     H_    0.800779 0.336604 0.334791 0.137170
H11   H     H_    0.974415 0.505963 0.344032 0.143277
C29   C     C_R   0.309246 0.135006 0.168262 0.054994
C30   C     C_R   0.191385 0.121062 0.201386 -0.016594
C31   C     C_R   0.196816 0.131110 0.280209 0.006473
C32   C     C_R   0.433395 0.146033 0.301287 -0.150780
C33   C     C_R   0.428096 0.135712 0.219834 0.214865
C34   C     C_3   0.101651 0.195745 0.175976 -0.266885
C35   C     C_3   0.107464 0.208553 0.263169 -0.254550
C36   C     C_R   0.322545 0.156204 0.329981 -0.016510
H12   H     H_    0.529355 0.159608 0.340039 0.120383
H13   H     H_    0.992194 0.124315 0.149909 0.150095
H14   H     H_    0.159147 0.300138 0.140387 0.144654
H15   H     H_    0.166988 0.321456 0.276816 0.165360
H16   H     H_    0.001004 0.145248 0.287268 0.133792
O14   O     O_R   0.163320 0.092900 0.874450 -0.513144
O15   O     O_R   0.934650 0.822080 0.882840 -0.466810
C37   C     C_R   0.892546 0.702493 0.855630 0.562689
O16   O     O_R   0.915520 0.604140 0.893670 -0.509334
O17   O     O_R   0.191760 0.638110 0.923230 -0.510102
C38   C     C_R   0.310343 0.715926 0.892303 0.550843
O18   O     O_R   0.406180 0.826930 0.920660 -0.453699
O19   O     O_R   0.358620 0.062870 0.901950 -0.472867
C39   C     C_R   0.286338 0.117984 0.858142 0.539979
O20   O     O_R   0.163910 0.085460 0.050210 -0.535790
O21   O     O_R   0.935200 0.815170 0.045770 -0.499194
C40   C     C_R   0.885973 0.690583 0.083102 0.551814
O22   O     O_R   0.916120 0.596690 0.069430 -0.517063
O23   O     O_R   0.192310 0.631200 0.086170 -0.519373
C41   C     C_R   0.312755 0.701048 0.123998 0.543825
O24   O     O_R   0.406770 0.819480 0.096420 -0.482295
O25   O     O_R   0.359170 0.055960 0.064880 -0.442068
C42   C     C_R   0.284051 0.104208 0.086553 0.563359
Cr4   Cr    Cr6+3 0.052530 0.947560 0.964210 1.063845
Cr5   Cr    Cr6+3 0.059970 0.626800 0.992920 1.024172
Cr6   Cr    Cr6+3 0.373320 0.938440 0.995370 1.113465
O26   O     O_3   0.161940 0.837600 0.984160 -0.282128
O27   O     O_3   0.539378 0.132827 0.189732 -0.680116
H17   H     H_    0.609298 0.127462 0.234435 0.307932
N1    N     N_R   0.540769 0.941070 0.796054 0.097274
O28   O     O_R   0.570406 0.069858 0.764354 -0.342816
O29   O     O_R   0.638920 0.920637 0.844057 -0.321889

loop_
_geom_bond_atom_site_label_1
_geom_bond_atom_site_label_2
_geom_bond_distance
_ccdc_geom_bond_type
C23   C28   1.391471 A    
C31   C35   1.505289 S    
C27   H11   1.112543 S    
C21   C40   1.437752 S    
N1    O28   1.301052 A    
O17   C38   1.276847 A    
O14   C39   1.272859 A    
O21   Cr4   1.932097 S    
O4    Cr2   1.944990 S    
C24   C25   1.397093 A    
C27   H10   1.111370 S    
O8    Cr1   1.940347 S    
C32   H12   1.083329 S    
O11   Cr3   2.060137 S    
C35   H15   1.112141 S    
C18   C39   1.433136 S    
C15   C16   1.198589 T    
O25   C42   1.265985 A    
C17   C18   1.205177 T    
C5    O11   1.259566 A    
C20   C41   1.401060 S    
C31   C36   1.396254 A    
C29   C30   1.392994 A    
C21   C25   1.406824 A    
C34   H14   1.112552 S    
C41   O24   1.254993 A    
C1    C17   1.433143 S    
O6    C3    1.259349 A    
C3    C15   1.420580 S    
C7    C8    1.398232 A    
O15   C37   1.283893 A    
C7    C11   1.428458 A    
O14   Cr4   2.052366 S    
O19   Cr6   1.941991 S    
C26   H9    1.110512 S    
O20   C42   1.264378 A    
C32   C33   1.407835 A    
N1    O29   1.301607 A    
Cr3   O13   1.977047 S    
O15   Cr4   1.942396 S    
O16   Cr5   2.059404 S    
O6    Cr3   1.941026 S    
C9    C13   1.494312 S    
O1    Cr1   2.059674 S    
C38   O18   1.251079 A    
O10   Cr2   1.940870 S    
C12   H2    1.111658 S    
Cr1   O13   1.979249 S    
O1    C3    1.278671 A    
C8    C9    1.380372 A    
O27   H17   0.991878 S    
C4    C36   1.438702 S    
O25   Cr6   1.943292 S    
O5    Cr3   2.055764 S    
C25   H7    1.082493 S    
O12   Cr3   1.934613 S    
C29   C33   1.417352 A    
C22   C23   1.361937 A    
O17   Cr5   1.933724 S    
C29   C42   1.444966 S    
C26   C27   1.509651 S    
C24   C28   1.407964 A    
O7    Cr1   2.049135 S    
O12   C6    1.270513 A    
C10   C11   1.390404 A    
O19   C39   1.266405 A    
C2    O5    1.264482 A    
C19   C20   1.186936 T    
C2    C14   1.451057 S    
Cr2   O13   1.965864 S    
C12   H3    1.112362 S    
C10   C14   1.400397 A    
C16   C37   1.418599 S    
C11   N1    1.435630 S    
C21   C22   1.399087 A    
C7    C38   1.456423 S    
C1    O3    1.285915 A    
O20   Cr4   2.061307 S    
C33   O27   1.381353 S    
C9    C14   1.398905 A    
C12   C13   1.517526 S    
O9    Cr2   2.062971 S    
O2    Cr1   1.932046 S    
C8    C12   1.491234 S    
Cr5   O26   1.977337 S    
C40   O22   1.259927 A    
O8    C4    1.269550 A    
C30   C34   1.491645 S    
C26   H8    1.111642 S    
C13   H5    1.111550 S    
C32   C36   1.405275 A    
C35   H16   1.111903 S    
O2    C1    1.307067 A    
C37   O16   1.250630 A    
C30   C31   1.362017 A    
O4    C2    1.269703 A    
C24   H6    1.083182 S    
O7    C6    1.264916 A    
O23   Cr5   1.940445 S    
C13   H4    1.105900 S    
C34   C35   1.511170 S    
C5    C19   1.401325 S    
O22   Cr5   2.049812 S    
O18   Cr6   2.062418 S    
O21   C40   1.274283 A    
O3    Cr2   2.059172 S    
C34   H13   1.110894 S    
C10   H1    1.084345 S    
C4    O9    1.256181 A    
O23   C41   1.263648 A    
O24   Cr6   2.060835 S    
Cr4   O26   1.979274 S    
O10   C5    1.260728 A    
Cr6   O26   1.965928 S    
C22   C26   1.506470 S    
C23   C27   1.490859 S    
C6    C28   1.437428 S    
