data_mof_unit_67794.cif
_audit_creation_date              2013-03-05T15:41:22-0500
_audit_creation_method            fapswitch 2.2
_symmetry_space_group_name_H-M    P1
_symmetry_Int_Tables_number       1
_space_group_crystal_system       triclinic
_cell_length_a                    8.068395
_cell_length_b                    8.855165
_cell_length_c                    10.966742
_cell_angle_alpha                 89.772457
_cell_angle_beta                  87.782249
_cell_angle_gamma                 92.603524
_cell_volume                      782.132520402

loop_
_atom_site_label
_atom_site_type_symbol
_atom_site_description
_atom_site_fract_x
_atom_site_fract_y
_atom_site_fract_z
_atom_type_partial_charge
O1    O     O_R   0.389250 0.738570 0.508370 -0.570633
O2    O     O_R   0.678390 0.711620 0.486510 -0.546932
C1    C     C_R   0.543319 0.792776 0.496770 0.943475
O3    O     O_R   0.355430 0.513500 0.696140 -0.539274
O4    O     O_R   0.644580 0.486550 0.674270 -0.568943
C2    C     C_R   0.505174 0.503003 0.740449 1.013180
Zn1   Zn    Zn3+2 0.306940 0.517990 0.514600 1.267054
Zn2   Zn    Zn3+2 0.693060 0.482010 0.485400 1.263634
O5    O     O_R   0.321610 0.288380 0.513490 -0.550500
O6    O     O_R   0.610750 0.261430 0.491630 -0.573821
O7    O     O_R   0.355420 0.513450 0.325730 -0.552253
O8    O     O_R   0.644570 0.486500 0.303860 -0.554101
C3    C     C_R   0.456647 0.207319 0.501632 0.929973
C4    C     C_R   0.498210 0.501019 0.258813 1.028189
C5    C     C_3   0.392960 0.638298 0.925880 0.372591
C6    C     C_3   0.378821 0.626436 0.073512 0.240115
C7    C     C_3   0.446341 0.339860 0.925271 0.349165
C8    C     C_3   0.700768 0.551803 0.920847 0.337567
C9    C     C_3   0.512882 0.507080 0.876977 -0.528832
C10   C     C_3   0.503364 0.499883 0.120749 -0.559844
C11   C     C_3   0.445898 0.328741 0.074935 0.239396
C12   C     C_3   0.697585 0.541059 0.070267 0.213805
C13   C     C_2   0.562924 0.954277 0.511296 0.201420
C14   C     C_2   0.437363 0.046027 0.485512 0.192522
N1    N     N_2   0.950330 0.457950 0.465890 0.154315
N2    N     N_2   0.049670 0.542050 0.534110 0.141310
Cl1   Cl    Cl    0.185849 0.639833 0.868395 -0.261076
N3    N     N_R   0.813545 0.420417 0.111061 0.292686
O9    O     O_R   0.896860 0.432012 0.210072 -0.197046
O10   O     O_R   0.840390 0.297078 0.051811 -0.167144
N4    N     N_R   0.537795 0.218528 0.860075 0.259108
O11   O     O_R   0.473767 0.150478 0.766701 -0.300422
O12   O     O_R   0.683631 0.177622 0.887986 -0.160072
N5    N     N_R   0.556494 0.215013 0.121839 0.250559
O13   O     O_R   0.600906 0.219706 0.234380 -0.332710
O14   O     O_R   0.543073 0.080161 0.079540 -0.155585
Cl2   Cl    Cl    0.742402 0.014970 0.589279 -0.265456
Cl3   Cl    Cl    0.256891 0.985527 0.408742 -0.272067
Cl4   Cl    Cl    0.998691 0.272456 0.449624 -0.196605
Cl5   Cl    Cl    0.998047 0.725242 0.558808 -0.195741
N6    N     N_R   0.452665 0.785630 0.870208 0.250355
O15   O     O_R   0.423342 0.815809 0.756827 -0.297912
O16   O     O_R   0.535546 0.888806 0.926537 -0.193803
N7    N     N_R   0.403406 0.778272 0.126661 0.273899
O17   O     O_R   0.299614 0.877894 0.094455 -0.159104
O18   O     O_R   0.466072 0.796789 0.233314 -0.351589
N8    N     N_R   0.209044 0.579590 0.117197 0.258757
O19   O     O_R   0.121412 0.478984 0.060928 -0.250374
O20   O     O_R   0.139170 0.646886 0.209811 -0.206150
Cl6   Cl    Cl    0.235373 0.306819 0.871227 -0.263642
N9    N     N_R   0.281536 0.268840 0.126270 0.288012
O21   O     O_R   0.245342 0.281303 0.241629 -0.273103
O22   O     O_R   0.209452 0.151569 0.076377 -0.124464
Cl7   Cl    Cl    0.856323 0.439157 0.845980 -0.279708
N10   N     N_R   0.764479 0.702018 0.872592 0.274006
O23   O     O_R   0.896029 0.767633 0.916784 -0.144656
O24   O     O_R   0.738703 0.739361 0.760527 -0.271169
N11   N     N_R   0.756356 0.689241 0.127002 0.251170
O25   O     O_R   0.715876 0.819807 0.087762 -0.206841
O26   O     O_R   0.832708 0.695409 0.229081 -0.214692

loop_
_geom_bond_atom_site_label_1
_geom_bond_atom_site_label_2
_geom_bond_distance
_ccdc_geom_bond_type
C7    Cl6   1.835345 S    
C12   N11   1.518742 S    
O4    Zn2   2.093858 S    
C14   Cl3   1.773053 S    
N10   O23   1.298103 A    
N4    O12   1.294276 A    
Zn2   N1    2.099071 S    
N9    O22   1.300118 A    
N6    O15   1.303594 A    
C6    N7    1.475736 S    
C1    C13   1.441823 S    
N4    O11   1.302362 A    
C6    C10   1.634608 S    
Zn2   O8    2.044360 S    
N3    O10   1.295463 A    
O2    C1    1.333828 A    
N11   O25   1.292231 A    
N9    O21   1.293603 A    
N8    O20   1.302137 A    
C13   Cl2   1.773709 S    
N7    O17   1.300699 A    
Zn1   O7    2.093857 S    
C2    C9    1.501473 S    
N6    O16   1.282376 A    
N2    Cl5   1.713040 S    
Zn1   N2    2.099072 S    
C8    N10   1.491614 S    
O3    Zn1   2.044361 S    
C6    N8    1.474460 S    
Zn2   O6    2.034345 S    
N3    O9    1.300986 A    
C7    C9    1.631243 S    
O8    C4    1.309017 A    
C5    C9    1.625083 S    
N5    O14   1.284290 A    
N10   O24   1.298384 A    
O4    C2    1.328777 A    
C7    N4    1.499116 S    
O7    C4    1.350816 A    
O2    Zn2   2.042094 S    
C8    Cl7   1.812413 S    
C13   C14   1.364363 D    
N11   O26   1.298657 A    
C5    C6    1.621301 S    
C4    C10   1.513163 S    
C11   N9    1.494280 S    
C10   C11   1.650559 S    
C5    N6    1.490213 S    
O3    C2    1.326566 A    
N5    O13   1.298730 A    
Zn1   O5    2.042094 S    
O5    C3    1.334192 A    
C8    C9    1.640060 S    
C12   N3    1.528460 S    
C11   N5    1.479229 S    
N1    Cl4   1.713860 S    
O1    Zn1   2.034347 S    
N1    N2    1.324149 D    
C8    C12   1.640169 S    
C5    Cl1   1.809293 S    
N7    O18   1.300130 A    
C7    C11   1.643747 S    
N8    O19   1.286580 A    
C3    C14   1.441997 S    
C10   C12   1.665664 S    
O1    C1    1.313362 A    
O6    C3    1.312433 A    
