data_mof_unit_13198.cif
_audit_creation_date              2012-12-10T17:16:42-0500
_audit_creation_method            fapswitch 2.2
_symmetry_space_group_name_H-M    P1
_symmetry_Int_Tables_number       1
_space_group_crystal_system       triclinic
_cell_length_a                    10.241898
_cell_length_b                    10.60155
_cell_length_c                    10.746228
_cell_angle_alpha                 90.455936
_cell_angle_beta                  93.90533
_cell_angle_gamma                 80.843944
_cell_volume                      1149.27855694

loop_
_atom_site_label
_atom_site_type_symbol
_atom_type_description
_atom_site_fract_x
_atom_site_fract_y
_atom_site_fract_z
_atom_type_partial_charge
C1    C     C_R   0.445959 0.505589 0.267533 1.022024
C2    C     C_R   0.492794 0.738505 0.477140 0.931671
C3    C     C_R   0.743709 0.064942 0.443304 0.442129
C4    C     C_R   0.239066 0.922482 0.488667 0.503141
C5    C     C_R   0.825255 0.002563 0.352480 -0.015244
C6    C     C_R   0.158500 0.970695 0.582920 0.051279
C7    C     C_R   0.784051 0.899548 0.284190 -0.025058
C8    C     C_R   0.191903 0.072464 0.656214 -0.099655
C9    C     C_R   0.666026 0.856089 0.312031 0.457897
C10   C     C_R   0.306186 0.125395 0.632873 0.485079
C11   C     C_R   0.585447 0.921640 0.401354 -0.072210
C12   C     C_R   0.554191 0.487651 0.733525 0.956305
C13   C     C_R   0.394145 0.068777 0.543786 -0.069940
C14   C     C_R   0.613327 0.036878 0.452792 -0.086643
C15   C     C_R   0.367837 0.956541 0.485668 -0.203762
C16   C     C_R   0.475784 0.873508 0.440660 -0.101031
C17   C     C_R   0.509995 0.117463 0.513590 -0.067165
C18   C     C_2   0.419160 0.500472 0.134917 -0.147501
C19   C     C_2   0.580843 0.466253 0.868047 -0.154264
C20   C     C_2   0.502503 0.418538 0.068582 0.306269
C21   C     C_2   0.487274 0.424515 0.933109 0.364189
C22   C     C_2   0.074555 0.479276 0.500200 0.489048
C23   C     C_2   0.929745 0.494899 0.524161 0.502301
C24   C     C_R   0.503665 0.257295 0.508793 0.968108
H1    H     H_    0.016134 0.154011 0.719923 0.219789
H2    H     H_    0.066761 0.872593 0.701228 0.169105
H3    H     H_    0.686765 0.716170 0.190244 0.346356
H4    H     H_    0.257950 0.275685 0.729761 0.379047
H5    H     H_    0.323379 0.354787 0.935693 0.329716
H6    H     H_    0.647232 0.276154 0.062813 0.344378
H7    H     H_    0.765251 0.518276 0.865119 0.232114
H8    H     H_    0.681156 0.569558 0.988535 0.183967
H9    H     H_    0.240648 0.541068 0.035519 0.209038
H10   H     H_    0.348015 0.644583 0.011928 0.197907
H11   H     H_    0.807211 0.610968 0.613287 0.367888
H12   H     H_    0.110878 0.048083 0.820001 0.194909
H13   H     H_    0.199498 0.397677 0.385423 0.382579
H14   H     H_    0.825663 0.352219 0.293693 0.235857
H15   H     H_    0.832103 0.507349 0.274772 0.201324
H16   H     H_    0.140040 0.548157 0.732351 0.217891
H17   H     H_    0.193702 0.675631 0.678907 0.217441
H18   H     H_    0.874520 0.903743 0.122006 0.194039
H19   H     H_    0.953742 0.794014 0.229087 0.224981
H20   H     H_    0.878280 0.165648 0.508830 0.349103
H21   H     H_    0.249184 0.828090 0.333102 0.330654
H22   H     H_    0.006394 0.986910 0.272208 0.220830
H23   H     H_    0.924296 0.134771 0.286291 0.189134
H24   H     H_    0.963745 0.973433 0.608160 0.228506
N1    N     N_2   0.157300 0.551390 0.551120 -0.112321
N2    N     N_3   0.123327 0.615646 0.660165 -0.350389
N3    N     N_2   0.842700 0.448610 0.448880 -0.125204
N4    N     N_3   0.112755 0.121616 0.756308 -0.459635
N5    N     N_3   0.861580 0.836426 0.188786 -0.484540
N6    N     N_3   0.948094 0.046389 0.331391 -0.433959
N7    N     N_3   0.050016 0.907355 0.609942 -0.386615
N8    N     N_3   0.703554 0.490917 0.930027 -0.466915
N9    N     N_3   0.311660 0.590467 0.078697 -0.477820
N10   N     N_3   0.874807 0.426227 0.326261 -0.366524
O1    O     O_R   0.568940 0.489660 0.307530 -0.569840
O2    O     O_3   0.192254 0.837931 0.404710 -0.735626
O3    O     O_3   0.620793 0.755973 0.247651 -0.781910
O4    O     O_3   0.341191 0.221586 0.707725 -0.707628
O5    O     O_3   0.370689 0.397801 0.875049 -0.757310
O6    O     O_3   0.600673 0.329605 0.127465 -0.773305
O7    O     O_3   0.890911 0.552784 0.633565 -0.798184
O8    O     O_3   0.117698 0.381724 0.419762 -0.799777
O9    O     O_R   0.431060 0.510340 0.692470 -0.563761
O10   O     O_R   0.348880 0.522640 0.340350 -0.654613
O11   O     O_R   0.651120 0.477360 0.659650 -0.609427
O12   O     O_R   0.610030 0.300280 0.483580 -0.564497
O13   O     O_R   0.389970 0.699720 0.516420 -0.609548
O14   O     O_R   0.389970 0.333270 0.516400 -0.605241
O15   O     O_R   0.610030 0.666730 0.483600 -0.630847
O16   O     O_3   0.795116 0.140150 0.534183 -0.760223
Zn1   Zn    Zn3+2 0.646940 0.477980 0.478080 0.993220
Zn2   Zn    Zn3+2 0.353060 0.522020 0.521920 0.988923

loop_
_geom_bond_atom_site_label_1
_geom_bond_atom_site_label_2
_ccdc_geom_bond_type
C19   N8    S    
C20   O6    S    
H10   N9    S    
C6    C8    A    
C12   O11   A    
H5    O5    S    
H21   O2    S    
H6    O6    S    
H7    N8    S    
O10   Zn2   S    
C2    C16   S    
C11   C16   A    
H17   N2    S    
C18   N9    S    
C23   N3    D    
H12   N4    S    
C13   C17   A    
C6    N7    S    
O14   Zn2   S    
H13   O8    S    
C23   O7    S    
C4    C15   A    
C1    O1    A    
H1    N4    S    
C24   O12   A    
N3    N10   S    
H14   N10   S    
H2    N7    S    
H20   O16   S    
C9    C11   A    
C14   C17   A    
H22   N6    S    
C1    C18   S    
C10   O4    S    
C2    O15   A    
C3    C14   A    
H23   N6    S    
C9    O3    S    
C12   C19   S    
C8    C10   A    
C11   C14   A    
N3    Zn1   S    
O11   Zn1   S    
C18   C20   D    
C13   C15   A    
H18   N5    S    
C8    N4    S    
O13   Zn2   S    
C12   O9    A    
H16   N2    S    
N1    Zn2   S    
C17   C24   S    
C21   O5    S    
C7    N5    S    
C2    O13   A    
C3    C5    A    
O1    Zn1   S    
C5    N6    S    
C1    O10   A    
C20   C21   S    
C24   O14   A    
C4    C6    A    
N1    N2    S    
C22   N1    D    
O12   Zn1   S    
C7    C9    A    
C3    O16   S    
H11   O7    S    
C5    C7    A    
C22   O8    S    
H9    N9    S    
O9    Zn2   S    
H3    O3    S    
H24   N7    S    
C19   C21   D    
C22   C23   S    
H15   N10   S    
H19   N5    S    
O15   Zn1   S    
C15   C16   A    
H8    N8    S    
C4    O2    S    
C10   C13   A    
H4    O4    S    
