data_mof_unit_25567.cif
_audit_creation_date              2012-12-10T17:48:20-0500
_audit_creation_method            fapswitch 2.2
_symmetry_space_group_name_H-M    P1
_symmetry_Int_Tables_number       1
_space_group_crystal_system       triclinic
_cell_length_a                    13.902718
_cell_length_b                    14.83413
_cell_length_c                    14.88978
_cell_angle_alpha                 115.859902
_cell_angle_beta                  108.373564
_cell_angle_gamma                 72.489365
_cell_volume                      2573.97369133

loop_
_atom_site_label
_atom_site_type_symbol
_atom_type_description
_atom_site_fract_x
_atom_site_fract_y
_atom_site_fract_z
_atom_type_partial_charge
C1    C     C_R   0.515224 0.118649 0.687882 0.821371
C2    C     C_R   0.482473 0.881496 0.311923 0.804227
C3    C     C_R   0.486962 0.361921 0.919244 0.060929
C4    C     C_R   0.461368 0.642459 0.073809 0.063819
C5    C     C_R   0.495264 0.323513 0.994306 0.083267
C6    C     C_R   0.436507 0.682422 0.996422 0.081545
C7    C     C_R   0.466548 0.469099 0.943958 0.018584
C8    C     C_R   0.468865 0.536399 0.046984 0.014804
C9    C     C_R   0.475233 0.496172 0.119548 -0.204051
C10   C     C_R   0.440998 0.511117 0.868474 -0.198230
C11   C     C_R   0.486933 0.392020 0.093957 0.252956
C12   C     C_R   0.425021 0.615661 0.893590 0.247233
C13   C     C_R   0.289237 0.325746 0.384574 -0.051698
C14   C     C_R   0.698889 0.682719 0.640968 -0.164043
C15   C     C_R   0.340074 0.225149 0.374514 0.077448
C16   C     C_R   0.655765 0.778680 0.631853 0.106411
C17   C     C_R   0.491505 0.285466 0.487174 0.379458
C18   C     C_R   0.506255 0.716503 0.514966 0.385039
C19   C     C_R   0.455641 0.378783 0.469713 -0.081503
C20   C     C_R   0.538889 0.625439 0.535931 -0.031022
C21   C     C_R   0.348825 0.403309 0.426984 0.079618
C22   C     C_R   0.644092 0.601669 0.581054 -0.069117
C23   C     C_R   0.686688 0.986464 0.503973 0.827475
C24   C     C_R   0.313275 0.013287 0.495663 0.816743
C25   C     C_R   0.519819 0.451506 0.499786 0.075320
C26   C     C_R   0.474687 0.553022 0.506225 0.122857
C27   C     C_R   0.366862 0.579669 0.485126 -0.195370
C28   C     C_R   0.627784 0.423746 0.514974 -0.079349
C29   C     C_R   0.306092 0.505122 0.431601 0.022601
C30   C     C_R   0.690662 0.497096 0.559888 -0.028226
C31   C     C_1   0.207838 0.021019 0.492505 -0.067362
C32   C     C_1   0.791767 0.976899 0.504356 -0.073761
C33   C     C_2   0.013152 0.032789 0.487086 -0.041833
C34   C     C_2   0.985376 0.960621 0.502441 -0.007106
C35   C     C_1   0.880041 0.969053 0.503785 -0.010889
C36   C     C_1   0.119132 0.026753 0.489880 -0.003423
C37   C     C_R   0.514435 0.186738 0.794978 -0.059243
C38   C     C_R   0.467668 0.814526 0.203163 -0.060042
C39   C     C_R   0.511088 0.217354 0.967484 -0.123804
C40   C     C_R   0.424063 0.788334 0.024026 -0.114304
C41   C     C_R   0.519114 0.149783 0.868349 -0.150357
C42   C     C_R   0.438020 0.853847 0.126413 -0.180397
C43   C     C_R   0.501383 0.291655 0.821812 -0.191893
C44   C     C_R   0.481370 0.709498 0.176292 -0.179336
Cu1   Cu    Cu3+1 0.526370 0.916390 0.524860 1.004344
Cu2   Cu    Cu3+1 0.473630 0.083610 0.475140 0.993484
H1    H     H_    0.329011 0.658728 0.503299 0.199355
H2    H     H_    0.663894 0.343931 0.488713 0.223991
H3    H     H_    0.511012 0.680834 0.236822 0.176777
H4    H     H_    0.504437 0.316928 0.765419 0.186178
H5    H     H_    0.426830 0.935047 0.145373 0.184606
H6    H     H_    0.527827 0.068873 0.849053 0.205005
H7    H     H_    0.516303 0.185516 0.022166 0.196840
H8    H     H_    0.403395 0.821636 0.967188 0.196894
H9    H     H_    0.466809 0.544477 0.196620 0.197860
H10   H     H_    0.428508 0.464906 0.787974 0.181621
N1    N     N_R   0.433980 0.209250 0.437830 -0.232972
N2    N     N_R   0.566020 0.790750 0.562170 -0.237445
O1    O     O_R   0.534760 0.019630 0.662610 -0.572413
O2    O     O_R   0.465240 0.980370 0.337390 -0.611274
O3    O     O_R   0.490220 0.160840 0.620610 -0.553801
O4    O     O_R   0.509780 0.839160 0.379390 -0.548376
O5    O     O_R   0.663260 0.919400 0.523940 -0.631660
O6    O     O_R   0.336740 0.080600 0.476060 -0.629940
O7    O     O_R   0.618720 0.060610 0.481950 -0.505019
O8    O     O_R   0.381280 0.939390 0.518050 -0.509746
C45   C     C_2   0.058082 0.869510 0.519590 0.389807
H11   H     H_    0.029396 0.818748 0.535581 0.077180
O9    O     O_2   0.148828 0.848801 0.515374 -0.517710
C46   C     C_2   0.940099 0.122736 0.467819 0.450620
H12   H     H_    0.970400 0.178428 0.461004 0.096136
O10   O     O_2   0.846986 0.136068 0.458327 -0.486636
C47   C     C_2   0.174982 0.348815 0.371425 0.428646
H13   H     H_    0.127034 0.301564 0.305059 0.139311
O11   O     O_2   0.133757 0.418227 0.438349 -0.544341
C48   C     C_2   0.793107 0.669858 0.720609 0.375246
H14   H     H_    0.802300 0.615513 0.754703 0.111621
O12   O     O_2   0.862036 0.717130 0.747096 -0.522620
Br1   Br    Br    0.491950 0.348958 0.200375 -0.501133
Br2   Br    Br    0.390511 0.661386 0.782488 -0.505471
C49   C     C_2   0.203125 0.537736 0.373693 0.495443
H15   H     H_    0.158006 0.612913 0.407499 0.088475
O13   O     O_2   0.171328 0.484391 0.285225 -0.507412
C50   C     C_2   0.803942 0.460370 0.569009 0.377938
H16   H     H_    0.851646 0.506614 0.569559 0.098534
O14   O     O_2   0.845175 0.377234 0.574659 -0.500146
Br3   Br    Br    0.394652 0.721737 0.399084 -0.494670
Br4   Br    Br    0.607291 0.277333 0.598966 -0.458688
C51   C     C_2   0.707696 0.865933 0.697467 0.567901
H17   H     H_    0.767948 0.878052 0.674545 0.066188
O15   O     O_2   0.687921 0.921095 0.781125 -0.545581
C52   C     C_2   0.289517 0.138758 0.297110 0.340041
H18   H     H_    0.296167 0.070762 0.309243 0.135509
O16   O     O_2   0.240023 0.142104 0.214400 -0.543845

loop_
_geom_bond_atom_site_label_1
_geom_bond_atom_site_label_2
_ccdc_geom_bond_type
C44   H3    S    
C7    C10   A    
C27   C29   A    
C17   Br4   S    
C47   O11   D    
C47   H13   S    
C4    C8    A    
C49   H15   S    
C7    C8    A    
C39   C41   A    
Cu1   Cu2   S    
C25   C28   A    
C38   C44   A    
C3    C43   A    
C26   C27   A    
C19   C21   A    
C48   O12   D    
C5    C11   A    
C3    C7    A    
C1    O1    A    
C6    C12   A    
C2    O2    A    
C23   O5    A    
Cu1   O4    S    
C33   C36   S    
C34   C35   S    
C15   C52   S    
C18   N2    A    
Cu1   O1    S    
C8    C9    A    
C46   H12   S    
C9    H9    S    
C51   O15   D    
C10   H10   S    
C41   H6    S    
C18   C20   A    
C24   O8    A    
C42   H5    S    
C40   C42   A    
C16   C51   S    
C24   O6    A    
C37   C41   A    
C15   N1    A    
C10   C12   A    
C49   O13   D    
Cu1   N2    S    
Cu2   O3    S    
C45   H11   S    
C32   C35   T    
C48   H14   S    
Cu2   O7    S    
C4    C6    A    
C4    C44   A    
C25   C26   A    
C21   C29   A    
Cu1   O5    S    
Cu2   O6    S    
C45   O9    D    
C14   C48   S    
C37   C43   A    
C29   C49   S    
C2    C38   S    
C52   O16   D    
C33   C34   D    
C13   C21   A    
C16   N2    A    
C50   H16   S    
C9    C11   A    
C11   Br1   S    
C33   C46   S    
C20   C22   A    
C40   H8    S    
C13   C15   A    
Cu2   N1    S    
C14   C16   A    
C27   H1    S    
C28   H2    S    
C22   C30   A    
Cu2   O2    S    
C13   C47   S    
C3    C5    A    
C1    O3    A    
C34   C45   S    
C43   H4    S    
C38   C42   A    
C1    C37   S    
C18   Br3   S    
C23   C32   S    
C23   O7    A    
C5    C39   A    
C24   C31   S    
C14   C22   A    
C39   H7    S    
C20   C26   A    
C12   Br2   S    
C28   C30   A    
C52   H18   S    
C17   C19   A    
C6    C40   A    
C30   C50   S    
C19   C25   A    
Cu1   O8    S    
C31   C36   T    
C50   O14   D    
C46   O10   D    
C51   H17   S    
C2    O4    A    
C17   N1    A    
