data_mof_unit_17338.cif
_audit_creation_date              2012-10-26T19:05:03-0400
_audit_creation_method            fapswitch 2.2
_symmetry_space_group_name_H-M    P1
_symmetry_Int_Tables_number       1
_space_group_crystal_system       triclinic
_cell_length_a                    15.93204
_cell_length_b                    10.770959
_cell_length_c                    9.665799
_cell_angle_alpha                 87.991623
_cell_angle_beta                  91.611263
_cell_angle_gamma                 94.386042
_cell_volume                      1652.2713084

loop_
_atom_site_label
_atom_site_type_symbol
_atom_type_description
_atom_site_fract_x
_atom_site_fract_y
_atom_site_fract_z
_atom_type_partial_charge
Br1   Br    Br    0.630786 0.253096 0.789815 -0.414783
Br2   Br    Br    0.817789 0.153933 0.770002 -0.499967
Br3   Br    Br    0.099595 0.393344 0.790593 -0.517609
Br4   Br    Br    0.088147 0.289823 0.291953 -0.509550
Br5   Br    Br    0.931942 0.759059 0.432335 -0.650675
C1    C     C_R   0.506507 0.263643 0.503747 0.562611
C2    C     C_R   0.721094 0.067524 0.680522 0.211291
C3    C     C_R   0.726039 0.944725 0.640950 -0.007814
C4    C     C_R   0.340561 0.496441 0.498551 0.546842
C5    C     C_R   0.655212 0.879973 0.583033 -0.137454
C6    C     C_R   0.580843 0.939087 0.552292 -0.018259
C7    C     C_R   0.578033 0.067570 0.577200 -0.001189
C8    C     C_R   0.509579 0.129333 0.513381 0.020158
C9    C     C_R   0.443678 0.061787 0.444003 -0.138089
C10   C     C_R   0.442309 0.933927 0.438179 -0.138293
C11   C     C_R   0.509582 0.872314 0.493624 0.010286
C12   C     C_3   0.956490 0.499351 0.655439 -0.056030
C13   C     C_R   0.634429 0.636074 0.137919 0.067103
C14   C     C_R   0.711226 0.645634 0.068768 -0.007595
C15   C     C_R   0.707390 0.656143 0.925516 -0.139143
C16   C     C_R   0.501767 0.737428 0.497845 0.522284
C17   C     C_R   0.630984 0.630885 0.856548 -0.072132
C18   C     C_R   0.563927 0.565739 0.925263 0.150764
C19   C     C_R   0.564676 0.566648 0.073819 0.148735
C20   C     C_R   0.438076 0.435708 0.071378 0.092771
C21   C     C_R   0.439185 0.436183 0.924179 0.049869
C22   C     C_R   0.659663 0.499901 0.501487 0.535802
C23   C     C_3   0.917170 0.486775 0.504294 0.047997
C24   C     C_3   0.055796 0.511995 0.651987 0.134287
C25   C     C_3   0.039720 0.351367 0.459652 0.046905
C26   C     C_3   0.940882 0.356358 0.454099 -0.142732
C27   C     C_1   0.749308 0.495968 0.504368 -0.002801
C28   C     C_3   0.083382 0.480567 0.501898 0.047194
C29   C     C_3   0.094863 0.641787 0.696221 -0.334140
C30   C     C_3   0.917333 0.592869 0.747622 -0.396915
C31   C     C_3   0.805587 0.880496 0.666028 -0.358939
C32   C     C_3   0.363696 0.365132 0.137759 -0.314910
C33   C     C_3   0.620355 0.755973 0.206697 -0.334917
C34   C     C_3   0.957596 0.588686 0.401792 0.037394
C35   C     C_3   0.792917 0.681189 0.142910 -0.376206
C36   C     C_3   0.898869 0.318763 0.313862 -0.352982
C37   C     C_3   0.053717 0.580125 0.395559 -0.204139
C38   C     C_1   0.824664 0.491782 0.504522 -0.015066
C39   C     C_1   0.175552 0.481708 0.497064 0.021520
C40   C     C_1   0.251006 0.487863 0.495834 0.016514
C41   C     C_R   0.645430 0.125779 0.659352 0.171447
Cu1   Cu    Cu3+1 0.499990 0.499990 0.640660 0.989250
Cu2   Cu    Cu3+1 0.500010 0.500010 0.359340 0.940449
H1    H     H_    0.938330 0.409019 0.710111 0.201819
H2    H     H_    0.914862 0.283705 0.529279 0.174253
H3    H     H_    0.088249 0.672132 0.412307 0.160947
H4    H     H_    0.069764 0.555570 0.289101 0.162963
H5    H     H_    0.068558 0.719031 0.634892 0.166433
H6    H     H_    0.083387 0.656303 0.807025 0.165881
H7    H     H_    0.164199 0.649826 0.685043 0.147244
H8    H     H_    0.929000 0.690274 0.709506 0.182820
H9    H     H_    0.848577 0.570288 0.754638 0.147931
H10   H     H_    0.943651 0.585066 0.854926 0.154558
H11   H     H_    0.857246 0.931491 0.607888 0.222626
H12   H     H_    0.930634 0.572254 0.296680 0.141078
H13   H     H_    0.823053 0.879706 0.777978 0.161147
H14   H     H_    0.798177 0.782738 0.632326 0.140157
H15   H     H_    0.330944 0.298443 0.065413 0.116615
H16   H     H_    0.382350 0.308747 0.229130 0.177268
H17   H     H_    0.316986 0.430964 0.164692 0.172339
H18   H     H_    0.638719 0.748559 0.317625 0.148189
H19   H     H_    0.660352 0.836290 0.162846 0.128281
H20   H     H_    0.555229 0.783120 0.186462 0.155989
H21   H     H_    0.786174 0.667055 0.256396 0.174387
H22   H     H_    0.841788 0.621892 0.108340 0.138171
H23   H     H_    0.391711 0.108491 0.396421 0.127028
H24   H     H_    0.813124 0.780437 0.119170 0.172367
H25   H     H_    0.924582 0.377477 0.226137 0.182731
H26   H     H_    0.909187 0.220083 0.294602 0.207124
H27   H     H_    0.829712 0.325035 0.314776 0.142018
H28   H     H_    0.659797 0.784086 0.556447 0.099922
H29   H     H_    0.388468 0.882700 0.390572 0.130288
H30   H     H_    0.761942 0.691376 0.868878 0.110390
H31   H     H_    0.626614 0.662059 0.751216 0.168649
H32   H     H_    0.389547 0.384750 0.866636 0.140969
H33   H     H_    0.055209 0.280234 0.540418 0.195376
N1    N     N_R   0.500800 0.501210 0.147910 -0.227893
N2    N     N_R   0.500820 0.501290 0.852040 -0.236716
O1    O     O_R   0.499990 0.319640 0.618810 -0.451358
O2    O     O_R   0.500000 0.319660 0.381240 -0.508956
O3    O     O_R   0.379430 0.499990 0.618840 -0.493442
O4    O     O_R   0.379440 0.500020 0.381260 -0.513020
O5    O     O_R   0.500000 0.680340 0.618760 -0.511553
O6    O     O_R   0.500010 0.680360 0.381190 -0.520539
O7    O     O_R   0.620560 0.499980 0.618740 -0.486935
O8    O     O_R   0.620570 0.500010 0.381160 -0.496691

loop_
_geom_bond_atom_site_label_1
_geom_bond_atom_site_label_2
_ccdc_geom_bond_type
C4    C40   S    
C11   C16   S    
C12   C24   S    
C9    H23   S    
Br2   C2    S    
C31   H11   S    
C2    C3    A    
C16   O6    A    
C21   N2    A    
C1    O2    A    
C35   H22   S    
C30   H10   S    
C13   C19   A    
C28   C37   S    
C17   H31   S    
C25   C26   S    
Br1   C41   S    
C10   C11   A    
C24   C28   S    
C22   O7    A    
C13   C14   A    
C3    C31   S    
Br3   C24   S    
C19   N1    A    
C20   C32   S    
C36   H26   S    
C5    H28   S    
C14   C15   A    
Cu2   O8    S    
C32   H17   S    
C18   C19   A    
C22   O8    A    
Cu1   N2    S    
C26   C36   S    
C37   H3    S    
C22   C27   S    
C16   O5    A    
C29   H7    S    
C8    C9    A    
C12   C23   S    
C31   H14   S    
C32   H15   S    
C34   C37   S    
C17   C18   A    
C1    O1    A    
C35   H21   S    
C2    C41   A    
C33   H18   S    
C7    C41   A    
C5    C6    A    
C12   H1    S    
C23   C34   S    
C20   C21   A    
C24   C29   S    
C21   H32   S    
Cu1   O3    S    
C4    O3    A    
C36   H27   S    
C6    C11   A    
Cu1   Cu2   S    
Cu2   O4    S    
Cu1   O1    S    
C7    C8    A    
C18   N2    A    
C15   C17   A    
C29   H6    S    
Cu2   O6    S    
Br5   C34   S    
C20   N1    A    
Cu1   O7    S    
C26   H2    S    
C31   H13   S    
C32   H16   S    
C39   C40   T    
C35   H24   S    
C25   C28   S    
C30   H8    S    
Cu2   O2    S    
C28   C39   S    
C23   C26   S    
C33   H20   S    
C6    C7    A    
C23   C38   S    
C15   H30   S    
C30   H9    S    
Cu1   O5    S    
C25   H33   S    
C13   C33   S    
C4    O4    A    
C1    C8    S    
C10   H29   S    
C34   H12   S    
C27   C38   T    
Cu2   N1    S    
C14   C35   S    
C36   H25   S    
C33   H19   S    
C29   H5    S    
C3    C5    A    
C9    C10   A    
C12   C30   S    
Br4   C25   S    
C37   H4    S    
