data_mof_unit_45887.cif
_audit_creation_date              2012-12-10T19:44:54-0500
_audit_creation_method            fapswitch 2.2
_symmetry_space_group_name_H-M    P1
_symmetry_Int_Tables_number       1
_space_group_crystal_system       triclinic
_cell_length_a                    14.949838
_cell_length_b                    11.020119
_cell_length_c                    13.917607
_cell_angle_alpha                 91.358144
_cell_angle_beta                  93.110045
_cell_angle_gamma                 85.732084
_cell_volume                      2282.74047736

loop_
_atom_site_label
_atom_site_type_symbol
_atom_type_description
_atom_site_fract_x
_atom_site_fract_y
_atom_site_fract_z
_atom_type_partial_charge
C1    C     C_R   0.504464 0.261945 0.499315 0.869135
C2    C     C_R   0.494792 0.738013 0.500602 0.875171
C3    C     C_R   0.066380 0.320192 0.596345 -0.173017
C4    C     C_R   0.933596 0.678993 0.403102 -0.177429
C5    C     C_R   0.414422 0.195369 0.168461 -0.341931
C6    C     C_R   0.574697 0.810082 0.834884 -0.195461
C7    C     C_R   0.413438 0.171284 0.267066 0.046221
C8    C     C_R   0.578415 0.831239 0.735990 -0.010632
C9    C     C_R   0.491653 0.113847 0.314374 0.082226
C10   C     C_R   0.501624 0.887874 0.685530 0.086395
C11   C     C_R   0.568135 0.082416 0.260823 0.151564
C12   C     C_R   0.423721 0.921297 0.736305 0.195912
C13   C     C_R   0.566695 0.106866 0.162767 -0.078144
C14   C     C_R   0.422554 0.900245 0.834754 -0.211946
C15   C     C_R   0.490189 0.163637 0.116059 0.012615
C16   C     C_R   0.497634 0.845054 0.884699 0.028249
C17   C     C_R   0.476339 0.936120 0.413829 0.160049
C18   C     C_R   0.521489 0.063716 0.585711 0.156472
C19   C     C_R   0.490457 0.872761 0.501515 -0.125700
C20   C     C_R   0.507382 0.127228 0.498180 -0.128969
C21   C     C_R   0.507213 0.939583 0.588286 0.008942
C22   C     C_R   0.489281 0.060760 0.411494 0.011452
C23   C     C_R   0.329129 0.500892 0.497827 0.856435
C24   C     C_R   0.670872 0.498955 0.502161 0.860220
C25   C     C_R   0.580357 0.486064 0.800411 0.076180
C26   C     C_R   0.419796 0.513932 0.199487 0.073275
C27   C     C_R   0.422029 0.521897 0.791970 0.334351
C28   C     C_R   0.578044 0.477098 0.208337 0.322935
C29   C     C_R   0.420902 0.499242 0.891637 -0.107999
C30   C     C_R   0.579622 0.499684 0.108650 -0.040427
C31   C     C_R   0.501105 0.500550 0.948929 0.027189
C32   C     C_R   0.499372 0.499323 0.051223 0.047371
C33   C     C_R   0.582901 0.501163 0.903611 -0.054307
C34   C     C_R   0.417530 0.498152 0.096386 -0.133065
C35   C     C_R   0.341298 0.476666 0.935100 0.164214
C36   C     C_R   0.659703 0.519699 0.065013 0.159410
C37   C     C_R   0.337387 0.482182 0.036331 -0.094382
C38   C     C_R   0.663254 0.514994 0.963914 -0.045651
C39   C     C_R   0.805116 0.593979 0.464126 -0.168597
C40   C     C_R   0.194921 0.405655 0.535829 -0.170382
C41   C     C_R   0.767547 0.498388 0.506803 -0.125855
C42   C     C_R   0.232455 0.501239 0.493096 -0.127359
C43   C     C_R   0.821419 0.398967 0.544495 0.129892
C44   C     C_R   0.178531 0.600299 0.454904 0.130361
C45   C     C_R   0.915556 0.405132 0.552167 0.001822
C46   C     C_R   0.084413 0.593983 0.447163 -0.001563
C47   C     C_R   0.953223 0.499122 0.502512 0.021446
C48   C     C_R   0.046770 0.500076 0.496941 0.019613
C49   C     C_R   0.897326 0.592046 0.457640 0.077816
C50   C     C_R   0.102681 0.407295 0.541980 0.078128
C51   C     C_R   0.974081 0.321222 0.605396 0.185828
C52   C     C_R   0.025864 0.677736 0.393808 0.185997
Cu1   Cu    Cu3+1 0.500010 0.499980 0.597420 1.018971
Cu2   Cu    Cu3+1 0.499990 0.500020 0.402580 1.020606
H1    H     H_    0.761740 0.666866 0.431502 0.187913
H2    H     H_    0.238325 0.332971 0.568689 0.189582
H3    H     H_    0.110568 0.254752 0.636438 0.193478
H4    H     H_    0.889388 0.744427 0.363023 0.192497
H5    H     H_    0.354715 0.235830 0.131162 0.117301
H6    H     H_    0.633252 0.769860 0.874266 0.216668
H7    H     H_    0.625471 0.080143 0.122942 0.214007
H8    H     H_    0.362944 0.928860 0.872681 0.167059
N1    N     N_R   0.499960 0.499900 0.743810 -0.238293
N2    N     N_R   0.500040 0.500100 0.256190 -0.227976
O1    O     O_R   0.500000 0.319630 0.582270 -0.548360
O2    O     O_R   0.500000 0.680370 0.417730 -0.545728
O3    O     O_R   0.499990 0.319660 0.417730 -0.587539
O4    O     O_R   0.500010 0.680340 0.582270 -0.586880
O5    O     O_R   0.370260 0.499960 0.582280 -0.555262
O6    O     O_R   0.629740 0.500040 0.417720 -0.554372
O7    O     O_R   0.370250 0.499990 0.417740 -0.614764
O8    O     O_R   0.629750 0.500010 0.582260 -0.615902
I1    I     I_    0.428282 0.853993 0.279173 -0.186653
I2    I     I_    0.571908 0.144619 0.719556 -0.127667
C53   C     C_2   0.666247 0.453325 0.757359 0.487777
H9    H     H_    0.703513 0.524062 0.729146 0.081234
O9    O     O_2   0.701773 0.350479 0.763760 -0.492822
C54   C     C_2   0.333831 0.547620 0.242284 0.497188
H10   H     H_    0.296560 0.477541 0.271427 0.022260
O10   O     O_2   0.297870 0.649981 0.233839 -0.475863
I3    I     I_    0.317545 0.652829 0.741569 -0.240652
I4    I     I_    0.680669 0.344028 0.259445 -0.265558
I5    I     I_    0.237230 0.392460 0.849540 -0.244180
I6    I     I_    0.768188 0.595345 0.149797 -0.200441
C55   C     C_2   0.249736 0.460760 0.075514 0.478598
H11   H     H_    0.245013 0.391673 0.128620 -0.010295
O11   O     O_2   0.181788 0.522116 0.049312 -0.438917
C56   C     C_2   0.752622 0.529962 0.926778 0.405303
H12   H     H_    0.807740 0.462691 0.943490 0.140403
O12   O     O_2   0.766740 0.620391 0.882732 -0.573818
I7    I     I_    0.760819 0.228767 0.546219 -0.170107
I8    I     I_    0.239047 0.770436 0.452195 -0.171362
I9    I     I_    0.937512 0.217205 0.722390 -0.138977
I10   I     I_    0.062247 0.781020 0.276302 -0.111873
C57   C     C_2   0.487713 0.188133 0.011980 0.371521
H13   H     H_    0.426317 0.226434 0.975731 0.084262
O13   O     O_2   0.554170 0.166382 0.965498 -0.496635
C58   C     C_2   0.495162 0.827893 0.989567 0.408156
H14   H     H_    0.433322 0.850113 0.025695 0.096511
O14   O     O_2   0.562079 0.790285 0.037129 -0.512026
C59   C     C_2   0.327922 0.202292 0.315115 0.404167
H15   H     H_    0.270607 0.244774 0.274178 0.060152
O15   O     O_2   0.319565 0.181462 0.399745 -0.544616
C60   C     C_2   0.665425 0.799538 0.691009 0.402008
H16   H     H_    0.722412 0.761161 0.734584 0.126951
O16   O     O_2   0.675405 0.815455 0.605908 -0.546197
I11   I     I_    0.686175 0.987094 0.321790 -0.227081
I12   I     I_    0.307479 0.015336 0.670567 -0.257826

loop_
_geom_bond_atom_site_label_1
_geom_bond_atom_site_label_2
_ccdc_geom_bond_type
C59   H15   S    
C27   C29   A    
C18   C21   A    
C11   C13   A    
C23   O5    A    
C57   H13   S    
Cu1   O5    S    
C60   O16   D    
C24   O6    A    
C47   C49   A    
C55   H11   S    
C26   C54   S    
C23   C42   S    
C4    C52   A    
C37   C55   S    
C35   C37   A    
C2    O4    A    
C15   C57   S    
C54   O10   D    
C9    C22   S    
C45   C51   A    
C34   C37   A    
C46   C52   A    
C25   N1    A    
C53   O9    D    
Cu1   O4    S    
C26   N2    A    
C1    O3    A    
C26   C34   A    
C39   H1    S    
Cu2   O7    S    
C47   C48   A    
C40   H2    S    
C1    O1    A    
C31   C33   A    
C52   I10   S    
Cu1   O1    S    
C44   I8    S    
C55   O11   D    
C18   I2    S    
C17   I1    S    
C24   C41   S    
C41   C43   A    
C42   C44   A    
C60   H16   S    
C3    C50   A    
C44   C46   A    
C45   C47   A    
C10   C21   S    
C46   C48   A    
C5    H5    S    
C28   I4    S    
C6    H6    S    
C27   I3    S    
C39   C41   A    
C12   I12   S    
C3    C51   A    
C54   H10   S    
C6    C8    A    
Cu2   O3    S    
Cu1   Cu2   S    
C43   I7    S    
C38   C56   S    
C25   C53   S    
C32   C34   A    
C53   H9    S    
C23   O7    A    
C9    C11   A    
C31   C32   A    
Cu2   O6    S    
C29   C31   A    
C48   C50   A    
C8    C60   S    
C10   C12   A    
C51   I9    S    
C3    H3    S    
C8    C10   A    
C39   C49   A    
C20   C22   A    
C58   O14   D    
C13   C15   A    
C11   I11   S    
C14   C16   A    
C28   N2    A    
C24   O8    A    
C5    C7    A    
C7    C9    A    
C1    C20   S    
C35   I5    S    
C19   C21   A    
C2    C19   S    
C33   C38   A    
C56   O12   D    
C2    O2    A    
C57   O13   D    
Cu2   O2    S    
C29   C35   A    
C17   C22   A    
C30   C36   A    
C4    C49   A    
C36   C38   A    
C12   C14   A    
C28   C30   A    
C43   C45   A    
C30   C32   A    
Cu1   N1    S    
C16   C58   S    
Cu2   N2    S    
C36   I6    S    
C40   C50   A    
C40   C42   A    
C17   C19   A    
C18   C20   A    
C5    C15   A    
C6    C16   A    
C13   H7    S    
C56   H12   S    
C59   O15   D    
C58   H14   S    
C7    C59   S    
C4    H4    S    
C27   N1    A    
Cu1   O8    S    
C25   C33   A    
C14   H8    S    
