data_mof_unit_43006.cif
_audit_creation_date              2012-12-10T16:43:26-0500
_audit_creation_method            fapswitch 2.2
_symmetry_space_group_name_H-M    P1
_symmetry_Int_Tables_number       1
_space_group_crystal_system       triclinic
_cell_length_a                    10.743338
_cell_length_b                    8.724776
_cell_length_c                    7.450517
_cell_angle_alpha                 103.003119
_cell_angle_beta                  94.304514
_cell_angle_gamma                 92.642247
_cell_volume                      677.106684613

loop_
_atom_site_label
_atom_site_type_symbol
_atom_type_description
_atom_site_fract_x
_atom_site_fract_y
_atom_site_fract_z
_atom_type_partial_charge
C1    C     C_R   0.496528 0.199871 0.453916 0.904001
C2    C     C_R   0.505381 0.800004 0.547259 0.751861
C3    C     C_R   0.737434 0.505691 0.498717 0.769025
C4    C     C_R   0.151417 0.773986 0.727141 -0.168021
C5    C     C_R   0.096250 0.902244 0.831260 -0.117273
C6    C     C_R   0.966651 0.904405 0.825749 -0.153706
C7    C     C_R   0.891534 0.778236 0.716181 -0.185577
C8    C     C_R   0.945382 0.645807 0.611748 0.104502
C9    C     C_3   0.631712 0.076704 0.844258 -0.253450
C10   C     C_R   0.076962 0.643654 0.617147 0.083842
C11   C     C_R   0.129639 0.513227 0.506810 -0.090668
C12   C     C_R   0.054225 0.391770 0.388507 -0.194911
C13   C     C_R   0.925861 0.393772 0.383631 -0.207434
C14   C     C_R   0.871415 0.517330 0.497008 -0.087965
C15   C     C_2   0.498023 0.032619 0.431047 -0.485534
C16   C     C_2   0.508708 0.967973 0.577873 0.303502
C17   C     C_R   0.262861 0.503836 0.502639 0.784564
Cu1   Cu    Cu3+1 0.513920 0.517380 0.684380 0.961820
Cu2   Cu    Cu3+1 0.486080 0.482620 0.315620 0.949299
H1    H     H_    0.095196 0.293497 0.301584 0.145400
H2    H     H_    0.701124 0.111819 0.754508 0.137392
H3    H     H_    0.658615 0.968565 0.888241 0.149134
H4    H     H_    0.635090 0.172836 0.970886 0.198517
H5    H     H_    0.597704 0.622270 0.051572 0.222804
H6    H     H_    0.252303 0.779809 0.731865 0.162585
H7    H     H_    0.154320 0.001211 0.914803 0.144653
H8    H     H_    0.924151 0.005073 0.904933 0.122600
H9    H     H_    0.791455 0.787015 0.711225 0.127025
H10   H     H_    0.868669 0.296317 0.294812 0.138224
H11   H     H_    0.492474 0.961283 0.290382 0.155399
H12   H     H_    0.402373 0.377657 0.948385 0.247921
N1    N     N_2   0.465100 0.456430 0.038520 -0.206551
N2    N     N_2   0.534900 0.543570 0.961480 -0.218519
O1    O     O_R   0.509050 0.286130 0.619770 -0.524547
O2    O     O_R   0.485540 0.256780 0.308360 -0.590006
O3    O     O_R   0.331410 0.514680 0.655740 -0.591542
O4    O     O_R   0.307900 0.485330 0.344330 -0.572383
O5    O     O_R   0.514460 0.743220 0.691640 -0.575824
O6    O     O_R   0.490950 0.713870 0.380230 -0.608288
O7    O     O_R   0.692100 0.514670 0.655670 -0.586799
O8    O     O_R   0.668590 0.485320 0.344260 -0.592470
O9    O     O_3   0.508483 0.056364 0.758273 -0.552603

loop_
_geom_bond_atom_site_label_1
_geom_bond_atom_site_label_2
_ccdc_geom_bond_type
C3    O7    A    
C8    C14   A    
C11   C12   A    
C6    C7    A    
C1    C15   S    
C17   O3    A    
C2    C16   S    
C2    O5    A    
H12   N1    S    
N1    N2    D    
C12   H1    S    
C4    H6    S    
Cu1   O5    S    
Cu2   O8    S    
C7    C8    A    
C17   O4    A    
C13   C14   A    
Cu1   O1    S    
C9    H2    S    
C9    O9    S    
C3    C14   S    
Cu2   O6    S    
Cu2   N1    S    
C13   H10   S    
C1    O1    A    
C5    C6    A    
Cu1   N2    S    
C9    H3    S    
C10   C11   A    
C4    C10   A    
C5    H7    S    
C16   O9    S    
C12   C13   A    
C1    O2    A    
C15   H11   S    
C8    C10   A    
Cu1   Cu2   S    
Cu1   O7    S    
C3    O8    A    
Cu2   O2    S    
Cu2   O4    S    
Cu1   O3    S    
C2    O6    A    
C15   C16   D    
C9    H4    S    
C7    H9    S    
C6    H8    S    
H5    N2    S    
C4    C5    A    
C11   C17   S    
