data_mof_unit_17964.cif
_audit_creation_date              2012-12-10T19:45:14-0500
_audit_creation_method            fapswitch 2.2
_symmetry_space_group_name_H-M    P1
_symmetry_Int_Tables_number       1
_space_group_crystal_system       triclinic
_cell_length_a                    14.988206
_cell_length_b                    14.134029
_cell_length_c                    10.736853
_cell_angle_alpha                 89.885904
_cell_angle_beta                  90.332963
_cell_angle_gamma                 90.08991
_cell_volume                      2274.48940077

loop_
_atom_site_label
_atom_site_type_symbol
_atom_type_description
_atom_site_fract_x
_atom_site_fract_y
_atom_site_fract_z
_atom_type_partial_charge
C1    C     C_R   0.327575 0.499772 0.495387 0.860035
C2    C     C_R   0.672294 0.499956 0.504953 0.863756
C3    C     C_R   0.047433 0.506492 0.499867 0.088140
C4    C     C_R   0.952187 0.507185 0.506930 0.087416
C5    C     C_R   0.471852 0.105357 0.392607 0.133493
C6    C     C_R   0.529193 0.103874 0.606039 0.139313
C7    C     C_R   0.471899 0.205048 0.397008 -0.044205
C8    C     C_R   0.528214 0.204360 0.602775 -0.059554
C9    C     C_R   0.500112 0.053150 0.498946 -0.044069
C10   C     C_R   0.443637 0.895192 0.578893 -0.271858
C11   C     C_R   0.555976 0.895240 0.419343 -0.281504
C12   C     C_R   0.444750 0.795629 0.577979 0.014598
C13   C     C_R   0.555108 0.795691 0.421443 0.017844
C14   C     C_R   0.499622 0.946518 0.498638 0.112137
C15   C     C_R   0.497959 0.499991 0.262355 0.928677
C16   C     C_R   0.500618 0.499808 0.737642 0.931311
C17   C     C_2   0.487843 0.420849 0.933059 -0.174640
C18   C     C_2   0.494853 0.419949 0.066849 -0.168049
C19   C     C_2   0.506771 0.499385 0.869258 -0.328155
C20   C     C_2   0.487377 0.500200 0.131093 -0.339643
C21   C     C_R   0.096431 0.575857 0.561196 -0.182434
C22   C     C_R   0.904119 0.573060 0.437733 -0.180497
C23   C     C_R   0.188302 0.572360 0.557826 -0.229063
C24   C     C_R   0.812195 0.569550 0.438976 -0.231182
C25   C     C_R   0.231260 0.500072 0.491941 -0.049135
C26   C     C_R   0.768392 0.500718 0.510338 -0.047701
C27   C     C_R   0.181133 0.430957 0.425718 0.095669
C28   C     C_R   0.817356 0.435646 0.584693 0.098449
C29   C     C_R   0.088583 0.434787 0.432800 -0.203425
C30   C     C_R   0.909994 0.439215 0.579899 -0.204131
H1    H     H_    0.469708 0.355152 0.886856 0.166559
H2    H     H_    0.505788 0.352150 0.112310 0.168395
H3    H     H_    0.401277 0.756687 0.639783 0.122456
H4    H     H_    0.598728 0.756792 0.360158 0.121907
H5    H     H_    0.530155 0.564208 0.912323 0.147218
H6    H     H_    0.470229 0.567426 0.088525 0.150793
H7    H     H_    0.063519 0.631260 0.613207 0.140933
H8    H     H_    0.937821 0.625430 0.381013 0.140922
H9    H     H_    0.225968 0.625516 0.608426 0.154290
H10   H     H_    0.775122 0.619738 0.382497 0.151482
H11   H     H_    0.047805 0.383171 0.383980 0.133949
H12   H     H_    0.949904 0.390296 0.634631 0.134015
H13   H     H_    0.448135 0.245114 0.317868 0.143027
H14   H     H_    0.550641 0.245227 0.681661 0.150026
H15   H     H_    0.399281 0.931951 0.641579 0.152224
H16   H     H_    0.600702 0.931971 0.356862 0.145799
N1    N     N_R   0.500000 0.252470 0.500000 -0.128811
N2    N     N_R   0.500000 0.747550 0.500000 -0.090136
O1    O     O_R   0.369060 0.579480 0.500010 -0.625114
O2    O     O_R   0.630940 0.579480 0.499990 -0.625402
O3    O     O_R   0.369050 0.420520 0.500010 -0.619844
O4    O     O_R   0.630950 0.420520 0.499990 -0.618077
O5    O     O_R   0.500000 0.579460 0.319080 -0.626062
O6    O     O_R   0.500000 0.579460 0.680920 -0.626934
O7    O     O_R   0.499990 0.420500 0.319080 -0.622047
O8    O     O_R   0.500010 0.420500 0.680920 -0.622764
Zn1   Zn    Zn3+2 0.500000 0.606140 0.500000 0.937100
Zn2   Zn    Zn3+2 0.500000 0.393860 0.500000 0.929952
C31   C     C_3   0.221633 0.357145 0.340433 -0.429436
C32   C     C_3   0.255041 0.402763 0.219647 -0.325817
C33   C     C_3   0.283796 0.328178 0.125509 -0.864124
H17   H     H_    0.306170 0.363477 0.038674 0.256640
H18   H     H_    0.339645 0.285355 0.163497 0.258387
H19   H     H_    0.227035 0.280689 0.102141 0.256436
H20   H     H_    0.200800 0.445896 0.177155 0.220596
H21   H     H_    0.312218 0.450265 0.240053 0.218494
H22   H     H_    0.275381 0.316813 0.387651 0.227241
H23   H     H_    0.170441 0.303212 0.315467 0.194495
C34   C     C_3   0.775055 0.367326 0.676335 -0.438215
C35   C     C_3   0.742670 0.420060 0.792186 -0.323981
C36   C     C_3   0.705064 0.351822 0.888836 -0.875707
H24   H     H_    0.645514 0.315009 0.850727 0.260791
H25   H     H_    0.756039 0.298641 0.916245 0.254732
H26   H     H_    0.685207 0.391807 0.973107 0.262356
H27   H     H_    0.799405 0.459392 0.834821 0.220730
H28   H     H_    0.690356 0.471986 0.765933 0.214343
H29   H     H_    0.720273 0.326210 0.632727 0.226981
H30   H     H_    0.824846 0.313570 0.706659 0.192384
N3    N     N_2   0.438233 0.059455 0.283687 -0.307032
H31   H     H_    0.417699 0.990372 0.294817 0.243613
C37   C     C_3   0.489326 0.074725 0.171370 -0.815160
H32   H     H_    0.456709 0.037495 0.092274 0.246808
H33   H     H_    0.558003 0.046542 0.183261 0.237737
H34   H     H_    0.492593 0.151159 0.147784 0.236138
N4    N     N_2   0.558976 0.052894 0.714298 -0.297482
H35   H     H_    0.591940 0.990352 0.697017 0.241788
C38   C     C_3   0.592346 0.103380 0.822183 -0.843541
H36   H     H_    0.654042 0.142797 0.797964 0.241099
H37   H     H_    0.608596 0.052108 0.897447 0.247008
H38   H     H_    0.540654 0.152210 0.858391 0.244242

loop_
_geom_bond_atom_site_label_1
_geom_bond_atom_site_label_2
_ccdc_geom_bond_type
C38   H36   S    
C27   C29   A    
C34   H29   S    
C28   C34   S    
C12   N2    A    
C6    C9    A    
C37   H32   S    
N2    Zn1   S    
N4    H35   S    
C6    N4    S    
C15   O5    A    
C24   C26   A    
C11   C14   A    
C22   H8    S    
O1    Zn1   S    
C33   H18   S    
C3    C29   A    
C2    O2    A    
C17   C19   D    
C38   H38   S    
C35   C36   S    
C7    H13   S    
C5    N3    S    
C31   H22   S    
C32   H21   S    
C31   C32   S    
C1    C25   S    
C34   H30   S    
C34   C35   S    
C10   C12   A    
C37   H33   S    
N4    C38   S    
C15   C20   S    
O4    Zn2   S    
C10   C14   A    
N3    C37   S    
O5    Zn1   S    
C6    C8    A    
C32   C33   S    
C7    N1    A    
C33   H19   S    
C9    C14   S    
C16   O8    A    
C5    C9    A    
C31   H23   S    
C13   N2    A    
C4    C22   A    
C10   H15   S    
C17   C18   S    
C2    C26   S    
O3    Zn2   S    
C1    O3    A    
C2    O4    A    
C32   H20   S    
C21   C23   A    
C35   H28   S    
C17   H1    S    
C22   C24   A    
C3    C21   A    
C18   H2    S    
C3    C4    S    
C37   H34   S    
C5    C7    A    
C29   H11   S    
O2    Zn1   S    
C8    H14   S    
C36   H26   S    
C25   C27   A    
C26   C28   A    
C28   C30   A    
C8    N1    A    
C36   H24   S    
C27   C31   S    
N1    Zn2   S    
C11   C13   A    
C16   C19   S    
C23   H9    S    
C24   H10   S    
O8    Zn2   S    
C18   C20   D    
C23   C25   A    
C33   H17   S    
C16   O6    A    
N3    H31   S    
C20   H6    S    
C13   H4    S    
C21   H7    S    
O7    Zn2   S    
C36   H25   S    
C35   H27   S    
C38   H37   S    
C30   H12   S    
C11   H16   S    
C19   H5    S    
C12   H3    S    
C1    O1    A    
C4    C30   A    
C15   O7    A    
O6    Zn1   S    
