data_mof_unit_42384.cif
_audit_creation_date              2013-03-05T16:06:02-0500
_audit_creation_method            fapswitch 2.2
_symmetry_space_group_name_H-M    P1
_symmetry_Int_Tables_number       1
_space_group_crystal_system       triclinic
_cell_length_a                    10.803025
_cell_length_b                    9.703535
_cell_length_c                    23.517352
_cell_angle_alpha                 89.994074
_cell_angle_beta                  95.012323
_cell_angle_gamma                 89.999227
_cell_volume                      2455.8385867

loop_
_atom_site_label
_atom_site_type_symbol
_atom_site_description
_atom_site_fract_x
_atom_site_fract_y
_atom_site_fract_z
_atom_type_partial_charge
O1    O     O_R   0.319640 0.618740 0.500000 -0.591448
O2    O     O_R   0.680360 0.381260 0.500000 -0.587659
O3    O     O_R   0.680360 0.618740 0.500000 -0.591561
O4    O     O_R   0.319640 0.381260 0.500000 -0.587641
C1    C     C_R   0.262601 0.500000 0.499843 0.773820
C2    C     C_R   0.737398 0.499999 0.500149 0.774130
O5    O     O_R   0.499960 0.618810 0.417880 -0.580610
O6    O     O_R   0.500040 0.381190 0.582120 -0.575887
O7    O     O_R   0.500040 0.618810 0.582120 -0.580280
O8    O     O_R   0.499960 0.381190 0.417880 -0.575849
C3    C     C_R   0.499383 0.500578 0.391191 0.809765
C4    C     C_R   0.500669 0.500565 0.608812 0.809294
Cu1   Cu    Cu3+1 0.500000 0.640660 0.500000 0.917569
Cu2   Cu    Cu3+1 0.500000 0.359340 0.500000 0.934818
C5    C     C_R   0.597836 0.583614 0.882315 0.541218
C6    C     C_R   0.402054 0.584248 0.117668 0.541215
N1    N     N_R   0.486809 0.553181 0.851653 -0.453529
N2    N     N_R   0.512977 0.553378 0.148333 -0.453527
C7    C     C_R   0.378839 0.546469 0.878550 0.532616
C8    C     C_R   0.620918 0.546139 0.121436 0.532633
C9    C     C_R   0.381263 0.566929 0.937795 -0.013109
C10   C     C_R   0.618563 0.566509 0.062187 -0.013098
C11   C     C_R   0.496924 0.576659 0.969934 -0.017411
C12   C     C_R   0.502937 0.576700 0.030048 -0.017401
C13   C     C_R   0.606647 0.583342 0.942150 -0.021478
C14   C     C_R   0.393239 0.583921 0.057831 -0.021487
C15   C     C_R   0.271720 0.572939 0.965890 -0.160052
C16   C     C_R   0.728127 0.571976 0.034092 -0.160055
C17   C     C_R   0.277737 0.585949 0.025263 -0.165865
C18   C     C_R   0.722155 0.584909 0.974716 -0.165854
O9    O     O_2   0.700047 0.610281 0.855048 -0.536230
O10   O     O_2   0.299939 0.611387 0.144933 -0.536281
O11   O     O_2   0.269887 0.516927 0.848569 -0.544713
O12   O     O_2   0.729767 0.516155 0.151421 -0.544693
H1    H     H_    0.181295 0.568157 0.942135 0.187553
H2    H     H_    0.818534 0.566829 0.057847 0.187540
H3    H     H_    0.191751 0.590721 0.045671 0.185313
H4    H     H_    0.808158 0.589260 0.954308 0.185325
C19   C     C_R   0.599507 0.599059 0.246859 -0.146674
C20   C     C_R   0.400464 0.599105 0.753114 -0.147072
H5    H     H_    0.665168 0.669103 0.229931 0.178127
H6    H     H_    0.334988 0.669408 0.770017 0.178205
C21   C     C_R   0.601514 0.581125 0.305852 0.111908
C22   C     C_R   0.398595 0.581318 0.694122 0.111257
C23   C     C_R   0.505567 0.504857 0.328576 -0.127968
C24   C     C_R   0.494418 0.504813 0.671426 -0.127988
C25   C     C_R   0.412985 0.440421 0.290983 -0.082429
C26   C     C_R   0.586728 0.439971 0.709041 -0.082200
C27   C     C_R   0.428821 0.436254 0.231712 0.186164
C28   C     C_R   0.570688 0.435719 0.768296 0.186374
C29   C     C_R   0.514990 0.527410 0.209194 0.271287
C30   C     C_R   0.484726 0.527148 0.790795 0.271391
C31   C     C_R   0.063986 0.374816 0.500091 -0.195098
C32   C     C_R   0.935998 0.625249 0.499902 -0.212194
C33   C     C_R   0.936021 0.374816 0.499931 -0.195374
C34   C     C_R   0.063991 0.625250 0.500060 -0.212291
H7    H     H_    0.111974 0.276853 0.500167 0.154518
H8    H     H_    0.887956 0.723212 0.499851 0.158527
H9    H     H_    0.888041 0.276853 0.499878 0.154548
H10   H     H_    0.112026 0.723212 0.500087 0.158539
C35   C     C_R   0.871486 0.500018 0.499920 -0.009174
C36   C     C_R   0.128512 0.500019 0.500071 -0.009042
C37   C     C_R   0.417036 0.073726 0.464005 0.224900
C38   C     C_R   0.582198 0.925740 0.536563 0.242803
C39   C     C_R   0.582967 0.073705 0.535992 0.224707
C40   C     C_R   0.417803 0.925763 0.463437 0.242904
N3    N     N_R   0.500000 0.852070 0.500000 -0.191840
N4    N     N_R   0.500000 0.147930 0.500000 -0.189662
C41   C     C_3   0.705101 0.647410 0.343653 -0.809354
H11   H     H_    0.668406 0.733611 0.368217 0.252044
H12   H     H_    0.749577 0.569687 0.373494 0.218106
H13   H     H_    0.778531 0.689871 0.318393 0.221304
C42   C     C_3   0.295501 0.648376 0.656284 -0.807453
H14   H     H_    0.251885 0.571523 0.625741 0.218209
H15   H     H_    0.221247 0.689368 0.681481 0.221104
H16   H     H_    0.332633 0.735762 0.632462 0.251466
C43   C     C_R   0.288071 0.410786 0.310874 0.131005
C44   C     C_R   0.231028 0.280855 0.304244 -0.160724
C45   C     C_R   0.111509 0.259446 0.321202 -0.138787
C46   C     C_R   0.047348 0.367479 0.344636 -0.080789
C47   C     C_R   0.102040 0.497528 0.350592 -0.128932
C48   C     C_R   0.221185 0.519307 0.333496 -0.153999
H17   H     H_    0.279586 0.194557 0.287624 0.131282
H18   H     H_    0.069189 0.158498 0.316683 0.136624
H19   H     H_    0.955178 0.350595 0.358008 0.135063
H20   H     H_    0.051815 0.581770 0.368124 0.140393
H21   H     H_    0.260687 0.621686 0.336886 0.123996
C49   C     C_R   0.711651 0.410021 0.689211 0.131251
C50   C     C_R   0.768541 0.280026 0.695969 -0.160736
C51   C     C_R   0.888074 0.258335 0.679080 -0.138864
C52   C     C_R   0.952392 0.366129 0.655562 -0.080999
C53   C     C_R   0.897848 0.496227 0.649458 -0.128844
C54   C     C_R   0.778702 0.518304 0.666500 -0.153994
H22   H     H_    0.719843 0.193861 0.712612 0.131289
H23   H     H_    0.930268 0.157340 0.683703 0.136660
H24   H     H_    0.044565 0.349017 0.642235 0.135136
H25   H     H_    0.948191 0.580282 0.631853 0.140421
H26   H     H_    0.739324 0.620730 0.662985 0.123777
C55   C     C_3   0.356100 0.334094 0.193233 -0.766717
H27   H     H_    0.255114 0.356883 0.191113 0.261879
H28   H     H_    0.385417 0.332323 0.149287 0.224656
H29   H     H_    0.374493 0.228236 0.209457 0.203124
C56   C     C_3   0.642941 0.333194 0.806787 -0.767174
H30   H     H_    0.744015 0.355524 0.808979 0.261892
H31   H     H_    0.613495 0.331523 0.850711 0.224691
H32   H     H_    0.624182 0.227437 0.790533 0.203100
C57   C     C_3   0.322356 0.144460 0.423081 -0.758496
H33   H     H_    0.327048 0.255664 0.421102 0.284311
H34   H     H_    0.335994 0.109521 0.379393 0.198485
H35   H     H_    0.226994 0.118789 0.433716 0.192402
C58   C     C_3   0.674080 0.854083 0.579405 -0.797031
H36   H     H_    0.673757 0.742889 0.578662 0.273857
H37   H     H_    0.770579 0.883990 0.572195 0.192211
H38   H     H_    0.654373 0.881392 0.623518 0.201461
C59   C     C_3   0.677650 0.144417 0.576910 -0.758335
H39   H     H_    0.672936 0.255620 0.578904 0.284291
H40   H     H_    0.664027 0.109417 0.620592 0.198542
H41   H     H_    0.773010 0.118771 0.566265 0.192431
C60   C     C_3   0.325914 0.854130 0.420602 -0.797094
H42   H     H_    0.326271 0.742938 0.421345 0.273922
H43   H     H_    0.229416 0.884011 0.427825 0.192183
H44   H     H_    0.345593 0.881477 0.376487 0.201511

loop_
_geom_bond_atom_site_label_1
_geom_bond_atom_site_label_2
_geom_bond_distance
_ccdc_geom_bond_type
C19   C29   1.400159 A    
C33   H9    1.082677 S    
C15   C17   1.397853 A    
C42   H15   1.111731 S    
C42   H14   1.111342 S    
C31   C33   1.382088 A    
C58   H36   1.079123 S    
O3    C2    1.306477 A    
C27   C29   1.419666 A    
C47   C48   1.397638 A    
C51   H23   1.082281 S    
C19   H5    1.083002 S    
C43   C44   1.406030 A    
O5    C3    1.307555 A    
O1    C1    1.306484 A    
C2    C35   1.449033 S    
C7    C9    1.405354 A    
C12   C14   1.404111 A    
C41   H11   1.109329 S    
C32   H8    1.082980 S    
C45   H18   1.082298 S    
C5    C13   1.402066 A    
C59   H39   1.081475 S    
C18   H4    1.083173 S    
C50   H22   1.079329 S    
C41   H12   1.110446 S    
O7    Cu1   1.942789 S    
C6    O10   1.349473 S    
N1    C7    1.376142 A    
C52   H24   1.082526 S    
C49   C54   1.407657 A    
C44   H17   1.079373 S    
C59   H40   1.103934 S    
C53   H25   1.082472 S    
C28   C30   1.419653 A    
C57   H33   1.081457 S    
C26   C49   1.494389 S    
C58   H38   1.109259 S    
C47   H20   1.082488 S    
O3    Cu1   1.960005 S    
C34   C36   1.400877 A    
C8    O12   1.348966 S    
C39   N4    1.380524 A    
C60   H43   1.109331 S    
C40   N3    1.380447 A    
C9    C15   1.406067 A    
C37   C40   1.435860 A    
C28   C56   1.514842 S    
C21   C41   1.510823 S    
C10   C16   1.406055 A    
Cu1   Cu2   2.729798 S    
C39   C59   1.507061 S    
O2    C2    1.306472 A    
N1    C30   1.451596 S    
C22   C24   1.415714 A    
N2    C29   1.451567 S    
C24   C26   1.420774 A    
C23   C25   1.420740 A    
C6    C14   1.402097 A    
C32   C34   1.382392 A    
C38   N3    1.380447 A    
C56   H31   1.107216 S    
C7    O11   1.348964 S    
C52   C53   1.395225 A    
C31   H7    1.082680 S    
C44   C45   1.399748 A    
O4    C1    1.306464 A    
C38   C58   1.519514 S    
C19   C21   1.396511 A    
C15   H1    1.083116 S    
C20   C30   1.400120 A    
C34   H10   1.082978 S    
C41   H13   1.110968 S    
C46   H19   1.082542 S    
C27   C55   1.514846 S    
C31   C36   1.400717 A    
C55   H27   1.109973 S    
C20   C22   1.396430 A    
O6    C4    1.317303 A    
C59   H41   1.109473 S    
C58   H37   1.109332 S    
C26   C28   1.419778 A    
C21   C23   1.415755 A    
C4    C24   1.480516 S    
C55   H28   1.107208 S    
C8    C10   1.405316 A    
C40   C60   1.519462 S    
C9    C11   1.405837 A    
O8    Cu2   1.942789 S    
C57   H35   1.109476 S    
C10   C12   1.405834 A    
C3    C23   1.480452 S    
O1    Cu1   1.960012 S    
C25   C43   1.494269 S    
C37   C57   1.507111 S    
Cu1   N3    2.051424 S    
C60   H44   1.109258 S    
C13   C18   1.406023 A    
C5    N1    1.376485 A    
C37   N4    1.380539 A    
O6    Cu2   1.942833 S    
C46   C47   1.395265 A    
C60   H42   1.079095 S    
C5    O9    1.349478 S    
C32   C35   1.400878 A    
C25   C27   1.419687 A    
C38   C39   1.435874 A    
C16   C18   1.397832 A    
C51   C52   1.396357 A    
C57   H34   1.103977 S    
C43   C48   1.407594 A    
C33   C35   1.400714 A    
C20   H6    1.083007 S    
C53   C54   1.397630 A    
C42   H16   1.110387 S    
C1    C36   1.449038 S    
C56   H32   1.107634 S    
N2    C8    1.376131 A    
C11   C13   1.404101 A    
O4    Cu2   1.960006 S    
C22   C42   1.510735 S    
O2    Cu2   1.960011 S    
O7    C4    1.307560 A    
O8    C3    1.317287 A    
C11   C12   1.409540 A    
C45   C46   1.396406 A    
O5    Cu1   1.942833 S    
C55   H29   1.107630 S    
C49   C50   1.406056 A    
C16   H2    1.083115 S    
C14   C17   1.406031 A    
C6    N2    1.376469 A    
C17   H3    1.083171 S    
C56   H30   1.109969 S    
Cu2   N4    2.051425 S    
C50   C51   1.399717 A    
C54   H26   1.081414 S    
C48   H21   1.081416 S    
