data_mof_unit_10745.cif
_audit_creation_date              2012-12-10T17:04:36-0500
_audit_creation_method            fapswitch 2.2
_symmetry_space_group_name_H-M    P1
_symmetry_Int_Tables_number       1
_space_group_crystal_system       triclinic
_cell_length_a                    14.962272
_cell_length_b                    10.699943
_cell_length_c                    10.070396
_cell_angle_alpha                 88.756339
_cell_angle_beta                  89.620186
_cell_angle_gamma                 90.001489
_cell_volume                      1611.80943244

loop_
_atom_site_label
_atom_site_type_symbol
_atom_type_description
_atom_site_fract_x
_atom_site_fract_y
_atom_site_fract_z
_atom_type_partial_charge
C1    C     C_R   0.493858 0.263169 0.501578 0.931091
C2    C     C_R   0.184865 0.416517 0.587996 0.030042
C3    C     C_R   0.231687 0.497732 0.501670 -0.054883
C4    C     C_R   0.327177 0.498424 0.500497 0.913504
C5    C     C_R   0.188103 0.580701 0.416144 -0.300550
C6    C     C_2   0.454480 0.934773 0.407350 0.052747
C7    C     C_2   0.508496 0.870317 0.491070 0.292656
C8    C     C_2   0.461987 0.069451 0.397095 -0.173647
C9    C     C_2   0.473794 0.133273 0.507364 -0.258047
C10   C     C_2   0.566732 0.536951 0.924980 0.103307
C11   C     C_2   0.571063 0.510835 0.072020 0.023881
C12   C     C_R   0.908353 0.597535 0.414060 0.070502
C13   C     C_R   0.500880 0.737266 0.498248 0.814700
C14   C     C_R   0.672820 0.503834 0.499363 0.885078
C15   C     C_R   0.813993 0.597906 0.416013 0.024668
C16   C     C_R   0.768401 0.510332 0.498186 -0.095258
C17   C     C_R   0.813152 0.428295 0.582687 -0.281065
C18   C     C_R   0.905014 0.427838 0.584868 0.131933
C19   C     C_R   0.953279 0.510709 0.500099 0.001750
C20   C     C_R   0.948850 0.343836 0.670149 -0.197622
C21   C     C_R   0.041198 0.339959 0.672260 -0.227074
C22   C     C_R   0.091213 0.419983 0.588315 0.093183
C23   C     C_R   0.046741 0.505773 0.501760 0.044205
C24   C     C_R   0.095900 0.585997 0.416332 0.072261
C25   C     C_R   0.052916 0.670942 0.332003 -0.206901
C26   C     C_R   0.960349 0.678500 0.329521 0.099055
H1    H     H_    0.458932 0.114661 0.299549 0.174614
H2    H     H_    0.729244 0.645097 0.265548 0.203648
H3    H     H_    0.719716 0.735127 0.403017 0.191562
H4    H     H_    0.611442 0.864483 0.608999 0.326445
H5    H     H_    0.412911 0.380224 0.831380 0.374702
H6    H     H_    0.370888 0.499609 0.120544 0.225148
H7    H     H_    0.414192 0.639593 0.154762 0.197984
H8    H     H_    0.214586 0.238707 0.647957 0.177550
H9    H     H_    0.217827 0.346376 0.770424 0.192925
H10   H     H_    0.882752 0.722554 0.169763 0.205715
H11   H     H_    0.887042 0.835189 0.289913 0.219017
H12   H     H_    0.468011 0.088596 0.605128 0.191835
H13   H     H_    0.326359 0.910170 0.350961 0.179307
H14   H     H_    0.402705 0.895304 0.228035 0.187799
H15   H     H_    0.622947 0.584214 0.877475 0.060080
H16   H     H_    0.636540 0.501657 0.116588 0.086231
H17   H     H_    0.775810 0.363044 0.645850 0.162076
H18   H     H_    0.911522 0.280550 0.735227 0.148434
H19   H     H_    0.072532 0.273490 0.739681 0.146537
H20   H     H_    0.226521 0.642883 0.350967 0.157471
H21   H     H_    0.091687 0.732416 0.266706 0.159639
N1    N     N_2   0.500970 0.501330 0.852150 0.057566
N2    N     N_2   0.500990 0.501360 0.147810 -0.054115
N3    N     N_3   0.764452 0.689369 0.340348 -0.484727
N4    N     N_3   0.424415 0.559569 0.099040 -0.334589
N5    N     N_3   0.233529 0.329695 0.671062 -0.463858
N6    N     N_3   0.923058 0.768200 0.237834 -0.460725
N7    N     N_3   0.389085 0.873202 0.327765 -0.483971
O1    O     O_R   0.499990 0.319060 0.613040 -0.617049
O2    O     O_3   0.450790 0.408550 0.905008 -0.682557
O3    O     O_R   0.500010 0.319100 0.386900 -0.605412
O4    O     O_R   0.367830 0.499950 0.613080 -0.609967
O5    O     O_R   0.367860 0.499990 0.386940 -0.642859
O6    O     O_R   0.499990 0.680900 0.613100 -0.629672
O7    O     O_R   0.500010 0.680940 0.386960 -0.621176
O8    O     O_R   0.632140 0.500010 0.613060 -0.628069
O9    O     O_R   0.632170 0.500050 0.386920 -0.631585
O10   O     O_3   0.576511 0.928659 0.559222 -0.791231
Zn1   Zn    Zn3+2 0.499980 0.499970 0.650990 0.979911
Zn2   Zn    Zn3+2 0.500020 0.500030 0.349010 0.945850

loop_
_geom_bond_atom_site_label_1
_geom_bond_atom_site_label_2
_ccdc_geom_bond_type
C2    C22   A    
C19   C23   A    
C23   C24   A    
C17   H17   S    
H6    N4    S    
C6    C7    D    
C11   N2    D    
H4    O10   S    
H5    O2    S    
H7    N4    S    
C5    H20   S    
C25   H21   S    
O4    Zn1   S    
H8    N5    S    
C12   C15   A    
O3    Zn2   S    
H11   N6    S    
N2    N4    S    
C2    C3    A    
C1    O1    A    
O9    Zn2   S    
C1    C9    S    
C13   O6    A    
C1    O3    A    
C24   C25   A    
C10   H15   S    
C5    C24   A    
C2    N5    S    
C6    N7    S    
C21   H19   S    
C14   O9    A    
C4    O5    A    
C9    H12   S    
C20   H18   S    
O6    Zn1   S    
C17   C18   A    
C18   C20   A    
H3    N3    S    
O5    Zn2   S    
C10   N1    D    
N1    Zn1   S    
C14   C16   S    
C7    O10   S    
H13   N7    S    
C10   C11   S    
C3    C4    S    
C14   O8    A    
C26   N6    S    
C7    C13   S    
C13   O7    A    
C20   C21   A    
C12   C19   A    
C11   H16   S    
C18   C19   A    
N2    Zn2   S    
C15   N3    S    
C4    O4    A    
H9    N5    S    
N1    O2    S    
C8    H1    S    
C22   C23   A    
C16   C17   A    
C6    C8    S    
H10   N6    S    
O8    Zn1   S    
O1    Zn1   S    
C25   C26   A    
C21   C22   A    
H2    N3    S    
O7    Zn2   S    
C15   C16   A    
H14   N7    S    
C12   C26   A    
C8    C9    D    
C3    C5    A    
