data_mof_unit_28249.cif
_audit_creation_date              2012-12-10T18:22:14-0500
_audit_creation_method            fapswitch 2.2
_symmetry_space_group_name_H-M    P1
_symmetry_Int_Tables_number       1
_space_group_crystal_system       triclinic
_cell_length_a                    14.998191
_cell_length_b                    14.003306
_cell_length_c                    15.72691
_cell_angle_alpha                 90.348434
_cell_angle_beta                  90.120011
_cell_angle_gamma                 89.931232
_cell_volume                      3302.96195228

loop_
_atom_site_label
_atom_site_type_symbol
_atom_type_description
_atom_site_fract_x
_atom_site_fract_y
_atom_site_fract_z
_atom_type_partial_charge
C1    C     C_R   0.326474 0.500086 0.500771 0.896358
C2    C     C_3   0.614352 0.486877 0.952023 0.955362
C3    C     C_3   0.603842 0.472524 0.051431 -0.474677
C4    C     C_1   0.510140 0.503206 0.825850 -0.078177
C5    C     C_1   0.505858 0.499821 0.173898 -0.084656
C6    C     C_1   0.502885 0.499369 0.249194 -0.189903
C7    C     C_R   0.814975 0.586133 0.489851 -0.266031
C8    C     C_R   0.769354 0.499885 0.499768 -0.080635
C9    C     C_R   0.815190 0.413880 0.511239 -0.263072
C10   C     C_R   0.907365 0.413531 0.513136 0.119317
C11   C     C_R   0.953595 0.500420 0.503145 0.058594
C12   C     C_R   0.500187 0.499755 0.338096 0.915284
C13   C     C_R   0.907120 0.587082 0.491795 0.120797
C14   C     C_R   0.953921 0.327878 0.524688 -0.245017
C15   C     C_R   0.046530 0.327945 0.524969 -0.224578
C16   C     C_R   0.092824 0.413792 0.514619 0.121812
C17   C     C_R   0.046327 0.500587 0.504103 0.060858
C18   C     C_R   0.092553 0.587429 0.493801 0.120162
C19   C     C_R   0.045987 0.673245 0.483208 -0.246159
C20   C     C_R   0.953383 0.673096 0.482488 -0.221516
C21   C     C_R   0.185017 0.414329 0.513947 -0.259616
C22   C     C_R   0.230626 0.500379 0.502797 -0.076622
C23   C     C_R   0.673533 0.499944 0.499630 0.901941
C24   C     C_R   0.184744 0.586738 0.493576 -0.263284
C25   C     C_R   0.560601 0.797175 0.451938 -0.050129
C26   C     C_R   0.561068 0.201980 0.452433 -0.050562
C27   C     C_R   0.439523 0.797987 0.548155 -0.052937
C28   C     C_R   0.439509 0.202812 0.548134 -0.048354
C29   C     C_R   0.437063 0.899000 0.549399 -0.040941
C30   C     C_R   0.438059 0.101830 0.550550 -0.041298
C31   C     C_R   0.499908 0.949388 0.499883 0.050331
C32   C     C_R   0.500537 0.050593 0.500603 0.050218
C33   C     C_R   0.562328 0.898151 0.449874 -0.041399
C34   C     C_R   0.563658 0.100969 0.451385 -0.041195
C35   C     C_R   0.374620 0.950184 0.599637 -0.054853
C36   C     C_R   0.375505 0.051485 0.600698 -0.054638
C37   C     C_R   0.626684 0.049751 0.401826 -0.054560
C38   C     C_R   0.625364 0.948462 0.400296 -0.054449
C39   C     C_R   0.500107 0.500293 0.661890 0.911800
C40   C     C_3   0.486042 0.602283 0.050328 -0.396579
C41   C     C_3   0.442308 0.428664 0.045774 -0.425191
C42   C     C_3   0.452891 0.424356 0.948673 -0.460977
C43   C     C_3   0.479523 0.601510 0.952660 -0.469693
C44   C     C_1   0.504749 0.501296 0.750659 -0.184444
C45   C     C_3   0.509499 0.501147 0.082446 0.271372
C46   C     C_3   0.516002 0.505297 0.917461 0.223769
H1    H     H_    0.408514 0.610388 0.933377 0.189260
H2    H     H_    0.385678 0.430783 0.918861 0.182417
H3    H     H_    0.081914 0.261068 0.532702 0.144634
H4    H     H_    0.221073 0.347757 0.521978 0.165095
H5    H     H_    0.220572 0.653287 0.485308 0.161926
H6    H     H_    0.081137 0.740178 0.475291 0.138631
H7    H     H_    0.917980 0.739940 0.474590 0.143916
H8    H     H_    0.607626 0.754872 0.415801 0.150813
H9    H     H_    0.607074 0.243581 0.415030 0.152245
H10   H     H_    0.393733 0.756312 0.585718 0.152683
H11   H     H_    0.392319 0.245099 0.584086 0.149569
H12   H     H_    0.421458 0.626851 0.077615 0.173685
H13   H     H_    0.373053 0.450567 0.062332 0.186281
H14   H     H_    0.453751 0.356394 0.072917 0.175003
H15   H     H_    0.538325 0.653836 0.071097 0.182810
H16   H     H_    0.480162 0.353340 0.929835 0.196850
H17   H     H_    0.515973 0.663948 0.927246 0.174885
H18   H     H_    0.653989 0.516539 0.086246 0.169319
H19   H     H_    0.614665 0.398355 0.072435 0.143342
H20   H     H_    0.778952 0.652558 0.480832 0.169997
H21   H     H_    0.779325 0.347298 0.519136 0.163389
H22   H     H_    0.918766 0.260988 0.532844 0.138289
N1    N     N_R   0.500070 0.750030 0.500040 -0.109412
N2    N     N_R   0.500070 0.249970 0.500040 -0.109275
O1    O     O_R   0.367860 0.580280 0.500020 -0.629936
O2    O     O_R   0.367860 0.419720 0.500020 -0.630774
O3    O     O_R   0.500020 0.580310 0.377140 -0.616642
O4    O     O_R   0.500020 0.419690 0.377140 -0.614501
O5    O     O_R   0.632160 0.580270 0.499980 -0.633194
O6    O     O_R   0.632160 0.419730 0.499980 -0.628931
O7    O     O_R   0.500010 0.580240 0.622850 -0.623516
O8    O     O_R   0.500010 0.419760 0.622850 -0.610973
Zn1   Zn    Zn3+2 0.500020 0.607200 0.499990 0.938474
Zn2   Zn    Zn3+2 0.500020 0.392800 0.499990 0.946715
C47   C     C_R   0.309311 0.898230 0.652916 0.128790
C48   C     C_R   0.321601 0.893067 0.741265 -0.130324
C49   C     C_R   0.260471 0.843521 0.791387 -0.142366
C50   C     C_R   0.186881 0.798982 0.753623 -0.105352
C51   C     C_R   0.174233 0.804008 0.665681 -0.134078
C52   C     C_R   0.235182 0.853516 0.615301 -0.188415
H23   H     H_    0.378533 0.927153 0.771065 0.121034
H24   H     H_    0.270202 0.839543 0.859484 0.123065
H25   H     H_    0.139655 0.760583 0.792499 0.121893
H26   H     H_    0.117184 0.769532 0.636677 0.139345
H27   H     H_    0.224897 0.856913 0.547196 0.120001
C53   C     C_R   0.310849 0.104246 0.654870 0.124002
C54   C     C_R   0.220242 0.107528 0.632477 -0.143972
C55   C     C_R   0.159635 0.157224 0.683743 -0.145501
C56   C     C_R   0.189179 0.204319 0.757171 -0.100462
C57   C     C_R   0.279323 0.201306 0.779792 -0.137481
C58   C     C_R   0.340041 0.151154 0.729029 -0.176385
H28   H     H_    0.196760 0.071697 0.575477 0.122262
H29   H     H_    0.089759 0.159320 0.666543 0.125484
H30   H     H_    0.142204 0.243028 0.796591 0.122753
H31   H     H_    0.302137 0.237756 0.836687 0.124744
H32   H     H_    0.409721 0.149049 0.747161 0.129681
C59   C     C_R   0.694228 0.101533 0.350997 0.127402
C60   C     C_R   0.767381 0.144980 0.391431 -0.189055
C61   C     C_R   0.831489 0.192813 0.343419 -0.131383
C62   C     C_R   0.822977 0.197514 0.255058 -0.105237
C63   C     C_R   0.750176 0.154590 0.214466 -0.144573
C64   C     C_R   0.685891 0.106648 0.262225 -0.126418
H33   H     H_    0.774715 0.141483 0.459873 0.120506
H34   H     H_    0.887973 0.225979 0.374536 0.139265
H35   H     H_    0.872985 0.234245 0.218159 0.126132
H36   H     H_    0.743639 0.158286 0.146014 0.121081
H37   H     H_    0.629812 0.073434 0.230242 0.121143
C65   C     C_R   0.690394 0.895582 0.346632 0.125648
C66   C     C_R   0.661963 0.849942 0.271589 -0.180776
C67   C     C_R   0.722945 0.799430 0.221400 -0.136642
C68   C     C_R   0.812596 0.794749 0.245522 -0.097277
C69   C     C_R   0.841384 0.840531 0.319878 -0.145814
C70   C     C_R   0.780500 0.890603 0.370554 -0.144114
H38   H     H_    0.592656 0.853284 0.252339 0.127593
H39   H     H_    0.700718 0.763964 0.163806 0.130841
H40   H     H_    0.859772 0.755744 0.206558 0.124855
H41   H     H_    0.910885 0.837120 0.338249 0.126367
H42   H     H_    0.803369 0.925375 0.428293 0.122162
O9    O     O_3   0.673877 0.566685 0.943098 -0.697515
C71   C     C_3   0.683334 0.609258 0.861649 0.086101
H43   H     H_    0.717538 0.678513 0.872956 0.156827
H44   H     H_    0.620027 0.630881 0.831980 0.128531
C72   C     C_3   0.742253 0.552363 0.799767 -0.342958
H45   H     H_    0.809497 0.543399 0.827898 0.212625
H46   H     H_    0.713151 0.481394 0.785554 0.262288
C73   C     C_3   0.752810 0.604899 0.715665 -0.967913
H47   H     H_    0.781844 0.676913 0.726411 0.261376
H48   H     H_    0.687245 0.612178 0.683362 0.278595
H49   H     H_    0.798398 0.563724 0.673748 0.275969
O10   O     O_3   0.649312 0.405581 0.907071 -0.696027
C74   C     C_3   0.715053 0.348184 0.947616 0.050257
H50   H     H_    0.737456 0.295363 0.899171 0.166320
H51   H     H_    0.685827 0.302909 0.997862 0.126543
C75   C     C_3   0.799195 0.401375 0.977865 -0.329765
H52   H     H_    0.834813 0.430719 0.922371 0.217482
H53   H     H_    0.782877 0.460579 0.022049 0.242802
C76   C     C_3   0.862497 0.333673 0.023858 -1.004270
H54   H     H_    0.829529 0.304164 0.081039 0.262733
H55   H     H_    0.923174 0.373057 0.044261 0.269099
H56   H     H_    0.882744 0.274067 0.981117 0.265573

loop_
_geom_bond_atom_site_label_1
_geom_bond_atom_site_label_2
_ccdc_geom_bond_type
C76   H56   S    
C61   H34   S    
C16   C21   A    
C12   O4    A    
C27   C29   A    
C34   C37   A    
C41   C42   S    
C35   C36   A    
C75   C76   S    
C23   O6    A    
C26   H9    S    
O1    Zn1   S    
C65   C66   A    
C35   C47   S    
C43   H17   S    
C7    C8    A    
C4    C46   S    
C28   H11   S    
C2    C46   S    
C74   H51   S    
C1    O1    A    
C71   H43   S    
C18   C24   A    
C39   O7    A    
C75   H53   S    
C52   H27   S    
C48   H23   S    
C6    C12   S    
C60   H33   S    
C38   C65   S    
O8    Zn2   S    
C62   C63   A    
C15   C16   A    
C8    C23   S    
C67   C68   A    
C18   C19   A    
C42   C46   S    
C69   C70   A    
C21   H4    S    
C19   H6    S    
C26   C34   A    
C40   C43   S    
C49   C50   A    
C8    C9    A    
C63   C64   A    
C31   C33   A    
C59   C64   A    
C9    C10   A    
C42   H16   S    
C58   H32   S    
C27   N1    A    
C72   C73   S    
C36   C53   S    
C24   H5    S    
C49   H24   S    
C1    C22   S    
O4    Zn2   S    
C12   O3    A    
C63   H36   S    
C3    H19   S    
C60   C61   A    
C53   C58   A    
C47   C48   A    
C62   H35   S    
O7    Zn1   S    
C75   H52   S    
C40   C45   S    
C74   C75   S    
C1    O2    A    
C40   H12   S    
C67   H39   S    
N2    Zn2   S    
C39   O8    A    
C57   H31   S    
C25   H8    S    
C41   H13   S    
C10   C14   A    
C37   C59   S    
C56   H30   S    
C16   C17   A    
C4    C44   T    
C71   C72   S    
C70   H42   S    
C5    C45   S    
C3    C45   S    
C2    O10   S    
C40   H15   S    
O2    Zn2   S    
C32   C34   A    
C64   H37   S    
C68   H40   S    
C9    H21   S    
C37   C38   A    
C31   C32   A    
C57   C58   A    
C17   C18   A    
O3    Zn1   S    
C47   C52   A    
C54   C55   A    
C42   H2    S    
C50   C51   A    
C51   C52   A    
C66   H38   S    
O9    C71   S    
C26   N2    A    
C22   C24   A    
N1    Zn1   S    
C25   N1    A    
C50   H25   S    
C59   C60   A    
C72   H45   S    
C61   C62   A    
C76   H55   S    
C11   C17   A    
C71   H44   S    
C13   C20   A    
C27   H10   S    
C28   N2    A    
O6    Zn2   S    
C41   H14   S    
C23   O5    A    
C20   H7    S    
C51   H26   S    
C39   C44   S    
C74   H50   S    
C29   C35   A    
C33   C38   A    
C30   C36   A    
C19   C20   A    
C28   C30   A    
C2    C3    S    
C29   C31   A    
C41   C45   S    
C68   C69   A    
C7    H20   S    
C30   C32   A    
C11   C13   A    
C66   C67   A    
C5    C6    T    
C65   C70   A    
C43   H1    S    
C55   H29   S    
C73   H49   S    
C53   C54   A    
C73   H47   S    
C69   H41   S    
C15   H3    S    
C3    H18   S    
C55   C56   A    
C43   C46   S    
C10   C11   A    
C2    O9    S    
C7    C13   A    
C73   H48   S    
C48   C49   A    
C56   C57   A    
C14   H22   S    
C14   C15   A    
O10   C74   S    
C21   C22   A    
O5    Zn1   S    
C54   H28   S    
C76   H54   S    
C25   C33   A    
C72   H46   S    
