data_mof_unit_30179.cif
_audit_creation_date              2012-12-10T18:57:12-0500
_audit_creation_method            fapswitch 2.2
_symmetry_space_group_name_H-M    P1
_symmetry_Int_Tables_number       1
_space_group_crystal_system       triclinic
_cell_length_a                    8.714863
_cell_length_b                    10.831447
_cell_length_c                    9.56123
_cell_angle_alpha                 90.519367
_cell_angle_beta                  98.230123
_cell_angle_gamma                 90.422987
_cell_volume                      893.16216428

loop_
_atom_site_label
_atom_site_type_symbol
_atom_type_description
_atom_site_fract_x
_atom_site_fract_y
_atom_site_fract_z
_atom_type_partial_charge
C1    C     C_R   0.495928 0.262439 0.498849 0.784546
C2    C     C_R   0.631355 0.530326 0.944086 0.244006
C3    C     C_3   0.721983 0.647989 0.950129 0.243667
C4    C     C_R   0.203793 0.499194 0.463603 0.885831
C5    C     C_3   0.716220 0.652250 0.108783 -0.535558
C6    C     C_R   0.497331 0.737777 0.499947 0.785686
C7    C     C_R   0.796191 0.499486 0.536374 0.891185
C8    C     C_2   0.037639 0.498023 0.443760 -0.377144
C9    C     C_2   0.962319 0.498321 0.556137 -0.373791
C10   C     C_R   0.456349 0.065163 0.616190 0.124537
C11   C     C_R   0.478513 0.129457 0.494792 -0.098119
C12   C     C_R   0.479734 0.934552 0.368677 -0.220191
C13   C     C_R   0.478925 0.063178 0.367844 -0.227148
C14   C     C_3   0.949067 0.740288 0.905077 0.069220
C15   C     C_3   0.122307 0.718960 0.911174 -0.765148
C16   C     C_3   0.227092 0.276206 0.070682 0.061586
C17   C     C_3   0.126476 0.215369 0.168478 -0.759041
C18   C     C_R   0.481586 0.871020 0.496730 -0.092433
C19   C     C_R   0.458876 0.937997 0.617480 0.134214
C20   C     C_3   0.545840 0.936369 0.763855 -0.499632
C21   C     C_3   0.540523 0.076197 0.763051 -0.456950
C22   C     C_R   0.629989 0.532742 0.090845 0.115753
C23   C     C_R   0.379747 0.448518 0.057898 0.516186
C24   C     C_R   0.378634 0.452592 0.908386 -0.216606
Cu1   Cu    Cu3+1 0.499990 0.499980 0.640670 0.944132
Cu2   Cu    Cu3+1 0.500010 0.500020 0.359330 0.974033
H1    H     H_    0.977211 0.497074 0.336162 0.190223
H2    H     H_    0.665464 0.901053 0.766461 0.181371
H3    H     H_    0.466189 0.115150 0.837602 0.185187
H4    H     H_    0.656766 0.120446 0.767766 0.202045
H5    H     H_    0.932603 0.806506 0.991630 0.133264
H6    H     H_    0.904523 0.781757 0.801328 0.134862
H7    H     H_    0.144507 0.656977 0.823399 0.250724
H8    H     H_    0.182846 0.808364 0.901281 0.183600
H9    H     H_    0.169532 0.676551 0.013532 0.257618
H10   H     H_    0.337292 0.223516 0.076709 0.113429
H11   H     H_    0.164017 0.270442 0.961183 0.131029
H12   H     H_    0.278664 0.418880 0.838244 0.161304
H13   H     H_    0.105464 0.116954 0.137509 0.188915
H14   H     H_    0.185365 0.220238 0.279369 0.245585
H15   H     H_    0.013363 0.263219 0.161525 0.244168
H16   H     H_    0.656716 0.721551 0.888230 0.083580
H17   H     H_    0.831467 0.643145 0.174387 0.217803
H18   H     H_    0.644240 0.728902 0.140857 0.166461
H19   H     H_    0.022748 0.497723 0.663684 0.189837
H20   H     H_    0.487644 0.109954 0.269726 0.163323
H21   H     H_    0.487529 0.885814 0.270591 0.159205
H22   H     H_    0.476765 0.894637 0.840761 0.190902
N1    N     N_R   0.500980 0.500930 0.148050 -0.222178
N2    N     N_R   0.500990 0.500890 0.852140 -0.237822
O1    O     O_R   0.500000 0.319640 0.618810 -0.582276
O2    O     O_3   0.253498 0.400894 0.112600 -0.541492
O3    O     O_R   0.500020 0.319680 0.381230 -0.575470
O4    O     O_R   0.274830 0.499980 0.591380 -0.596813
O5    O     O_R   0.274850 0.500020 0.353800 -0.518457
O6    O     O_R   0.499980 0.680320 0.618770 -0.586179
O7    O     O_R   0.500000 0.680360 0.381190 -0.588950
O8    O     O_R   0.725150 0.499980 0.646200 -0.554921
O9    O     O_R   0.725170 0.500020 0.408620 -0.579728
O10   O     O_3   0.873313 0.626304 0.919046 -0.542971

loop_
_geom_bond_atom_site_label_1
_geom_bond_atom_site_label_2
_ccdc_geom_bond_type
C2    C22   A    
C24   H12   S    
C23   C24   A    
Cu1   O1    S    
C3    H16   S    
C9    H19   S    
C20   H2    S    
C21   H4    S    
C10   C19   A    
C15   H8    S    
C19   C20   S    
C1    C11   S    
Cu1   O6    S    
C14   H5    S    
C4    C8    S    
Cu2   O5    S    
C20   C21   S    
C2    C3    S    
C5    H17   S    
C10   C21   S    
C7    O8    A    
Cu1   O4    S    
C6    O6    A    
C1    O1    A    
C6    O7    A    
C23   O2    S    
C20   H22   S    
C22   N1    A    
C7    O9    A    
C5    H18   S    
C12   H21   S    
C4    O5    A    
C24   N2    A    
C13   H20   S    
C6    C18   S    
Cu2   O7    S    
C17   H15   S    
C23   N1    A    
C10   C11   A    
C12   C18   A    
Cu2   O3    S    
C11   C13   A    
C14   O10   S    
C12   C13   A    
C18   C19   A    
Cu1   O8    S    
Cu2   N1    S    
C15   H9    S    
C7    C9    S    
C8    H1    S    
C17   H13   S    
C14   C15   S    
C16   C17   S    
Cu2   O9    S    
C1    O3    A    
C2    N2    A    
C4    O4    A    
Cu1   Cu2   S    
Cu1   N2    S    
C3    O10   S    
C21   H3    S    
C15   H7    S    
C16   H10   S    
C5    C22   S    
C16   O2    S    
C16   H11   S    
C14   H6    S    
C8    C9    D    
C3    C5    S    
C17   H14   S    
