data_mof_unit_13969.cif
_audit_creation_date              2012-12-10T16:52:37-0500
_audit_creation_method            fapswitch 2.2
_symmetry_space_group_name_H-M    P1
_symmetry_Int_Tables_number       1
_space_group_crystal_system       triclinic
_cell_length_a                    7.83983
_cell_length_b                    8.569202
_cell_length_c                    13.794639
_cell_angle_alpha                 93.316436
_cell_angle_beta                  93.176811
_cell_angle_gamma                 94.245942
_cell_volume                      920.987222013

loop_
_atom_site_label
_atom_site_type_symbol
_atom_type_description
_atom_site_fract_x
_atom_site_fract_y
_atom_site_fract_z
_atom_type_partial_charge
C1    C     C_R   0.045202 0.794685 0.497621 0.965851
C2    C     C_R   0.936891 0.489116 0.317992 0.867833
C3    C     C_R   0.100644 0.547377 0.785347 -0.069113
C4    C     C_R   0.907513 0.482052 0.212978 -0.058727
C5    C     C_R   0.079836 0.714773 0.930314 -0.191227
C6    C     C_R   0.966086 0.379284 0.052810 -0.189851
C7    C     C_R   0.013895 0.657855 0.838096 -0.190026
C8    C     C_R   0.014207 0.404461 0.151409 -0.194843
C9    C     C_R   0.247730 0.490588 0.825534 -0.278091
C10   C     C_R   0.762010 0.545491 0.175176 -0.275372
C11   C     C_R   0.326905 0.559183 0.912080 0.091627
C12   C     C_R   0.954817 0.205322 0.502451 0.964570
C13   C     C_R   0.711748 0.523430 0.076557 0.087213
C14   C     C_R   0.237509 0.668170 0.967014 0.174186
C15   C     C_R   0.812190 0.432825 0.015801 0.179672
C16   C     C_R   0.492812 0.522841 0.944495 0.062493
C17   C     C_R   0.557157 0.578463 0.038937 0.062518
C18   C     C_R   0.464989 0.686985 0.092501 -0.230473
C19   C     C_R   0.598353 0.436722 0.884445 -0.236647
C20   C     C_R   0.308369 0.731645 0.056510 -0.225587
C21   C     C_R   0.755942 0.393768 0.919639 -0.222251
C22   C     C_2   0.068665 0.958457 0.496262 -0.385361
C23   C     C_2   0.931379 0.041556 0.503909 -0.387917
C24   C     C_R   0.063772 0.513877 0.681887 0.866345
H1    H     H_    0.129272 0.356577 0.180131 0.157879
H2    H     H_    0.045698 0.313423 0.006269 0.140743
H3    H     H_    0.197953 0.010048 0.488962 0.179009
H4    H     H_    0.802094 0.989964 0.511219 0.179178
H5    H     H_    0.487103 0.374433 0.427664 0.188737
H6    H     H_    0.512901 0.625524 0.572370 0.189504
H7    H     H_    0.899283 0.703462 0.806966 0.159619
H8    H     H_    0.513914 0.744709 0.160984 0.148092
H9    H     H_    0.565192 0.404647 0.808675 0.157105
H10   H     H_    0.242560 0.816330 0.098955 0.146594
H11   H     H_    0.832524 0.326863 0.871811 0.149921
H12   H     H_    0.683272 0.602743 0.225675 0.159088
H13   H     H_    0.301802 0.396671 0.785086 0.149574
H14   H     H_    0.011483 0.799467 0.971119 0.138393
N1    N     N_2   0.440860 0.456490 0.474790 -0.173915
N2    N     N_2   0.559140 0.543510 0.525210 -0.174643
O1    O     O_R   0.891570 0.738930 0.506190 -0.611942
O2    O     O_R   0.108430 0.261070 0.493810 -0.611465
O3    O     O_R   0.174650 0.711050 0.490030 -0.624257
O4    O     O_R   0.825350 0.288950 0.509970 -0.625063
O5    O     O_R   0.909850 0.521900 0.644940 -0.618964
O6    O     O_R   0.090150 0.478100 0.355060 -0.615927
O7    O     O_R   0.192930 0.494020 0.628780 -0.616993
O8    O     O_R   0.807070 0.505980 0.371220 -0.622140
Zn1   Zn    Zn3+2 0.810990 0.518620 0.510790 0.930692
Zn2   Zn    Zn3+2 0.189010 0.481380 0.489210 0.934357

loop_
_geom_bond_atom_site_label_1
_geom_bond_atom_site_label_2
_ccdc_geom_bond_type
O4    Zn1   S    
C2    C4    S    
O3    Zn2   S    
C3    C9    A    
O5    Zn1   S    
C11   C16   A    
O6    Zn2   S    
C18   C20   A    
C13   C17   A    
C4    C8    A    
C20   H10   S    
H5    N1    S    
C9    H13   S    
C17   C18   A    
C5    C14   A    
H6    N2    S    
C1    C22   S    
C12   O4    A    
C23   H4    S    
C2    O6    A    
C8    H1    S    
C9    C11   A    
C12   C23   S    
C3    C24   S    
C6    H2    S    
O2    Zn2   S    
C16   C19   A    
C21   H11   S    
C24   O5    A    
C6    C8    A    
O1    Zn1   S    
O8    Zn1   S    
C19   C21   A    
C10   H12   S    
O7    Zn2   S    
C3    C7    A    
C22   H3    S    
C13   C15   A    
C11   C14   A    
C7    H7    S    
C4    C10   A    
N2    Zn1   S    
C14   C20   A    
C15   C21   A    
N1    Zn2   S    
C18   H8    S    
C19   H9    S    
C1    O1    A    
N1    N2    D    
C5    C7    A    
C22   C23   D    
C12   O2    A    
C2    O8    A    
C6    C15   A    
C5    H14   S    
C24   O7    A    
C1    O3    A    
C16   C17   A    
C10   C13   A    
