data_mof_unit_58040.cif
_audit_creation_date              2013-03-05T16:12:14-0500
_audit_creation_method            fapswitch 2.2
_symmetry_space_group_name_H-M    P1
_symmetry_Int_Tables_number       1
_space_group_crystal_system       triclinic
_cell_length_a                    10.754548
_cell_length_b                    9.641456
_cell_length_c                    27.749813
_cell_angle_alpha                 91.279733
_cell_angle_beta                  90.67203
_cell_angle_gamma                 91.420519
_cell_volume                      2875.54534473

loop_
_atom_site_label
_atom_site_type_symbol
_atom_site_description
_atom_site_fract_x
_atom_site_fract_y
_atom_site_fract_z
_atom_type_partial_charge
O1    O     O_R   0.317570 0.620260 0.500030 -0.577381
O2    O     O_R   0.317570 0.379740 0.500030 -0.591525
C1    C     C_R   0.260546 0.498794 0.500770 0.782709
O3    O     O_R   0.499900 0.620250 0.430280 -0.584054
O4    O     O_R   0.499900 0.379750 0.430280 -0.584410
C2    C     C_R   0.500665 0.499033 0.407333 0.809266
Cu1   Cu    Cu3+1 0.499860 0.642410 0.500020 0.974505
Cu2   Cu    Cu3+1 0.499860 0.357590 0.500020 0.942314
O5    O     O_R   0.682190 0.620260 0.500010 -0.569346
O6    O     O_R   0.682190 0.379740 0.500010 -0.601934
O7    O     O_R   0.499860 0.620280 0.569750 -0.549476
O8    O     O_R   0.499860 0.379720 0.569750 -0.597322
C3    C     C_R   0.739248 0.501022 0.503665 0.784500
C4    C     C_R   0.500429 0.502114 0.592384 0.858523
C5    C     C_R   0.383126 0.562134 0.175732 0.614462
O9    O     O_2   0.284565 0.607752 0.200615 -0.521129
N1    N     N_R   0.489982 0.528982 0.199742 -0.443177
C6    C     C_R   0.590614 0.480354 0.175364 0.581137
C7    C     C_R   0.500343 0.396215 0.272870 -0.169773
C8    C     C_R   0.508621 0.383043 0.322705 -0.044963
C9    C     C_R   0.488459 0.632406 0.331409 -0.283361
C10   C     C_R   0.488156 0.646253 0.281151 0.028419
C11   C     C_R   0.491652 0.525446 0.251600 0.319391
C12   C     C_R   0.474984 0.489009 0.100047 -0.044897
C13   C     C_R   0.374913 0.546290 0.125298 -0.031691
C14   C     C_R   0.269172 0.585770 0.099719 -0.125120
C15   C     C_R   0.583828 0.455993 0.125371 -0.021943
C16   C     C_R   0.499081 0.501968 0.353380 -0.085723
H1    H     H_    0.483633 0.726085 0.353466 0.157543
H2    H     H_    0.193062 0.635521 0.117921 0.192708
C17   C     C_R   0.489126 0.506727 0.645542 -0.051185
C18   C     C_R   0.344577 0.465130 0.974059 0.035027
C19   C     C_R   0.569527 0.421736 0.973326 0.071474
C20   C     C_R   0.456001 0.443839 0.948351 0.040686
C21   C     C_R   0.229769 0.461630 0.947562 -0.013989
C22   C     C_R   0.231072 0.471152 0.897278 -0.213550
C23   C     C_R   0.342839 0.468056 0.872003 -0.016826
C24   C     C_R   0.454767 0.448225 0.897334 -0.044931
C25   C     C_R   0.566072 0.435388 0.871634 -0.022207
C26   C     C_R   0.563167 0.441260 0.821253 0.565904
N2    N     N_R   0.454869 0.469785 0.797341 -0.465350
C27   C     C_R   0.345225 0.481242 0.821604 0.560077
C28   C     C_R   0.391762 0.401087 0.714812 -0.062688
C29   C     C_R   0.403694 0.412298 0.665291 -0.183292
C30   C     C_R   0.554146 0.604628 0.676810 -0.053736
C31   C     C_R   0.533661 0.598422 0.727161 -0.054015
C32   C     C_R   0.458566 0.491190 0.746084 0.282731
O10   O     O_2   0.239385 0.507383 0.797233 -0.519254
C33   C     C_R   0.354617 0.495068 0.024459 0.068189
C34   C     C_R   0.466330 0.465092 0.049520 0.045090
C35   C     C_R   0.569901 0.412916 0.024342 0.038847
C36   C     C_R   0.260545 0.563680 0.050038 -0.116337
H3    H     H_    0.345378 0.346106 0.642002 0.190504
H4    H     H_    0.330753 0.321171 0.728952 0.177263
H5    H     H_    0.143470 0.474418 0.877623 0.185041
H6    H     H_    0.180692 0.604986 0.031876 0.150036
O11   O     O_2   0.696243 0.452823 0.199726 -0.515491
C37   C     C_R   0.680122 0.390567 0.101059 -0.210300
H7    H     H_    0.505225 0.304478 0.249617 0.157850
H8    H     H_    0.759582 0.354266 0.121164 0.187504
C38   C     C_R   0.680526 0.420165 0.946733 -0.119295
C39   C     C_R   0.678516 0.422854 0.896741 -0.124679
O12   O     O_2   0.668253 0.420088 0.796264 -0.512494
C40   C     C_R   0.671096 0.360574 0.051639 -0.039255
H9    H     H_    0.770842 0.422080 0.964182 0.143211
H10   H     H_    0.766141 0.419304 0.877934 0.187252
C41   C     C_3   0.077956 0.638067 0.524246 -0.399208
C42   C     C_3   0.072298 0.377818 0.534406 -0.404084
H11   H     H_    0.096371 0.722791 0.498455 0.201394
H12   H     H_    0.113793 0.277145 0.524471 0.194151
H13   H     H_    0.132732 0.666444 0.557472 0.211116
H14   H     H_    0.099547 0.400656 0.572688 0.173015
C43   C     C_3   0.937186 0.629698 0.534133 -0.203585
C44   C     C_3   0.929279 0.362988 0.528251 -0.165220
H15   H     H_    0.895290 0.726888 0.521963 0.159989
H16   H     H_    0.909157 0.274811 0.502565 0.160066
H17   H     H_    0.109447 0.556506 0.426511 0.195694
H18   H     H_    0.085130 0.375394 0.436282 0.208682
H19   H     H_    0.903551 0.601864 0.436292 0.214880
H20   H     H_    0.876965 0.419061 0.430558 0.194771
C45   C     C_3   0.066550 0.480503 0.451232 -0.381208
C46   C     C_3   0.122632 0.497690 0.502646 0.106856
C47   C     C_3   0.878395 0.499844 0.505963 0.052720
C48   C     C_3   0.924932 0.501693 0.452931 -0.409706
C49   C     C_3   0.629164 0.088255 0.500022 -0.123432
C50   C     C_3   0.628841 0.923296 0.506500 -0.126394
H21   H     H_    0.686476 0.135581 0.529511 0.107825
H22   H     H_    0.665652 0.901194 0.543059 0.134318
C51   C     C_3   0.437576 0.084270 0.544661 -0.097125
C52   C     C_3   0.414518 0.921355 0.538215 -0.130944
C53   C     C_3   0.433861 0.078505 0.457646 -0.112110
C54   C     C_3   0.451946 0.913457 0.454016 -0.102515
N3    N     N_3   0.500250 0.143650 0.501060 -0.207000
N4    N     N_3   0.500250 0.856350 0.501060 -0.198896
H23   H     H_    0.473142 0.123318 0.425229 0.163887
H24   H     H_    0.520168 0.895145 0.424926 0.128103
H25   H     H_    0.344845 0.132335 0.547898 0.162624
H26   H     H_    0.316665 0.908127 0.524697 0.147622
C55   C     C_2   0.645610 0.711122 0.659418 0.345825
H27   H     H_    0.683632 0.791204 0.683762 0.109651
O13   O     O_2   0.681589 0.712007 0.618048 -0.580019
C56   C     C_1   0.589291 0.701352 0.760294 0.263644
N5    N     N_1   0.633510 0.783372 0.786800 -0.233825
C57   C     C_2   0.759272 0.257505 0.032523 0.369612
H28   H     H_    0.850774 0.249395 0.049019 0.113949
O14   O     O_2   0.728291 0.175548 0.000133 -0.502713
C58   C     C_1   0.921789 0.624542 0.586872 0.341321
N6    N     N_1   0.915043 0.619528 0.628399 -0.201039
C59   C     C_1   0.870850 0.323972 0.574107 0.222239
N7    N     N_1   0.825133 0.293287 0.610011 -0.250962
C60   C     C_2   0.488121 0.788416 0.261671 0.447354
H29   H     H_    0.469548 0.876173 0.285485 0.069426
O15   O     O_2   0.511954 0.810462 0.219595 -0.514605
C61   C     C_1   0.696706 0.135876 0.456403 0.305098
N8    N     N_1   0.750669 0.172111 0.422921 -0.272317
C62   C     C_1   0.717758 0.864970 0.471406 0.297590
N9    N     N_1   0.786638 0.824267 0.442977 -0.301760
C63   C     C_2   0.503691 0.120045 0.592715 0.354856
H30   H     H_    0.602966 0.135983 0.596295 0.106693
O16   O     O_2   0.443924 0.122805 0.629824 -0.567230
C64   C     C_2   0.408986 0.853326 0.586332 0.523470
H31   H     H_    0.490421 0.854858 0.609362 0.102638
O17   O     O_2   0.312010 0.801936 0.600994 -0.571457
C65   C     C_1   0.301546 0.116542 0.454504 0.264309
N10   N     N_1   0.197470 0.142572 0.451149 -0.314636
C66   C     C_1   0.339080 0.838859 0.435110 0.300239
N11   N     N_1   0.250745 0.782827 0.419409 -0.303982
C67   C     C_2   0.107244 0.428550 0.969151 0.344633
H32   H     H_    0.022461 0.462198 0.951828 0.061526
O18   O     O_2   0.099176 0.356694 0.004722 -0.530099
C68   C     C_1   0.536505 0.246000 0.338360 0.290589
N12   N     N_1   0.560748 0.133538 0.347760 -0.312374

loop_
_geom_bond_atom_site_label_1
_geom_bond_atom_site_label_2
_geom_bond_distance
_ccdc_geom_bond_type
C66   N11   1.156944 T    
N2    C27   1.370307 A    
C60   H29   1.085813 S    
C12   C15   1.405210 A    
C4    C17   1.481306 S    
H20   C48   1.111894 S    
C67   H32   1.085849 S    
C33   C34   1.420255 A    
C44   C59   1.477846 S    
C57   O14   1.221267 D    
C61   N8    1.157232 T    
Cu1   Cu2   2.746079 S    
C60   O15   1.220484 D    
C49   C50   1.604482 S    
Cu1   O7    1.951453 S    
C31   C56   1.450877 S    
N1    C11   1.440127 S    
C26   O12   1.350289 S    
C44   H16   1.112591 S    
Cu2   N3    2.063647 S    
O4    C2    1.326853 A    
C49   C61   1.494142 S    
H19   C48   1.107822 S    
O7    C4    1.313297 A    
C50   H22   1.111641 S    
C5    C13   1.405960 A    
C42   C44   1.548296 S    
C5    O9    1.349271 S    
C54   H24   1.111348 S    
C62   N9    1.157331 T    
C50   C62   1.484287 S    
C23   C27   1.407635 A    
C25   C39   1.397732 A    
O5    C3    1.321817 A    
C63   H30   1.077994 S    
C50   N4    1.516054 S    
C49   N3    1.498395 S    
C29   H3    1.081882 S    
C2    C16   1.498007 S    
C21   C22   1.400655 A    
C58   N6    1.157527 T    
C41   C43   1.542212 S    
C44   C47   1.577133 S    
C42   H14   1.114441 S    
O1    Cu1   1.966779 S    
C9    C10   1.403953 A    
C37   C40   1.396976 A    
C43   H15   1.107533 S    
C38   C39   1.388001 A    
O3    Cu1   1.942288 S    
C57   H28   1.085759 S    
C52   N4    1.525791 S    
C37   H8    1.084615 S    
C49   H21   1.102405 S    
C12   C34   1.417461 A    
O2    Cu2   1.977304 S    
C17   C29   1.402149 A    
C39   H10   1.083478 S    
C18   C21   1.428917 A    
C12   C13   1.408589 A    
O3    C2    1.318629 A    
C30   C55   1.495969 S    
C53   C54   1.608990 S    
C8    C16   1.419182 A    
C7    H7    1.085838 S    
C13   C14   1.398761 A    
C30   C31   1.419395 A    
C9    H1    1.082357 S    
O6    C3    1.308378 A    
C45   C46   1.546306 S    
C51   H25   1.113796 S    
O1    C1    1.309111 A    
C18   C20   1.418717 A    
C7    C11   1.395321 A    
C28   C29   1.388053 A    
C23   C24   1.406124 A    
C14   C36   1.391967 A    
C53   N3    1.509786 S    
C28   H4    1.082872 S    
C47   C48   1.560287 S    
H17   C45   1.110647 S    
Cu2   O8    1.941980 S    
C33   C36   1.412098 A    
C1    C46   1.484504 S    
C54   N4    1.519079 S    
N1    C6    1.369987 A    
N2    C32   1.442676 S    
C34   C35   1.418526 A    
C27   O10   1.349185 S    
C64   H31   1.077708 S    
C6    O11   1.350155 S    
Cu2   O6    1.967206 S    
C26   N2    1.370545 A    
C55   O13   1.215889 D    
C9    C16   1.416365 A    
O8    C4    1.324208 A    
C14   H2    1.083295 S    
C53   C65   1.480337 S    
C52   C64   1.501895 S    
C8    C68   1.437603 S    
C68   N12   1.156182 T    
C25   C26   1.400481 A    
C45   C48   1.542821 S    
Cu1   O5    1.977730 S    
Cu1   N4    2.062150 S    
C31   C32   1.410559 A    
C22   C23   1.399372 A    
C20   C24   1.417220 A    
C40   C57   1.484299 S    
C35   C40   1.427521 A    
C52   H26   1.116418 S    
C15   C37   1.398321 A    
C54   C66   1.480147 S    
O4    Cu2   1.951771 S    
C5    N1    1.369841 A    
C67   O18   1.221238 D    
C19   C35   1.420103 A    
C3    C47   1.497408 S    
C55   H27   1.083649 S    
C6    C15   1.402596 A    
C42   C46   1.559211 S    
C7    C8    1.393563 A    
O2    C1    1.314628 A    
C22   H5    1.084549 S    
C59   N7    1.157318 T    
H18   C45   1.110072 S    
C24   C25   1.407211 A    
C19   C20   1.419860 A    
C41   H13   1.113569 S    
C51   N3    1.508960 S    
C56   N5    1.157460 T    
C63   O16   1.220427 D    
C18   C33   1.424045 A    
C64   O17   1.221514 D    
C43   C58   1.476545 S    
C53   H23   1.091583 S    
C38   H9    1.079777 S    
C51   C63   1.532230 S    
C41   C46   1.557136 S    
C19   C38   1.410989 A    
C10   C60   1.484598 S    
C17   C30   1.431523 A    
C21   C67   1.484314 S    
C42   H12   1.108922 S    
C10   C11   1.410958 A    
C41   H11   1.113604 S    
C51   C52   1.589909 S    
C28   C32   1.394509 A    
C43   C47   1.575998 S    
C36   H6    1.079766 S    
C65   N10   1.156282 T    
