data_mof_unit_28420.cif
_audit_creation_date              2012-12-10T18:15:21-0500
_audit_creation_method            fapswitch 2.2
_symmetry_space_group_name_H-M    P1
_symmetry_Int_Tables_number       1
_space_group_crystal_system       triclinic
_cell_length_a                    12.598182
_cell_length_b                    13.108788
_cell_length_c                    23.331214
_cell_angle_alpha                 90.833324
_cell_angle_beta                  103.150042
_cell_angle_gamma                 82.16393
_cell_volume                      3716.46301035

loop_
_atom_site_label
_atom_site_type_symbol
_atom_type_description
_atom_site_fract_x
_atom_site_fract_y
_atom_site_fract_z
_atom_type_partial_charge
C1    C     C_R   0.438612 0.691261 0.490333 0.843244
C2    C     C_R   0.595300 0.501529 0.893089 0.506998
C3    C     C_R   0.425142 0.479544 0.755971 -0.097484
C4    C     C_R   0.500901 0.501771 0.610608 0.863884
C5    C     C_R   0.424867 0.468118 0.696621 -0.223469
C6    C     C_R   0.501809 0.511344 0.673020 -0.038890
C7    C     C_R   0.577937 0.567161 0.709119 -0.210985
C8    C     C_R   0.576968 0.579779 0.768155 -0.092625
C9    C     C_R   0.501099 0.535497 0.791803 0.304279
C10   C     C_R   0.482700 0.618031 0.244065 -0.055747
C11   C     C_R   0.483330 0.605825 0.303079 -0.274656
C12   C     C_R   0.316080 0.642649 0.008296 -0.146573
C13   C     C_R   0.493408 0.507026 0.327395 -0.157765
C14   C     C_R   0.501994 0.419086 0.292439 0.416621
C15   C     C_R   0.500147 0.432450 0.233003 -0.166533
C16   C     C_R   0.561303 0.308473 0.506335 0.942213
C17   C     C_R   0.491745 0.531383 0.209081 0.221712
C18   C     C_R   0.711966 0.061171 0.465770 0.394750
C19   C     C_R   0.597468 0.199176 0.502148 -0.128906
C20   C     C_R   0.296529 0.840141 0.492025 -0.167960
C21   C     C_R   0.266309 0.945744 0.493930 -0.098557
C22   C     C_R   0.341182 0.012288 0.489280 -0.195011
C23   C     C_R   0.317677 0.643530 0.948794 -0.151570
C24   C     C_R   0.446528 0.973635 0.479730 0.118178
C25   C     C_R   0.468456 0.868634 0.467627 0.088894
C26   C     C_R   0.531143 0.035418 0.482316 0.034957
C27   C     C_R   0.628395 0.997363 0.462973 0.012061
C28   C     C_R   0.498978 0.499042 0.389711 0.958913
C29   C     C_R   0.638134 0.897440 0.440972 -0.144303
C30   C     C_R   0.559692 0.834012 0.443460 -0.218123
C31   C     C_R   0.522257 0.133319 0.505660 -0.279110
C32   C     C_R   0.694263 0.162742 0.484449 -0.191726
C33   C     C_R   0.399012 0.800937 0.480821 -0.122019
C34   C     C_R   0.410888 0.597293 0.929977 -0.014484
C35   C     C_R   0.088868 0.342308 0.420948 -0.256579
C36   C     C_R   0.799078 0.632597 0.567912 0.025452
C37   C     C_R   0.902983 0.663297 0.581099 -0.222469
C38   C     C_R   0.984535 0.613463 0.555181 -0.152066
C39   C     C_R   0.962224 0.532027 0.515768 0.020063
C40   C     C_R   0.591462 0.503663 0.132463 0.525848
C41   C     C_R   0.854697 0.503917 0.503693 0.217830
C42   C     C_R   0.041669 0.477771 0.487853 -0.011332
C43   C     C_R   0.011896 0.397043 0.448622 0.156587
C44   C     C_R   0.905737 0.371405 0.437462 -0.196790
C45   C     C_R   0.504198 0.552192 0.971636 -0.018240
C46   C     C_R   0.828491 0.424165 0.464635 -0.192796
C47   C     C_R   0.150326 0.499646 0.497331 -0.034259
C48   C     C_R   0.194743 0.367621 0.432348 0.021909
C49   C     C_R   0.406607 0.590055 0.109649 0.524682
C50   C     C_R   0.407944 0.596133 0.050029 -0.021506
C51   C     C_R   0.502957 0.552128 0.031738 -0.019621
C52   C     C_R   0.596040 0.506309 0.073285 -0.024155
C53   C     C_R   0.598027 0.505378 0.953248 -0.017094
C54   C     C_R   0.691140 0.461685 0.995129 -0.148074
C55   C     C_R   0.690308 0.462509 0.054675 -0.139835
C56   C     C_R   0.412835 0.593364 0.870298 0.505095
H1    H     H_    0.242350 0.677452 0.021365 0.196633
H2    H     H_    0.245142 0.679034 0.917578 0.194007
H3    H     H_    0.570883 0.757662 0.425674 0.172450
H4    H     H_    0.255664 0.325594 0.411761 0.181764
H5    H     H_    0.882162 0.310053 0.407570 0.218148
H6    H     H_    0.067480 0.280382 0.391080 0.181114
H7    H     H_    0.180791 0.558843 0.526456 0.125825
H8    H     H_    0.735184 0.671362 0.587697 0.137093
H9    H     H_    0.063579 0.640446 0.566756 0.139547
H10   H     H_    0.920215 0.725734 0.611179 0.153713
H11   H     H_    0.748627 0.400763 0.454210 0.231840
H12   H     H_    0.477255 0.673399 0.330081 0.156212
H13   H     H_    0.764449 0.425844 0.982022 0.197141
H14   H     H_    0.762960 0.427210 0.085890 0.200575
H15   H     H_    0.366917 0.444455 0.774293 0.150783
H16   H     H_    0.365498 0.424829 0.669426 0.163172
H17   H     H_    0.637099 0.602337 0.691581 0.158922
H18   H     H_    0.635463 0.623477 0.795688 0.151427
H19   H     H_    0.477005 0.694496 0.225686 0.168966
H20   H     H_    0.445763 0.206870 0.375449 0.380200
H21   H     H_    0.903892 0.922894 0.522525 0.339566
H22   H     H_    0.507981 0.366305 0.205191 0.192711
H23   H     H_    0.753265 0.214657 0.482651 0.194590
H24   H     H_    0.706927 0.866161 0.422718 0.229442
H25   H     H_    0.454557 0.161946 0.525310 0.164358
H26   H     H_    0.241003 0.789211 0.500820 0.169100
H27   H     H_    0.313582 0.093495 0.491871 0.141961
H28   H     H_    0.186464 0.976009 0.501618 0.188443
N1    N     N_R   0.496985 0.543125 0.149144 -0.348077
N2    N     N_R   0.503413 0.544563 0.853113 -0.356999
N3    N     N_R   0.222200 0.444670 0.469780 -0.109445
N4    N     N_R   0.776960 0.554790 0.529910 -0.131437
O1    O     O_R   0.366740 0.627150 0.485570 -0.613347
O2    O     O_R   0.410990 0.482290 0.406510 -0.568415
O3    O     O_R   0.589070 0.517660 0.425810 -0.639602
O4    O     O_2   0.680346 0.461489 0.173131 -0.530950
O5    O     O_2   0.523220 0.214215 0.275115 -0.259630
O6    O     O_2   0.634539 0.277443 0.365272 -0.335044
O7    O     O_3   0.425849 0.277622 0.358528 -0.572330
O8    O     O_2   0.812532 0.000010 0.379479 -0.213068
O9    O     O_2   0.914757 0.097744 0.458293 -0.321470
O10   O     O_3   0.897689 0.907779 0.480261 -0.557195
O11   O     O_2   0.315238 0.628720 0.127924 -0.540451
O12   O     O_2   0.325044 0.637606 0.829680 -0.559532
O13   O     O_2   0.682861 0.453419 0.874505 -0.553903
O14   O     O_R   0.544830 0.662520 0.504870 -0.624118
O15   O     O_R   0.410930 0.482340 0.574190 -0.624895
O16   O     O_R   0.589010 0.517710 0.593490 -0.618666
O17   O     O_R   0.455170 0.337480 0.495130 -0.608314
O18   O     O_R   0.633260 0.372850 0.514430 -0.639705
S1    S     S_3+6 0.524373 0.292878 0.322712 0.027785
S2    S     S_3+6 0.837097 0.018597 0.444576 0.026727
Zn1   Zn    Zn3+2 0.381090 0.476380 0.487110 0.976290
Zn2   Zn    Zn3+2 0.618910 0.523620 0.512890 0.943235

loop_
_geom_bond_atom_site_label_1
_geom_bond_atom_site_label_2
_ccdc_geom_bond_type
C23   H2    S    
C34   C56   A    
C20   H26   S    
C27   C29   A    
C19   C31   A    
C1    C33   S    
C7    C8    A    
C7    H17   S    
C53   C54   A    
C36   N4    A    
C54   H13   S    
C12   C23   A    
C26   C27   A    
C29   C30   A    
C17   N1    S    
O3    Zn2   S    
C21   C22   A    
C36   C37   A    
C24   C26   A    
C5    H16   S    
H20   O7    S    
C47   H7    S    
C38   C39   A    
C15   H22   S    
C45   C51   A    
C10   C17   A    
C4    O15   A    
O1    Zn1   S    
O10   S2    S    
O9    S2    D    
C8    C9    A    
C41   C46   A    
C21   H28   S    
C13   C28   S    
C35   H6    S    
C35   C43   A    
C52   C55   A    
C16   O18   A    
N4    Zn2   S    
O8    S2    D    
C45   C53   A    
C26   C31   A    
C13   C14   A    
C37   H10   S    
C35   C48   A    
C44   C46   A    
C48   H4    S    
C39   C42   A    
O6    S1    D    
C51   C52   A    
C49   N1    A    
C24   C25   A    
C4    C6    S    
C2    O13   S    
C40   C52   A    
C47   N3    A    
C40   N1    A    
C3    H15   S    
C43   C44   A    
C37   C38   A    
C3    C9    A    
C9    N2    S    
C49   O11   S    
C10   H19   S    
C56   N2    A    
C38   H9    S    
C23   C34   A    
C19   C32   A    
C30   H3    S    
C8    H18   S    
C50   C51   A    
C48   N3    A    
H21   O10   S    
C34   C45   A    
C40   O4    S    
O7    S1    S    
C16   O17   A    
C12   H1    S    
C14   S1    S    
C22   C24   A    
O14   Zn2   S    
C18   C32   A    
C42   C43   A    
C20   C33   A    
C11   H12   S    
O18   Zn2   S    
C25   C30   A    
C15   C17   A    
C41   N4    A    
O17   Zn1   S    
C54   C55   A    
C1    O1    A    
C18   C27   A    
C3    C5    A    
C2    C53   A    
C12   C50   A    
C6    C7    A    
N3    Zn1   S    
C44   H5    S    
C31   H25   S    
O15   Zn1   S    
C22   H27   S    
C46   H11   S    
O5    S1    D    
C32   H23   S    
O16   Zn2   S    
C11   C13   A    
C5    C6    A    
C29   H24   S    
C16   C19   S    
C4    O16   A    
C2    N2    A    
C28   O3    A    
C42   C47   A    
C18   S2    S    
C55   H14   S    
C10   C11   A    
C20   C21   A    
C39   C41   A    
C49   C50   A    
C56   O12   S    
C14   C15   A    
C28   O2    A    
O2    Zn1   S    
C36   H8    S    
C1    O14   A    
C25   C33   A    
