data_mof_unit_32061.cif
_audit_creation_date              2012-10-26T21:14:51-0400
_audit_creation_method            fapswitch 2.2
_symmetry_space_group_name_H-M    P1
_symmetry_Int_Tables_number       1
_space_group_crystal_system       triclinic
_cell_length_a                    15.080453
_cell_length_b                    10.943734
_cell_length_c                    13.802531
_cell_angle_alpha                 92.644412
_cell_angle_beta                  88.021102
_cell_angle_gamma                 87.974051
_cell_volume                      2272.58037381

loop_
_atom_site_label
_atom_site_type_symbol
_atom_type_description
_atom_site_fract_x
_atom_site_fract_y
_atom_site_fract_z
_atom_type_partial_charge
C1    C     C_R   0.505664 0.262142 0.497301 0.522384
C2    C     C_R   0.543310 0.901835 0.688969 0.049684
C3    C     C_R   0.590238 0.078657 0.248853 0.175692
C4    C     C_R   0.507698 0.965326 0.775107 0.154265
C5    C     C_R   0.589138 0.106002 0.150286 -0.068233
C6    C     C_R   0.538115 0.931595 0.866108 -0.099344
C7    C     C_R   0.511953 0.151643 0.110193 -0.141159
C8    C     C_R   0.600999 0.836133 0.872507 -0.142929
C9    C     C_R   0.499221 0.927828 0.416050 -0.167639
C10   C     C_R   0.528744 0.072582 0.580490 -0.150506
C11   C     C_R   0.506900 0.872389 0.505486 -0.027486
C12   C     C_R   0.501602 0.738142 0.502348 0.520135
C13   C     C_R   0.513547 0.127863 0.493060 -0.016053
C14   C     C_R   0.523269 0.946643 0.590408 -0.043482
C15   C     C_R   0.505323 0.053253 0.407698 -0.039384
C16   C     C_R   0.328775 0.499212 0.501736 0.536862
C17   C     C_R   0.671593 0.499685 0.498353 0.519511
C18   C     C_R   0.563794 0.433879 0.788372 0.010014
C19   C     C_R   0.429807 0.551608 0.210911 0.010674
C20   C     C_R   0.433531 0.564260 0.800277 0.290767
C21   C     C_R   0.569677 0.442799 0.200621 0.297038
C22   C     C_R   0.426458 0.549543 0.902550 0.020406
C23   C     C_R   0.052956 0.268325 0.510801 -0.114169
C24   C     C_R   0.569079 0.437569 0.097157 0.022191
C25   C     C_R   0.496990 0.492319 0.948128 0.019829
C26   C     C_R   0.497856 0.493135 0.051433 0.020889
C27   C     C_R   0.566057 0.433323 0.890617 -0.034921
C28   C     C_R   0.426702 0.547771 0.108624 -0.026729
C29   C     C_R   0.351239 0.591001 0.960807 -0.142839
C30   C     C_R   0.635947 0.373675 0.037995 -0.142468
C31   C     C_R   0.352398 0.593421 0.062251 -0.161243
C32   C     C_R   0.634513 0.372044 0.936531 -0.173662
C33   C     C_R   0.815626 0.596537 0.460752 -0.032740
C34   C     C_R   0.956152 0.679072 0.400607 -0.131779
C35   C     C_R   0.188928 0.385655 0.522348 -0.028814
C36   C     C_R   0.769692 0.493756 0.492406 -0.011577
C37   C     C_R   0.231643 0.495944 0.505150 0.006131
C38   C     C_R   0.816432 0.381413 0.508378 -0.020894
C39   C     C_R   0.182333 0.601285 0.481615 -0.017413
C40   C     C_R   0.910447 0.372783 0.490378 0.029879
C41   C     C_R   0.094212 0.588645 0.452333 0.049837
C42   C     C_R   0.955829 0.479579 0.468593 -0.008639
C43   C     C_R   0.049374 0.481663 0.474283 -0.010257
C44   C     C_R   0.908514 0.585795 0.443331 -0.007138
C45   C     C_R   0.434070 0.167997 0.166766 -0.126055
C46   C     C_R   0.097000 0.378770 0.505747 -0.015075
C47   C     C_R   0.962182 0.261887 0.493073 0.143807
C48   C     C_R   0.048609 0.679747 0.402118 0.135811
C49   C     C_3   0.768581 0.722205 0.458608 -0.249180
C50   C     C_3   0.802199 0.808526 0.539667 -0.308325
C51   C     C_3   0.761607 0.937049 0.534998 -0.468742
C52   C     C_3   0.241267 0.275481 0.556714 -0.255688
C53   C     C_3   0.273705 0.193434 0.469114 -0.302369
C54   C     C_3   0.286938 0.060418 0.494376 -0.462907
C55   C     C_3   0.353713 0.767637 0.803674 -0.336497
C56   C     C_R   0.636201 0.774771 0.788625 -0.118183
C57   C     C_3   0.730143 0.428703 0.231681 -0.310138
C58   C     C_3   0.766956 0.280803 0.559190 -0.229084
C59   C     C_3   0.775511 0.289353 0.669969 -0.284027
C60   C     C_3   0.866029 0.245159 0.703557 -0.422275
C61   C     C_3   0.210632 0.724958 0.523055 -0.247039
C62   C     C_3   0.169361 0.746163 0.626382 -0.300453
C63   C     C_3   0.177206 0.877416 0.666062 -0.468661
C64   C     C_3   0.980601 0.036294 0.457351 -0.333305
C65   C     C_3   0.150853 0.716361 0.267690 -0.320014
C66   C     C_3   0.747986 0.092761 0.279663 -0.331389
C67   C     C_R   0.432965 0.138027 0.263798 -0.094817
C68   C     C_3   0.419603 0.147203 0.848086 -0.314476
C69   C     C_R   0.608993 0.808990 0.697967 -0.073857
C70   C     C_R   0.510820 0.096838 0.307260 0.054659
Cu1   Cu    Cu3+1 0.500010 0.499980 0.597420 0.910308
Cu2   Cu    Cu3+1 0.499990 0.500020 0.402580 0.927478
H1    H     H_    0.490359 0.872930 0.349899 0.150410
H2    H     H_    0.922241 0.752400 0.365446 0.100702
H3    H     H_    0.512393 0.172987 0.034669 0.108447
H4    H     H_    0.622487 0.809699 0.942831 0.118105
H5    H     H_    0.373737 0.200614 0.134611 0.108644
H6    H     H_    0.685615 0.701365 0.793673 0.111611
H7    H     H_    0.370099 0.141975 0.302837 0.099021
H8    H     H_    0.639507 0.762367 0.634309 0.134820
H9    H     H_    0.647671 0.089106 0.103369 0.108073
H10   H     H_    0.511592 0.976094 0.932909 0.110654
H11   H     H_    0.779380 0.993027 0.600061 0.155252
H12   H     H_    0.546973 0.129166 0.642607 0.168002
H13   H     H_    0.786443 0.979722 0.468694 0.159616
H14   H     H_    0.688851 0.934616 0.532385 0.159496
H15   H     H_    0.786299 0.771763 0.611523 0.155141
H16   H     H_    0.875271 0.815353 0.535214 0.169720
H17   H     H_    0.778505 0.760950 0.386298 0.138811
H18   H     H_    0.695683 0.717983 0.468952 0.154098
H19   H     H_    0.330950 0.052443 0.556681 0.163404
H20   H     H_    0.221548 0.022816 0.511869 0.143109
H21   H     H_    0.316624 0.005943 0.430903 0.150650
H22   H     H_    0.226243 0.197017 0.409256 0.160085
H23   H     H_    0.613485 0.382653 0.744142 0.119890
H24   H     H_    0.337157 0.229219 0.442761 0.183635
H25   H     H_    0.299089 0.302911 0.599013 0.175240
H26   H     H_    0.200926 0.225563 0.609712 0.127505
H27   H     H_    0.379778 0.655720 0.684697 0.314630
H28   H     H_    0.363987 0.838542 0.750413 0.145551
H29   H     H_    0.396646 0.786528 0.865790 0.169684
H30   H     H_    0.282977 0.776544 0.828379 0.133436
H31   H     H_    0.628812 0.331105 0.304463 0.290720
H32   H     H_    0.756539 0.460815 0.301339 0.169214
H33   H     H_    0.730832 0.506047 0.182222 0.144023
H34   H     H_    0.375381 0.594995 0.254312 0.124094
H35   H     H_    0.775773 0.353807 0.201333 0.112454
H36   H     H_    0.885072 0.153481 0.669862 0.171835
H37   H     H_    0.917373 0.311512 0.685808 0.164865
H38   H     H_    0.862872 0.238142 0.783593 0.119164
H39   H     H_    0.762184 0.385304 0.697970 0.165015
H40   H     H_    0.724705 0.231005 0.702714 0.128728
H41   H     H_    0.695335 0.285478 0.544200 0.126631
H42   H     H_    0.784856 0.188101 0.530773 0.158830
H43   H     H_    0.246579 0.906650 0.658080 0.147229
H44   H     H_    0.132428 0.939613 0.627366 0.139860
H45   H     H_    0.290562 0.621388 0.928735 0.130745
H46   H     H_    0.156670 0.883955 0.744193 0.138351
H47   H     H_    0.097603 0.725755 0.627194 0.165444
H48   H     H_    0.202646 0.682794 0.675475 0.181687
H49   H     H_    0.283992 0.728736 0.526122 0.134002
H50   H     H_    0.190309 0.801266 0.478223 0.187225
H51   H     H_    0.884962 0.155515 0.405696 0.236341
H52   H     H_    0.941237 0.959480 0.429876 0.131860
H53   H     H_    0.003618 0.014238 0.530263 0.150313
H54   H     H_    0.037877 0.045275 0.405683 0.142048
H55   H     H_    0.055538 0.840309 0.327579 0.237045
H56   H     H_    0.688978 0.321386 0.068843 0.130498
H57   H     H_    0.185017 0.791323 0.231824 0.128608
H58   H     H_    0.110225 0.667684 0.213571 0.140774
H59   H     H_    0.202557 0.652125 0.293330 0.158769
H60   H     H_    0.661725 0.979748 0.349461 0.254953
H61   H     H_    0.805896 0.033499 0.297205 0.129791
H62   H     H_    0.741838 0.172408 0.332601 0.134812
H63   H     H_    0.760670 0.124924 0.205630 0.149356
H64   H     H_    0.389464 0.042156 0.721339 0.241834
H65   H     H_    0.374851 0.221405 0.823434 0.150266
H66   H     H_    0.481554 0.189261 0.871873 0.157910
H67   H     H_    0.294715 0.630090 0.104324 0.095325
H68   H     H_    0.385691 0.102793 0.909112 0.131310
H69   H     H_    0.687117 0.322605 0.894034 0.101479
H70   H     H_    0.090160 0.184802 0.521599 0.122863
N1    N     N_R   0.499960 0.499900 0.743810 -0.233608
N2    N     N_R   0.500040 0.500100 0.256190 -0.228153
N3    N     N_2   0.372255 0.647271 0.757270 -0.517220
N4    N     N_2   0.641525 0.382872 0.245721 -0.498584
N5    N     N_2   0.925648 0.147797 0.463607 -0.538152
N6    N     N_2   0.094604 0.767296 0.347783 -0.541951
N7    N     N_2   0.668645 0.022682 0.285031 -0.528894
N8    N     N_2   0.439601 0.058963 0.768499 -0.540932
O1    O     O_R   0.500000 0.319630 0.582270 -0.509268
O2    O     O_R   0.500000 0.680370 0.417730 -0.505935
O3    O     O_R   0.499990 0.319660 0.417730 -0.508210
O4    O     O_R   0.500010 0.680340 0.582270 -0.518898
O5    O     O_R   0.370260 0.499960 0.582280 -0.522923
O6    O     O_R   0.629740 0.500040 0.417720 -0.499646
O7    O     O_R   0.370250 0.499990 0.417740 -0.509101
O8    O     O_R   0.629750 0.500010 0.582260 -0.516438

loop_
_geom_bond_atom_site_label_1
_geom_bond_atom_site_label_2
_ccdc_geom_bond_type
C40   C47   A    
C57   H33   S    
C19   N2    A    
C6    H10   S    
C22   C29   A    
C12   O2    A    
C68   H66   S    
C56   C69   A    
C49   H18   S    
C8    C56   A    
C65   H58   S    
C39   C41   A    
C53   C54   S    
C55   H30   S    
C9    H1    S    
Cu2   O6    S    
C7    C45   A    
C18   N1    A    
C35   C37   A    
C24   C26   A    
C11   C14   A    
C55   N3    S    
C33   C49   S    
C52   H25   S    
C8    H4    S    
C33   C36   A    
C56   H6    S    
C61   H49   S    
C52   H26   S    
C57   H32   S    
C54   H21   S    
C60   H37   S    
C38   C58   S    
Cu1   O1    S    
Cu2   O2    S    
C22   C25   A    
C55   H28   S    
C45   C67   A    
C58   H41   S    
C59   H39   S    
C23   H70   S    
C17   C36   S    
C30   C32   A    
C2    C69   A    
C62   H48   S    
C60   H36   S    
C50   H16   S    
C16   C37   S    
C63   H43   S    
C40   C42   A    
H27   N3    S    
C59   C60   S    
C23   C46   A    
C66   H62   S    
C57   N4    S    
C53   H24   S    
C18   H23   S    
C41   C43   A    
C20   N1    A    
C51   H13   S    
C68   H65   S    
C42   C44   A    
C51   H14   S    
C65   H59   S    
C50   C51   S    
C47   N5    S    
C39   C61   S    
C30   H56   S    
C3    N7    S    
C23   C47   A    
C15   C70   S    
C3    C70   A    
C34   C44   A    
H64   N8    S    
C66   N7    S    
C4    C6    A    
C10   C14   A    
C49   H17   S    
C5    C7    A    
C63   H46   S    
C6    C8    A    
C25   C26   A    
C64   H52   S    
Cu1   O4    S    
C29   H45   S    
Cu2   O7    S    
C61   H50   S    
C2    C4    A    
C54   H20   S    
C62   C63   S    
C17   O8    A    
C66   H61   S    
C5    H9    S    
C65   H57   S    
H60   N7    S    
Cu1   O5    S    
C16   O5    A    
C59   H40   S    
C32   H69   S    
C67   H7    S    
C65   N6    S    
C1    O3    A    
C19   C28   A    
C9    C11   A    
C62   H47   S    
C50   H15   S    
C34   H2    S    
C63   H44   S    
C57   H35   S    
H51   N5    S    
C64   H53   S    
C64   H54   S    
C13   C15   A    
C64   N5    S    
C68   H68   S    
C1    C13   S    
C42   C43   A    
C20   C22   A    
C31   H67   S    
C51   H11   S    
C52   C53   S    
Cu1   N1    S    
Cu2   N2    S    
Cu1   O8    S    
C55   H29   S    
Cu2   O3    S    
C53   H22   S    
C33   C44   A    
C28   C31   A    
C18   C27   A    
C21   N2    A    
C12   O4    A    
C3    C5    A    
C10   C13   A    
C7    H3    S    
C11   C12   S    
C16   O7    A    
C25   C27   A    
C4    N8    S    
H55   N6    S    
C26   C28   A    
C67   C70   A    
C21   N4    S    
C36   C38   A    
C58   C59   S    
Cu1   Cu2   S    
C37   C39   A    
C38   C40   A    
C17   O6    A    
C60   H38   S    
C48   N6    S    
C10   H12   S    
C41   C48   A    
C1    O1    A    
C9    C15   A    
C61   C62   S    
C2    C14   S    
C43   C46   A    
C24   C30   A    
C68   N8    S    
C27   C32   A    
C66   H63   S    
C19   H34   S    
C54   H19   S    
C34   C48   A    
C29   C31   A    
C49   C50   S    
C21   C24   A    
C35   C52   S    
C58   H42   S    
C20   N3    S    
C69   H8    S    
C45   H5    S    
C35   C46   A    
H31   N4    S    
