data_mof_unit_38421.cif
_audit_creation_date              2012-10-26T19:05:05-0400
_audit_creation_method            fapswitch 2.2
_symmetry_space_group_name_H-M    P1
_symmetry_Int_Tables_number       1
_space_group_crystal_system       triclinic
_cell_length_a                    15.856954
_cell_length_b                    10.818211
_cell_length_c                    9.684763
_cell_angle_alpha                 89.575115
_cell_angle_beta                  89.786481
_cell_angle_gamma                 94.287914
_cell_volume                      1656.65067344

loop_
_atom_site_label
_atom_site_type_symbol
_atom_type_description
_atom_site_fract_x
_atom_site_fract_y
_atom_site_fract_z
_atom_type_partial_charge
Br1   Br    Br    0.578387 0.102428 0.040417 -0.552401
Br2   Br    Br    0.432800 0.841303 0.038997 -0.554649
Br3   Br    Br    0.903231 0.304837 0.287510 -0.513837
C1    C     C_R   0.503769 0.262802 0.501187 0.539906
C2    C     C_R   0.521699 0.041504 0.878858 0.183327
C3    C     C_R   0.470841 0.929700 0.877142 0.196592
C4    C     C_R   0.340394 0.498332 0.500276 0.539025
C5    C     C_R   0.448218 0.876548 0.751416 -0.068719
C6    C     C_R   0.476310 0.933905 0.627285 -0.016585
C7    C     C_R   0.505188 0.059676 0.629931 -0.029715
C8    C     C_R   0.505551 0.127924 0.504637 -0.012087
C9    C     C_R   0.497323 0.064291 0.380066 -0.117144
C10   C     C_R   0.493448 0.936448 0.379033 -0.128852
C11   C     C_R   0.481755 0.869331 0.501797 -0.020588
C12   C     C_3   0.944812 0.403407 0.604747 0.116080
C13   C     C_R   0.624179 0.642676 0.147893 -0.056495
C14   C     C_R   0.700539 0.679414 0.088266 -0.169237
C15   C     C_R   0.709434 0.670801 0.948185 -0.148770
C16   C     C_R   0.491548 0.735835 0.500076 0.544660
C17   C     C_R   0.637494 0.641627 0.864068 0.313703
C18   C     C_R   0.565054 0.569980 0.926010 0.180888
C19   C     C_R   0.562146 0.570346 0.075419 0.149150
C20   C     C_R   0.440711 0.432548 0.074259 0.038354
C21   C     C_R   0.440368 0.433189 0.927152 0.011351
C22   C     C_R   0.659384 0.499740 0.499631 0.544600
C23   C     C_3   0.916904 0.499748 0.494829 0.143988
C24   C     C_3   0.041422 0.392385 0.593228 -0.200397
C25   C     C_3   0.048982 0.473827 0.349067 -0.183675
C26   C     C_3   0.949307 0.470822 0.344264 0.458912
C27   C     C_1   0.749015 0.501143 0.498599 -0.003911
C28   C     C_3   0.082296 0.495615 0.497664 -0.049613
C29   C     C_3   0.846217 0.254108 0.700252 0.003326
C30   C     C_3   0.793283 0.134517 0.669095 -0.359246
C31   C     C_3   0.942943 0.840690 0.512544 -0.032885
C32   C     C_3   0.933057 0.941139 0.404284 -0.345015
C33   C     C_3   0.705366 0.771940 0.690342 -0.018532
C34   C     C_3   0.958278 0.629069 0.540748 0.123403
C35   C     C_3   0.691292 0.831671 0.550624 -0.355070
C36   C     C_3   0.956835 0.589592 0.126073 0.020638
C37   C     C_3   0.968956 0.480604 0.030211 -0.393178
C38   C     C_3   0.056081 0.623309 0.546455 -0.216842
C39   C     C_1   0.824575 0.501733 0.497270 0.056304
C40   C     C_1   0.174670 0.494693 0.499835 -0.066903
C41   C     C_1   0.250428 0.496009 0.500573 -0.019468
C42   C     C_R   0.535461 0.108827 0.756387 -0.109272
Cu1   Cu    Cu3+1 0.499990 0.499990 0.640660 0.989145
Cu2   Cu    Cu3+1 0.500010 0.500010 0.359340 0.984503
H1    H     H_    0.070010 0.399384 0.697995 0.097987
H2    H     H_    0.751683 0.721325 0.150095 0.152581
H3    H     H_    0.770355 0.704996 0.907497 0.082358
H4    H     H_    0.391356 0.377825 0.873581 0.118728
H5    H     H_    0.081270 0.546316 0.283093 0.112712
H6    H     H_    0.070430 0.384691 0.310700 0.125534
H7    H     H_    0.078057 0.640276 0.654173 0.087659
H8    H     H_    0.087930 0.697657 0.480452 0.157520
H9    H     H_    0.934569 0.647125 0.647169 0.051638
H10   H     H_    0.802241 0.328025 0.718181 0.126534
H11   H     H_    0.883410 0.240196 0.795632 0.138323
H12   H     H_    0.933685 0.442351 0.709457 0.055033
H13   H     H_    0.834901 0.057298 0.656558 0.134958
H14   H     H_    0.748430 0.111446 0.755460 0.121865
H15   H     H_    0.756652 0.145400 0.572766 0.179696
H16   H     H_    0.005445 0.859864 0.563104 0.121226
H17   H     H_    0.892276 0.845403 0.591518 0.108129
H18   H     H_    0.871057 0.925654 0.351851 0.172264
H19   H     H_    0.936797 0.033533 0.454006 0.163508
H20   H     H_    0.984329 0.939618 0.326015 0.162515
H21   H     H_    0.759822 0.713670 0.678720 0.110090
H22   H     H_    0.720519 0.848987 0.763918 0.132468
H23   H     H_    0.496050 0.113650 0.283380 0.212833
H24   H     H_    0.646395 0.904473 0.561234 0.154203
H25   H     H_    0.751651 0.876993 0.511238 0.099534
H26   H     H_    0.667714 0.761359 0.474770 0.157173
H27   H     H_    0.016198 0.648262 0.141908 0.123630
H28   H     H_    0.916119 0.651714 0.069237 0.143583
H29   H     H_    0.907425 0.427633 0.011361 0.190083
H30   H     H_    0.994426 0.516785 0.929652 0.071870
H31   H     H_    0.015009 0.418660 0.073242 0.161058
H32   H     H_    0.574583 0.194898 0.760568 0.169228
H33   H     H_    0.409879 0.789508 0.751860 0.166096
H34   H     H_    0.501290 0.890262 0.282844 0.220195
H35   H     H_    0.391948 0.376551 0.129186 0.119613
H36   H     H_    0.054603 0.300003 0.551819 0.173685
H37   H     H_    0.617626 0.669499 0.252318 0.181385
N1    N     N_R   0.500800 0.501210 0.147910 -0.229603
N2    N     N_R   0.500820 0.501290 0.852040 -0.239172
O1    O     O_R   0.499990 0.319640 0.618810 -0.518651
O2    O     O_3   0.936525 0.723650 0.447817 -0.518748
O3    O     O_3   0.632157 0.697610 0.734148 -0.493920
O4    O     O_3   0.914178 0.557929 0.252219 -0.497600
O5    O     O_R   0.500000 0.319660 0.381240 -0.490383
O6    O     O_R   0.379430 0.499990 0.618840 -0.511033
O7    O     O_R   0.379440 0.500020 0.381260 -0.492851
O8    O     O_R   0.500000 0.680340 0.618760 -0.441360
O9    O     O_R   0.500010 0.680360 0.381190 -0.520547
O10   O     O_R   0.620560 0.499980 0.618740 -0.464830
O11   O     O_R   0.620570 0.500010 0.381160 -0.506436
O12   O     O_3   0.901267 0.284670 0.587863 -0.527122

loop_
_geom_bond_atom_site_label_1
_geom_bond_atom_site_label_2
_ccdc_geom_bond_type
C33   O3    S    
C24   H1    S    
C20   H35   S    
C34   O2    S    
C29   H11   S    
C40   C41   T    
C1    O1    A    
C23   C39   S    
C28   C40   S    
Br1   C2    S    
Cu2   N1    S    
C25   C26   S    
C30   H15   S    
C2    C3    A    
C19   N1    A    
Cu1   O6    S    
C32   H18   S    
C10   H34   S    
C13   H37   S    
C31   C32   S    
Cu1   Cu2   S    
C36   H27   S    
Br3   C26   S    
C38   H8    S    
C18   N2    A    
C34   H9    S    
C5    C6    A    
C20   C21   A    
C36   H28   S    
C6    C7    A    
C36   O4    S    
C1    O5    A    
C21   H4    S    
C10   C11   A    
Br2   C3    S    
C12   H12   S    
C29   H10   S    
C26   O4    S    
C4    O7    A    
C35   H25   S    
C24   C28   S    
C14   H2    S    
C36   C37   S    
C13   C14   A    
C12   C23   S    
C3    C5    A    
C32   H19   S    
C2    C42   A    
C37   H29   S    
C6    C11   A    
C12   C24   S    
Cu1   O8    S    
C32   H20   S    
C25   H6    S    
C7    C42   A    
C31   H17   S    
C14   C15   A    
Cu2   O7    S    
C42   H32   S    
C31   O2    S    
C4    C41   S    
C17   C18   A    
C1    C8    S    
C16   O8    A    
C23   C26   S    
C22   O11   A    
C30   H13   S    
C37   H31   S    
C12   O12   S    
C16   O9    A    
C33   H22   S    
C15   H3    S    
Cu1   O1    S    
C22   C27   S    
C9    H23   S    
C35   H24   S    
C13   C19   A    
C28   C38   S    
Cu2   O5    S    
C11   C16   S    
C25   C28   S    
C8    C9    A    
C33   H21   S    
C23   C34   S    
C17   O3    S    
Cu2   O11   S    
C29   C30   S    
C24   H36   S    
C25   H5    S    
C4    O6    A    
C33   C35   S    
C31   H16   S    
C29   O12   S    
C15   C17   A    
C34   C38   S    
C38   H7    S    
C7    C8    A    
Cu1   O10   S    
C9    C10   A    
C22   O10   A    
C30   H14   S    
C20   N1    A    
C5    H33   S    
Cu2   O9    S    
C37   H30   S    
C27   C39   T    
C18   C19   A    
C21   N2    A    
Cu1   N2    S    
C35   H26   S    
