data_mof_unit_56561.cif
_audit_creation_date              2012-12-10T20:49:26-0500
_audit_creation_method            fapswitch 2.2
_symmetry_space_group_name_H-M    P1
_symmetry_Int_Tables_number       1
_space_group_crystal_system       triclinic
_cell_length_a                    15.719242
_cell_length_b                    8.979361
_cell_length_c                    8.159483
_cell_angle_alpha                 89.370137
_cell_angle_beta                  91.912134
_cell_angle_gamma                 91.842159
_cell_volume                      1150.40788786

loop_
_atom_site_label
_atom_site_type_symbol
_atom_type_description
_atom_site_fract_x
_atom_site_fract_y
_atom_site_fract_z
_atom_type_partial_charge
C1    C     C_1   0.500033 0.065127 0.500817 -0.193092
C2    C     C_3   0.988481 0.592130 0.570874 0.365256
C3    C     C_1   0.249327 0.466549 0.490234 -0.200163
C4    C     C_1   0.751493 0.510105 0.509812 -0.227212
C5    C     C_3   0.035888 0.459784 0.648502 0.326126
C6    C     C_3   0.963558 0.464785 0.347340 0.270510
C7    C     C_3   0.083341 0.442329 0.488189 -0.244114
C8    C     C_3   0.916384 0.484103 0.509325 -0.250758
C9    C     C_1   0.174416 0.446586 0.486007 0.033877
C10   C     C_1   0.826727 0.505606 0.513314 0.009865
C11   C     C_3   0.951336 0.114455 0.321853 0.172670
C12   C     C_1   0.500142 0.934885 0.499210 -0.193076
C13   C     C_3   0.958641 0.016268 0.173862 -0.866889
C14   C     C_3   0.053840 0.808690 0.668285 0.181122
C15   C     C_3   0.049432 0.911726 0.812599 -0.913987
C16   C     C_3   0.847637 0.204352 0.672521 0.123318
C17   C     C_3   0.824266 0.051848 0.743969 -0.859547
C18   C     C_3   0.109048 0.652569 0.180960 0.157135
C19   C     C_3   0.179037 0.765274 0.136419 -0.848320
C20   C     C_3   0.881844 0.585402 0.147902 0.075601
C21   C     C_3   0.868584 0.597589 0.963283 -0.737228
C22   C     C_3   0.122093 0.328708 0.832057 0.126801
C23   C     C_R   0.499886 0.218094 0.500563 0.927142
C24   C     C_3   0.126580 0.284109 0.012298 -0.768705
C25   C     C_R   0.500203 0.781911 0.499446 0.928333
C26   C     C_R   0.337565 0.493340 0.497243 0.892250
C27   C     C_R   0.662488 0.505834 0.502752 0.893027
C28   C     C_3   0.964125 0.350914 0.586716 0.274548
C29   C     C_3   0.034905 0.572929 0.409344 0.261199
C30   C     C_3   0.012108 0.332534 0.425962 0.330670
H1    H     H_    0.895175 0.184928 0.297164 0.155968
H2    H     H_    0.003893 0.999980 0.784187 0.311117
H3    H     H_    0.824225 0.205574 0.542477 0.117535
H4    H     H_    0.814713 0.288956 0.743158 0.176013
H5    H     H_    0.844925 0.045935 0.875057 0.265205
H6    H     H_    0.754162 0.032360 0.734367 0.216557
H7    H     H_    0.855074 0.963197 0.675577 0.279742
H8    H     H_    0.060142 0.646284 0.080306 0.202480
H9    H     H_    0.138812 0.543318 0.192716 0.169549
H10   H     H_    0.231422 0.763385 0.231154 0.259530
H11   H     H_    0.204782 0.736747 0.015995 0.228773
H12   H     H_    0.939742 0.041929 0.430431 0.182177
H13   H     H_    0.153938 0.879248 0.129002 0.257664
H14   H     H_    0.915512 0.689005 0.191537 0.164482
H15   H     H_    0.818020 0.576679 0.201576 0.169565
H16   H     H_    0.826790 0.503939 0.917950 0.246621
H17   H     H_    0.838569 0.704536 0.929952 0.213584
H18   H     H_    0.930831 0.593114 0.904673 0.309801
H19   H     H_    0.188138 0.352790 0.793294 0.150882
H20   H     H_    0.096050 0.231058 0.761756 0.179034
H21   H     H_    0.066715 0.311988 0.071144 0.326477
H22   H     H_    0.136088 0.162714 0.025972 0.217400
H23   H     H_    0.011727 0.939689 0.194809 0.290691
H24   H     H_    0.181681 0.341878 0.074996 0.219680
H25   H     H_    0.898426 0.950316 0.152948 0.199335
H26   H     H_    0.970554 0.086476 0.063846 0.286749
H27   H     H_    0.066221 0.877843 0.557379 0.210238
H28   H     H_    0.108877 0.735400 0.693179 0.163505
H29   H     H_    0.027711 0.848125 0.920932 0.272143
H30   H     H_    0.113321 0.963303 0.839593 0.210762
N1    N     N_1   0.500010 0.500000 0.073640 -0.035115
N2    N     N_1   0.499990 0.500000 0.926360 -0.035359
O1    O     O_R   0.500000 0.285340 0.636850 -0.616407
O2    O     O_3   0.975238 0.729071 0.647394 -0.617177
O3    O     O_3   0.936467 0.230457 0.687530 -0.612474
O4    O     O_3   0.071812 0.696833 0.326672 -0.645263
O5    O     O_3   0.928172 0.456795 0.186032 -0.594264
O6    O     O_3   0.072878 0.457457 0.809140 -0.611196
O7    O     O_R   0.500000 0.714660 0.363150 -0.615377
O8    O     O_R   0.500000 0.285340 0.363150 -0.612871
O9    O     O_R   0.500000 0.714660 0.636850 -0.613630
O10   O     O_R   0.376770 0.500000 0.636850 -0.616867
O11   O     O_R   0.623230 0.500000 0.363150 -0.615509
O12   O     O_R   0.376780 0.500000 0.363100 -0.615588
O13   O     O_R   0.623220 0.500000 0.636900 -0.616865
O14   O     O_3   0.028294 0.197671 0.347676 -0.598673
Zn1   Zn    Zn3+2 0.499990 0.500000 0.682780 0.985704
Zn2   Zn    Zn3+2 0.500010 0.500000 0.317220 0.987312

loop_
_geom_bond_atom_site_label_1
_geom_bond_atom_site_label_2
_ccdc_geom_bond_type
C24   H22   S    
C7    C29   S    
O8    Zn2   S    
C26   O10   A    
C15   H30   S    
C20   O5    S    
C15   H2    S    
C2    C29   S    
C11   O14   S    
C24   H24   S    
C11   H12   S    
C18   C19   S    
N2    Zn1   S    
C16   H4    S    
C19   H13   S    
C16   C17   S    
O11   Zn2   S    
C25   O9    A    
C17   H6    S    
C20   H15   S    
C22   H20   S    
C13   H26   S    
C24   H21   S    
C23   O1    A    
C11   H1    S    
C7    C30   S    
C23   O8    A    
O7    Zn2   S    
C1    C12   T    
C5    O6    S    
C27   O13   A    
C20   H14   S    
C2    O2    S    
C13   H23   S    
C14   H28   S    
C5    C7    S    
C6    C8    S    
C18   H9    S    
O10   Zn1   S    
C3    C9    T    
C16   H3    S    
C5    C28   S    
C30   O14   S    
N1    Zn2   S    
C14   O2    S    
C17   H7    S    
O13   Zn1   S    
C22   O6    S    
C22   H19   S    
C6    O5    S    
C6    C30   S    
C1    C23   S    
C8    C28   S    
C22   C24   S    
C2    C5    S    
C25   O7    A    
C4    C10   T    
O9    Zn1   S    
C4    C27   S    
C21   H16   S    
O1    Zn1   S    
C7    C9    S    
C14   H27   S    
C15   H29   S    
C3    C26   S    
C2    C8    S    
C18   O4    S    
C12   C25   S    
C21   H18   S    
C28   C30   S    
C28   O3    S    
C18   H8    S    
C11   C13   S    
C26   O12   A    
N1    N2    T    
C19   H10   S    
C29   O4    S    
C6    C29   S    
C20   C21   S    
C8    C10   S    
O12   Zn2   S    
C14   C15   S    
C16   O3    S    
C17   H5    S    
C13   H25   S    
C27   O11   A    
C19   H11   S    
C21   H17   S    
