data_mof_unit_26016.cif
_audit_creation_date              2012-12-10T17:15:13-0500
_audit_creation_method            fapswitch 2.2
_symmetry_space_group_name_H-M    P1
_symmetry_Int_Tables_number       1
_space_group_crystal_system       triclinic
_cell_length_a                    10.056377
_cell_length_b                    11.011246
_cell_length_c                    12.939643
_cell_angle_alpha                 91.003208
_cell_angle_beta                  92.244533
_cell_angle_gamma                 95.49907
_cell_volume                      1424.83438603

loop_
_atom_site_label
_atom_site_type_symbol
_atom_type_description
_atom_site_fract_x
_atom_site_fract_y
_atom_site_fract_z
_atom_type_partial_charge
C1    C     C_R   0.442779 0.267813 0.497847 0.748609
C2    C     C_R   0.556914 0.731765 0.503096 0.829739
C3    C     C_2   0.071652 0.490762 0.508666 -0.169860
C4    C     C_2   0.927917 0.505702 0.488600 -0.157709
C5    C     C_R   0.473738 0.498034 0.699014 0.919005
C6    C     C_R   0.524123 0.490843 0.301504 0.920332
C7    C     C_R   0.537570 0.471348 0.192042 -0.303877
C8    C     C_R   0.456625 0.482324 0.809479 -0.302043
C9    C     C_R   0.317286 0.456765 0.957070 -0.286965
C10   C     C_R   0.674650 0.479336 0.044032 -0.293916
C11   C     C_R   0.329373 0.480820 0.852207 0.404512
C12   C     C_R   0.665638 0.477689 0.150323 0.423323
C13   C     C_R   0.570005 0.464940 0.874024 0.416451
C14   C     C_R   0.420951 0.446652 0.127943 0.415454
C15   C     C_R   0.559009 0.467636 0.979981 -0.059167
C16   C     C_R   0.431606 0.455947 0.021817 -0.059317
C17   C     C_2   0.406667 0.135783 0.498317 0.203865
C18   C     C_2   0.593041 0.861931 0.514779 0.170551
C19   C     C_2   0.503669 0.063883 0.524988 -0.086862
C20   C     C_2   0.505830 0.939428 0.479345 -0.095159
H1    H     H_    0.218378 0.446745 0.988131 0.199704
H2    H     H_    0.772744 0.493266 0.011962 0.200852
H3    H     H_    0.897741 0.566329 0.428689 0.196605
H4    H     H_    0.101904 0.430281 0.568458 0.189007
H5    H     H_    0.869287 0.392925 0.598952 0.180011
H6    H     H_    0.131147 0.604346 0.398797 0.200052
N1    N     N_2   0.162330 0.550370 0.457540 -0.183028
N2    N     N_2   0.837670 0.449630 0.542460 -0.195985
O1    O     O_R   0.567930 0.307680 0.508550 -0.605084
O2    O     O_R   0.432070 0.692320 0.491450 -0.583613
O3    O     O_R   0.351090 0.340020 0.481290 -0.629207
O4    O     O_R   0.648910 0.659980 0.518710 -0.610878
O5    O     O_R   0.590490 0.486480 0.665020 -0.581772
O6    O     O_R   0.409510 0.513520 0.334980 -0.574577
O7    O     O_R   0.373660 0.518820 0.637760 -0.573220
O8    O     O_R   0.626340 0.481180 0.362240 -0.590297
Zn1   Zn    Zn3+2 0.644780 0.478400 0.518200 0.958771
Zn2   Zn    Zn3+2 0.355220 0.521600 0.481800 0.980874
O9    O     O_3   0.295493 0.421664 0.168369 -0.636171
C21   C     C_3   0.282018 0.301280 0.206563 0.144531
H7    H     H_    0.215356 0.300631 0.273045 0.174486
H8    H     H_    0.378024 0.269780 0.237037 0.105412
C22   C     C_3   0.217628 0.211272 0.123420 -0.440122
H9    H     H_    0.116996 0.237644 0.099968 0.224693
H10   H     H_    0.279950 0.214264 0.054328 0.226963
C23   C     C_3   0.204396 0.081030 0.163013 -0.873583
H11   H     H_    0.304831 0.051128 0.181668 0.266596
H12   H     H_    0.153477 0.018497 0.102440 0.257040
H13   H     H_    0.144801 0.075053 0.233486 0.285597
O10   O     O_3   0.692470 0.443906 0.834831 -0.644516
C24   C     C_3   0.694682 0.317184 0.813766 0.150868
H14   H     H_    0.753229 0.307916 0.743762 0.195277
H15   H     H_    0.593318 0.269372 0.795995 0.096711
C25   C     C_3   0.763740 0.253736 0.902731 -0.432503
H16   H     H_    0.865250 0.300677 0.919629 0.218383
H17   H     H_    0.704911 0.257292 0.973227 0.224734
C26   C     C_3   0.775470 0.119668 0.876422 -0.912871
H18   H     H_    0.674548 0.069327 0.866426 0.263363
H19   H     H_    0.831148 0.078085 0.940334 0.258692
H20   H     H_    0.829807 0.110550 0.804257 0.287443
O11   O     O_3   0.781221 0.494813 0.213342 -0.625727
C27   C     C_3   0.856146 0.392247 0.206411 0.084254
H21   H     H_    0.958233 0.420558 0.239604 0.176860
H22   H     H_    0.869329 0.362399 0.125136 0.114883
C28   C     C_3   0.794913 0.284918 0.268979 -0.328726
H23   H     H_    0.784976 0.314946 0.350345 0.270805
H24   H     H_    0.693953 0.252418 0.235706 0.196413
C29   C     C_3   0.881878 0.178877 0.268793 -0.982884
H25   H     H_    0.894317 0.146275 0.188342 0.271912
H26   H     H_    0.833758 0.102380 0.313152 0.266867
H27   H     H_    0.981438 0.207857 0.306083 0.258522
O12   O     O_3   0.215522 0.491514 0.790532 -0.625293
C30   C     C_3   0.156856 0.598780 0.818724 0.061918
H28   H     H_    0.194887 0.674098 0.768459 0.153978
H29   H     H_    0.179751 0.630234 0.900535 0.138714
C31   C     C_3   0.005109 0.576140 0.802619 -0.312897
H30   H     H_    0.978707 0.569670 0.718539 0.220516
H31   H     H_    0.969568 0.488224 0.837732 0.243818
C32   C     C_3   0.934758 0.678040 0.852159 -0.916235
H32   H     H_    0.944141 0.673572 0.937796 0.261286
H33   H     H_    0.827026 0.667864 0.828142 0.298982
H34   H     H_    0.979473 0.768635 0.828087 0.247743
C33   C     C_2   0.425793 0.905241 0.381930 0.476399
H35   H     H_    0.473969 0.911860 0.308417 -0.000355
O13   O     O_2   0.308119 0.866181 0.383884 -0.518525
C34   C     C_2   0.599526 0.106155 0.611368 0.503290
H36   H     H_    0.565306 0.104800 0.689564 -0.000042
O14   O     O_2   0.715383 0.141772 0.594864 -0.591866
O15   O     O_3   0.700950 0.899056 0.581565 -0.618015
C35   C     C_3   0.822610 0.887018 0.532319 0.158370
H37   H     H_    0.869654 0.979538 0.516313 0.164865
H38   H     H_    0.811204 0.836137 0.456458 0.106759
C36   C     C_3   0.915057 0.822873 0.605427 -0.377651
H39   H     H_    0.936920 0.878978 0.677257 0.222021
H40   H     H_    0.863561 0.733712 0.626819 0.262855
C37   C     C_3   0.046021 0.800291 0.556228 -0.883272
H41   H     H_    0.027116 0.763131 0.476338 0.263999
H42   H     H_    0.098461 0.734773 0.603039 0.265715
H43   H     H_    0.112876 0.885318 0.553434 0.291921
O16   O     O_3   0.281208 0.084907 0.461382 -0.612332
C38   C     C_3   0.174272 0.130841 0.514258 0.125355
H44   H     H_    0.082834 0.070826 0.491685 0.156352
H45   H     H_    0.151258 0.220766 0.485265 0.158377
C39   C     C_3   0.192556 0.132498 0.633663 -0.429458
H46   H     H_    0.218702 0.042037 0.660094 0.223152
H47   H     H_    0.275068 0.201926 0.659752 0.205035
C40   C     C_3   0.066383 0.163706 0.685719 -0.889547
H48   H     H_    0.042451 0.256729 0.665230 0.264643
H49   H     H_    0.082184 0.160644 0.771045 0.263112
H50   H     H_    0.980566 0.097300 0.661541 0.276926

loop_
_geom_bond_atom_site_label_1
_geom_bond_atom_site_label_2
_ccdc_geom_bond_type
C13   O10   S    
C38   H44   S    
C2    C18   S    
C30   H29   S    
C30   H28   S    
C19   C20   S    
C31   C32   S    
C19   C34   S    
C39   H47   S    
C26   H18   S    
C10   H2    S    
H5    N2    S    
C23   H13   S    
H6    N1    S    
C36   H39   S    
O8    Zn1   S    
C9    C16   A    
C31   H31   S    
C10   C15   A    
C29   H27   S    
C34   O14   D    
C26   H19   S    
N1    Zn2   S    
C15   C16   A    
C37   H43   S    
C1    O3    A    
O2    Zn2   S    
C2    O4    A    
C27   H22   S    
C17   C19   D    
C14   O9    S    
C23   H11   S    
C7    C14   A    
C29   H25   S    
C28   H24   S    
C37   H42   S    
C40   H48   S    
C21   H8    S    
C36   H40   S    
O6    Zn2   S    
C40   H49   S    
C3    H4    S    
C39   H46   S    
C4    N2    D    
C23   H12   S    
C21   C22   S    
C7    C12   A    
C25   H17   S    
C24   H14   S    
O7    Zn2   S    
C31   H30   S    
O9    C21   S    
C32   H33   S    
C4    H3    S    
C34   H36   S    
C26   H20   S    
O5    Zn1   S    
C6    O6    A    
C5    O5    A    
C24   H15   S    
C22   H9    S    
C27   H21   S    
C32   H34   S    
C9    C11   A    
C35   H38   S    
C33   H35   S    
C28   C29   S    
C37   H41   S    
C1    O1    A    
O10   C24   S    
O4    Zn1   S    
C22   H10   S    
C10   C12   A    
C21   H7    S    
C33   O13   D    
C36   C37   S    
C13   C15   A    
C30   C31   S    
C14   C16   A    
C3    C4    S    
C35   C36   S    
C38   H45   S    
C25   H16   S    
C27   C28   S    
C11   O12   S    
C18   O15   S    
O12   C30   S    
C17   O16   S    
C5    C8    S    
C6    C7    S    
C38   C39   S    
C1    C17   S    
O3    Zn2   S    
C2    O2    A    
C24   C25   S    
C3    N1    D    
C12   O11   S    
C9    H1    S    
C35   H37   S    
N2    Zn1   S    
C8    C11   A    
C5    O7    A    
O16   C38   S    
C40   H50   S    
C6    O8    A    
C18   C20   D    
O11   C27   S    
C22   C23   S    
C32   H32   S    
C8    C13   A    
C29   H26   S    
C28   H23   S    
C20   C33   S    
O1    Zn1   S    
O15   C35   S    
C39   C40   S    
C25   C26   S    
