data_mof_unit_54214.cif
_audit_creation_date              2012-12-10T19:45:39-0500
_audit_creation_method            fapswitch 2.2
_symmetry_space_group_name_H-M    P1
_symmetry_Int_Tables_number       1
_space_group_crystal_system       triclinic
_cell_length_a                    10.82766
_cell_length_b                    14.697854
_cell_length_c                    14.900914
_cell_angle_alpha                 65.036002
_cell_angle_beta                  102.634518
_cell_angle_gamma                 102.05256
_cell_volume                      2079.50412909

loop_
_atom_site_label
_atom_site_type_symbol
_atom_type_description
_atom_site_fract_x
_atom_site_fract_y
_atom_site_fract_z
_atom_type_partial_charge
C1    C     C_R   0.478742 0.119552 0.312692 0.826121
C2    C     C_R   0.521258 0.880448 0.687307 0.826118
C3    C     C_R   0.870121 0.998878 0.497157 -0.082812
C4    C     C_R   0.129881 0.001127 0.502838 -0.082812
C5    C     C_R   0.910610 0.970990 0.429723 0.020748
C6    C     C_R   0.089392 0.029025 0.570264 0.020733
C7    C     C_R   0.472450 0.186315 0.205478 -0.153306
C8    C     C_R   0.527544 0.813682 0.794520 -0.153318
C9    C     C_R   0.483208 0.217889 0.034248 -0.144935
C10   C     C_R   0.516759 0.782102 0.965745 -0.144932
C11   C     C_R   0.465229 0.149701 0.130557 0.388110
C12   C     C_R   0.534744 0.850293 0.869440 0.388103
C13   C     C_R   0.480848 0.290719 0.178257 -0.279412
C14   C     C_R   0.519156 0.709278 0.821739 -0.279392
C15   C     C_R   0.487294 0.360255 0.078824 0.078680
C16   C     C_R   0.512694 0.639738 0.921169 0.078675
C17   C     C_R   0.498191 0.322682 0.007966 0.029379
C18   C     C_R   0.501782 0.677308 0.992025 0.029385
C19   C     C_R   0.488637 0.466137 0.049148 0.049708
C20   C     C_R   0.511347 0.533855 0.950843 0.049709
C21   C     C_R   0.535310 0.493903 0.886115 -0.215941
C22   C     C_R   0.464663 0.506085 0.113874 -0.215938
C23   C     C_R   0.263316 0.999546 0.502645 0.795142
C24   C     C_R   0.736684 0.000455 0.497354 0.795146
C25   C     C_R   0.526258 0.390438 0.912999 0.157996
C26   C     C_R   0.473705 0.609549 0.086988 0.158004
C27   C     C_R   0.749788 0.303853 0.627820 0.063058
C28   C     C_R   0.250214 0.696149 0.372176 0.063056
C29   C     C_R   0.700093 0.213705 0.616004 0.126610
C30   C     C_R   0.299911 0.786297 0.383990 0.126613
C31   C     C_R   0.510254 0.280414 0.519498 -0.000052
C32   C     C_R   0.489739 0.719581 0.480511 -0.000130
C33   C     C_R   0.551588 0.372888 0.532313 -0.043692
C34   C     C_R   0.448407 0.627109 0.467693 -0.043727
C35   C     C_R   0.676431 0.385067 0.584375 0.110452
C36   C     C_R   0.323567 0.614932 0.415627 0.110454
C37   C     C_R   0.474676 0.453510 0.494089 0.103575
C38   C     C_R   0.525320 0.546487 0.505918 0.103561
C39   C     C_R   0.651887 0.556399 0.554092 -0.230889
C40   C     C_R   0.348110 0.443600 0.445912 -0.230898
C41   C     C_R   0.725197 0.477606 0.592448 -0.113179
C42   C     C_R   0.274801 0.522393 0.407555 -0.113190
C43   C     C_R   0.256608 0.015184 0.824205 0.474799
C44   C     C_R   0.743376 0.984853 0.175767 0.474734
C45   C     C_R   0.192105 0.985071 0.747061 -0.225261
C46   C     C_R   0.807945 0.014955 0.252908 -0.225317
C47   C     C_R   0.176572 0.056787 0.648068 0.059292
C48   C     C_R   0.823426 0.943244 0.351908 0.059240
C49   C     C_R   0.226546 0.158422 0.626733 -0.110559
C50   C     C_R   0.773352 0.841622 0.373249 -0.110431
C51   C     C_R   0.292789 0.188063 0.703549 -0.172751
C52   C     C_R   0.707047 0.811991 0.296436 -0.172734
C53   C     C_R   0.307144 0.116649 0.802240 -0.040551
C54   C     C_R   0.692731 0.883402 0.197741 -0.040507
C55   C     C_R   0.959865 0.027757 0.566465 -0.217266
C56   C     C_R   0.040137 0.972255 0.433524 -0.217265
Cu1   Cu    Cu3+1 0.466270 0.918260 0.475690 0.982665
Cu2   Cu    Cu3+1 0.533730 0.081740 0.524310 0.982678
H1    H     H_    0.355706 0.140289 0.861686 0.177166
H2    H     H_    0.644105 0.859770 0.138298 0.177211
H3    H     H_    0.485737 0.187339 0.980575 0.214535
H4    H     H_    0.514214 0.812651 0.019417 0.214521
H5    H     H_    0.564321 0.541229 0.814150 0.158950
H6    H     H_    0.435650 0.458756 0.185837 0.158954
H7    H     H_    0.820791 0.490188 0.629614 0.180854
H8    H     H_    0.179208 0.509813 0.370386 0.180856
H9    H     H_    0.577987 0.732140 0.526007 0.127131
H10   H     H_    0.421999 0.267850 0.474011 0.127132
H11   H     H_    0.243602 0.848344 0.352233 0.155799
H12   H     H_    0.756406 0.151662 0.647756 0.155791
H13   H     H_    0.697995 0.624549 0.563874 0.125812
H14   H     H_    0.302004 0.375451 0.436127 0.125815
H15   H     H_    0.150129 0.906968 0.764467 0.166049
H16   H     H_    0.849995 0.093045 0.235498 0.166077
H17   H     H_    0.210782 0.214782 0.551180 0.129081
H18   H     H_    0.789070 0.785263 0.448809 0.129048
H19   H     H_    0.329903 0.266841 0.686666 0.181588
H20   H     H_    0.669841 0.733222 0.313328 0.181571
H21   H     H_    0.928866 0.048297 0.619183 0.167143
H22   H     H_    0.071136 0.951719 0.380803 0.167140
H23   H     H_    0.512876 0.683620 0.762912 0.171475
H24   H     H_    0.487146 0.316380 0.237083 0.171482
N1    N     N_R   0.584450 0.204570 0.560790 -0.195711
N2    N     N_R   0.415550 0.795430 0.439210 -0.195704
O1    O     O_R   0.455540 0.022090 0.338120 -0.524334
O2    O     O_R   0.544460 0.977910 0.661880 -0.524331
O3    O     O_R   0.512510 0.160150 0.379180 -0.597570
O4    O     O_R   0.487490 0.839850 0.620820 -0.597568
O5    O     O_R   0.291160 0.930970 0.479480 -0.598116
O6    O     O_R   0.708840 0.069030 0.520520 -0.598122
O7    O     O_R   0.348130 0.069020 0.520540 -0.581755
O8    O     O_R   0.651870 0.930980 0.479460 -0.581767
I1    I     I_    0.936090 0.309515 0.710735 -0.311825
I2    I     I_    0.063917 0.690491 0.289252 -0.311762
Cl1   Cl    Cl    0.269925 0.926597 0.948688 -0.505606
Cl2   Cl    Cl    0.730080 0.073434 0.051279 -0.505587
I3    I     I_    0.568887 0.343734 0.807920 -0.353748
I4    I     I_    0.431046 0.656242 0.192062 -0.353806
Cl3   Cl    Cl    0.563909 0.979824 0.848862 -0.522578
Cl4   Cl    Cl    0.436033 0.020172 0.151137 -0.522635

loop_
_geom_bond_atom_site_label_1
_geom_bond_atom_site_label_2
_ccdc_geom_bond_type
C1    O3    A    
Cu1   O8    S    
C27   C29   A    
C5    C56   A    
C36   C42   A    
C19   C20   A    
C18   C26   A    
C6    C55   A    
Cu2   O3    S    
C53   H1    S    
C39   C41   A    
C54   H2    S    
C7    C11   A    
Cu1   O5    S    
C9    H3    S    
C45   H15   S    
C29   N1    A    
C37   C40   A    
C38   C39   A    
Cu2   O2    S    
C31   N1    A    
C28   I2    S    
C12   Cl3   S    
C3    C55   A    
C43   C53   A    
C52   C54   A    
C49   C51   A    
C43   Cl1   S    
C49   H17   S    
C2    O4    A    
C25   I3    S    
C23   O7    A    
Cu2   O7    S    
C8    C12   A    
C9    C11   A    
C40   C42   A    
C1    C7    S    
C4    C56   A    
C3    C24   S    
C10   H4    S    
C52   H20   S    
C24   O8    A    
C44   C46   A    
C45   C47   A    
C1    O1    A    
C31   H10   S    
C32   N2    A    
C5    C48   S    
C46   C48   A    
C6    C47   S    
C19   C22   A    
C47   C49   A    
C4    C23   S    
C41   H7    S    
C27   C35   A    
C13   H24   S    
C33   C37   A    
C11   Cl4   S    
C51   C53   A    
C32   C34   A    
C15   C19   A    
C51   H19   S    
C37   C38   A    
C44   Cl2   S    
C50   H18   S    
C55   H21   S    
C50   C52   A    
C16   C20   A    
C23   O5    A    
Cu1   N2    S    
C43   C45   A    
C10   C12   A    
Cu2   O6    S    
C32   H9    S    
C4    C6    A    
C26   I4    S    
C13   C15   A    
C14   C16   A    
C27   I1    S    
C46   H16   S    
C30   H11   S    
C29   H12   S    
C9    C17   A    
C15   C17   A    
C21   C25   A    
C31   C33   A    
C8    C14   A    
C40   H14   S    
C34   C38   A    
C2    C8    S    
C3    C5    A    
C24   O6    A    
C56   H22   S    
Cu1   O4    S    
C17   C25   A    
C28   C30   A    
Cu2   N1    S    
Cu1   Cu2   S    
C10   C18   A    
C48   C50   A    
C33   C35   A    
Cu1   O1    S    
C2    O2    A    
C34   C36   A    
C30   N2    A    
C35   C41   A    
C21   H5    S    
C22   H6    S    
C44   C54   A    
C7    C13   A    
C20   C21   A    
C28   C36   A    
C16   C18   A    
C22   C26   A    
C42   H8    S    
C39   H13   S    
C14   H23   S    
