data_mof_unit_25414.cif
_audit_creation_date              2012-12-10T18:47:49-0500
_audit_creation_method            fapswitch 2.2
_symmetry_space_group_name_H-M    P1
_symmetry_Int_Tables_number       1
_space_group_crystal_system       triclinic
_cell_length_a                    9.842252
_cell_length_b                    10.714861
_cell_length_c                    15.554755
_cell_angle_alpha                 90.138938
_cell_angle_beta                  67.0219
_cell_angle_gamma                 89.983083
_cell_volume                      1510.21588025

loop_
_atom_site_label
_atom_site_type_symbol
_atom_type_description
_atom_site_fract_x
_atom_site_fract_y
_atom_site_fract_z
_atom_type_partial_charge
C1    C     C_R   0.500050 0.740121 0.499970 0.867202
C2    C     C_R   0.500017 0.259873 0.499920 0.867807
C3    C     C_R   0.324738 0.486478 0.107058 -0.215049
C4    C     C_R   0.645888 0.614161 0.907291 -0.214659
C5    C     C_R   0.221400 0.470263 0.067812 -0.217834
C6    C     C_R   0.747807 0.632942 0.947447 -0.216096
C7    C     C_R   0.633146 0.935946 0.479018 -0.189723
C8    C     C_R   0.367072 0.064021 0.520525 -0.191187
C9    C     C_R   0.633138 0.063826 0.479009 -0.191414
C10   C     C_R   0.367074 0.936154 0.520557 -0.190924
C11   C     C_R   0.500084 0.127431 0.499810 -0.016586
C12   C     C_R   0.500097 0.872549 0.499845 -0.015887
C13   C     C_R   0.965513 0.426062 0.439237 -0.067404
C14   C     C_R   0.034545 0.574081 0.560665 -0.059917
C15   C     C_R   0.109327 0.425992 0.439317 -0.064313
C16   C     C_R   0.890716 0.574117 0.560611 -0.056517
C17   C     C_R   0.406953 0.500410 0.676515 0.872742
C18   C     C_R   0.592936 0.502288 0.323703 0.872569
C19   C     C_R   0.346380 0.503566 0.779084 -0.116781
C20   C     C_R   0.652140 0.519710 0.222321 -0.114165
C21   C     C_R   0.158624 0.462466 0.932657 -0.256075
C22   C     C_R   0.819570 0.614753 0.078832 -0.261724
C23   C     C_R   0.199977 0.469995 0.836130 -0.007229
C24   C     C_R   0.786096 0.581969 0.171786 -0.011951
C25   C     C_R   0.444321 0.536712 0.820346 -0.271037
C26   C     C_R   0.557462 0.489211 0.178422 -0.266450
C27   C     C_R   0.404636 0.530453 0.916665 0.097304
C28   C     C_R   0.580608 0.534887 0.089951 0.101305
C29   C     C_R   0.260772 0.488583 0.972706 0.152097
C30   C     C_R   0.717007 0.593433 0.038198 0.153661
C31   C     C_R   0.507804 0.556549 0.957566 0.071007
C32   C     C_R   0.471125 0.524213 0.052242 0.068893
H1    H     H_    0.111237 0.439449 0.111753 0.151512
H2    H     H_    0.851275 0.678909 0.907178 0.147682
H3    H     H_    0.462859 0.432096 0.216380 0.149822
H4    H     H_    0.555295 0.560576 0.774984 0.161673
H5    H     H_    0.047952 0.432122 0.976372 0.152012
H6    H     H_    0.922734 0.661930 0.039450 0.150677
H7    H     H_    0.284981 0.472170 0.181429 0.150526
H8    H     H_    0.676590 0.650842 0.837812 0.139012
H9    H     H_    0.736841 0.887098 0.462182 0.162305
H10   H     H_    0.263374 0.112849 0.537335 0.160662
H11   H     H_    0.736827 0.112509 0.462172 0.154795
H12   H     H_    0.263373 0.887483 0.537406 0.154342
H13   H     H_    0.940947 0.367029 0.390641 0.119462
H14   H     H_    0.059148 0.633212 0.609200 0.120390
H15   H     H_    0.193676 0.366722 0.390799 0.122227
H16   H     H_    0.806401 0.633463 0.609081 0.119441
N1    N     N_R   0.142780 0.500030 0.500020 -0.075829
N2    N     N_R   0.857220 0.499970 0.499980 -0.074973
O1    O     O_R   0.385370 0.683250 0.500010 -0.623159
O2    O     O_R   0.614630 0.316750 0.499990 -0.622187
O3    O     O_R   0.614700 0.683220 0.500000 -0.623346
O4    O     O_R   0.385300 0.316780 0.500000 -0.623735
O5    O     O_R   0.319830 0.500020 0.632250 -0.606290
O6    O     O_R   0.680170 0.499980 0.367750 -0.607879
O7    O     O_R   0.549160 0.499990 0.632240 -0.615001
O8    O     O_R   0.450840 0.500010 0.367760 -0.612699
Zn1   Zn    Zn3+2 0.346870 0.500020 0.500000 0.955336
Zn2   Zn    Zn3+2 0.653130 0.499980 0.500000 0.955153
C33   C     C_1   0.886829 0.619226 0.214156 0.173152
N3    N     N_1   0.967520 0.649241 0.248108 -0.203277
C34   C     C_1   0.091917 0.437526 0.798314 0.180514
N4    N     N_1   0.004978 0.411564 0.768267 -0.203986

loop_
_geom_bond_atom_site_label_1
_geom_bond_atom_site_label_2
_ccdc_geom_bond_type
C19   C23   A    
C24   C33   S    
C2    O2    A    
C14   C16   A    
O5    Zn1   S    
C27   C29   A    
C1    O1    A    
C17   O5    A    
C18   C20   S    
C31   C32   A    
N1    Zn1   S    
C13   C15   A    
C18   O6    A    
N2    Zn2   S    
C16   H16   S    
C28   C30   A    
C3    H7    S    
C14   H14   S    
C20   C24   A    
C13   H13   S    
C9    C11   A    
C7    C12   A    
C1    C12   S    
C20   C26   A    
O2    Zn2   S    
C8    C11   A    
C2    C11   S    
C10   C12   A    
C23   C34   S    
C26   C28   A    
C17   C19   S    
O3    Zn2   S    
C16   N2    A    
C5    C29   A    
O4    Zn1   S    
C15   N1    A    
C21   C23   A    
C3    C32   A    
C19   C25   A    
C22   C24   A    
C9    H11   S    
C4    C31   A    
O1    Zn1   S    
C33   N3    T    
C25   H4    S    
C10   H12   S    
C13   N2    A    
C22   H6    S    
C6    H2    S    
C26   H3    S    
C28   C32   A    
O6    Zn2   S    
C14   N1    A    
C27   C31   A    
C21   H5    S    
C8    C10   A    
C4    C6    A    
C2    O4    A    
C17   O7    A    
C7    C9    A    
C1    O3    A    
C15   H15   S    
O7    Zn2   S    
C22   C30   A    
C6    C30   A    
O8    Zn1   S    
C21   C29   A    
C18   O8    A    
C4    H8    S    
C7    H9    S    
C8    H10   S    
C34   N4    T    
C3    C5    A    
C25   C27   A    
C5    H1    S    
