data_mof_unit_26818.cif
_audit_creation_date              2012-12-11T14:50:33-0500
_audit_creation_method            fapswitch 2.2
_symmetry_space_group_name_H-M    P1
_symmetry_Int_Tables_number       1
_space_group_crystal_system       triclinic
_cell_length_a                    10.9697
_cell_length_b                    11.104847
_cell_length_c                    18.823112
_cell_angle_alpha                 89.926747
_cell_angle_beta                  89.477809
_cell_angle_gamma                 59.89306
_cell_volume                      1983.5319453

loop_
_atom_site_label
_atom_site_type_symbol
_atom_type_description
_atom_site_fract_x
_atom_site_fract_y
_atom_site_fract_z
_atom_type_partial_charge
C1    C     C_R   0.237162 0.645405 0.609462 0.529408
C2    C     C_3   0.667058 0.538221 0.810803 -0.099692
C3    C     C_3   0.683934 0.670594 0.817174 0.081596
C4    C     C_3   0.641150 0.629010 0.684478 0.030270
C5    C     C_3   0.795744 0.592668 0.695273 -0.223547
C6    C     C_3   0.612046 0.536468 0.735378 -0.250367
C7    C     C_R   0.777991 0.170693 0.709650 -0.168805
C8    C     C_R   0.788860 0.160060 0.783831 -0.038355
C9    C     C_R   0.679581 0.158464 0.823357 0.018945
C10   C     C_R   0.556123 0.179797 0.787509 0.000756
C11   C     C_R   0.561878 0.159607 0.714603 0.011198
C12   C     C_R   0.628045 0.592285 0.609356 0.553598
C13   C     C_R   0.664287 0.172308 0.674773 -0.002017
C14   C     C_R   0.204281 0.547407 0.722970 -0.136175
C15   C     C_R   0.186190 0.559479 0.796689 -0.156598
C16   C     C_R   0.164774 0.679962 0.831295 0.004483
C17   C     C_R   0.145672 0.792666 0.790291 -0.156294
C18   C     C_R   0.148318 0.786762 0.717564 -0.171603
C19   C     C_R   0.189907 0.660869 0.683279 0.011928
C20   C     C_R   0.693084 0.521810 0.268219 -0.113542
C21   C     C_R   0.689583 0.536883 0.194377 0.008980
C22   C     C_R   0.642381 0.670527 0.165847 0.036326
C23   C     C_R   0.628497 0.227122 0.602500 0.538985
C24   C     C_R   0.576634 0.787036 0.210944 -0.153898
C25   C     C_R   0.576979 0.771355 0.284285 -0.158286
C26   C     C_R   0.642740 0.638197 0.313364 0.009505
C27   C     C_R   0.542983 0.139689 0.290548 -0.002353
C28   C     C_R   0.562786 0.106551 0.219478 -0.129088
C29   C     C_R   0.688963 0.071801 0.185898 0.010473
C30   C     C_R   0.800429 0.067236 0.224290 -0.146226
C31   C     C_R   0.779126 0.112271 0.294355 -0.168210
C32   C     C_R   0.649344 0.153863 0.327463 0.042109
C33   C     C_R   0.251857 0.716826 0.280477 -0.128439
C34   C     C_R   0.229190 0.646498 0.399491 0.548157
C35   C     C_R   0.232270 0.719256 0.208513 -0.147049
C36   C     C_R   0.152447 0.664620 0.181245 0.027674
C37   C     C_R   0.103567 0.595332 0.225386 -0.134135
C38   C     C_R   0.125357 0.590917 0.297958 -0.147264
C39   C     C_R   0.194359 0.657009 0.325620 0.038169
C40   C     C_R   0.700016 0.104013 0.896450 0.542238
C41   C     C_R   0.721462 0.688147 0.889452 0.545658
C42   C     C_R   0.115372 0.708438 0.904917 0.531050
C43   C     C_R   0.702235 0.041252 0.110630 0.560975
C44   C     C_R   0.691973 0.688975 0.096075 0.522408
C45   C     C_R   0.638448 0.616938 0.389695 0.550866
C46   C     C_R   0.093247 0.708590 0.111945 0.538930
C47   C     C_R   0.616904 0.227242 0.395414 0.547742
C48   C     C_3   0.547043 0.802955 0.789813 -0.081082
C49   C     C_3   0.540755 0.787803 0.707479 -0.101303
C50   C     C_3   0.810621 0.649391 0.767179 -0.129289
Cr1   Cr    Cr6+3 0.392930 0.397900 0.502230 0.993107
Cr2   Cr    Cr6+3 0.398240 0.708600 0.501260 0.989204
Cr3   Cr    Cr6+3 0.708800 0.393470 0.496460 1.002643
Cr4   Cr    Cr6+3 0.937620 0.938540 0.007640 0.985299
Cr5   Cr    Cr6+3 0.625150 0.937450 0.994520 0.979364
Cr6   Cr    Cr6+3 0.937990 0.625080 0.001190 0.987962
H1    H     H_    0.551442 0.898624 0.799120 0.144217
H2    H     H_    0.665709 0.428914 0.715243 0.122322
H3    H     H_    0.911112 0.564371 0.789342 0.136574
H4    H     H_    0.865580 0.477209 0.695102 0.111649
H5    H     H_    0.855514 0.182776 0.679225 0.130128
H6    H     H_    0.226530 0.451856 0.697055 0.122484
H7    H     H_    0.179224 0.480429 0.826621 0.120118
H8    H     H_    0.131011 0.885844 0.814281 0.129900
H9    H     H_    0.125836 0.879613 0.688245 0.129598
H10   H     H_    0.729358 0.419425 0.290560 0.132690
H11   H     H_    0.531702 0.890073 0.189375 0.128330
H12   H     H_    0.529178 0.862370 0.318267 0.125122
H13   H     H_    0.476616 0.111180 0.189629 0.131774
H14   H     H_    0.901163 0.036379 0.199174 0.149045
H15   H     H_    0.862038 0.118805 0.321766 0.126302
H16   H     H_    0.312661 0.761494 0.300724 0.146015
H17   H     H_    0.272268 0.770995 0.174678 0.129574
H18   H     H_    0.040864 0.553102 0.204641 0.142648
H19   H     H_    0.085788 0.539670 0.332410 0.120141
H20   H     H_    0.586643 0.845384 0.682729 0.141583
H21   H     H_    0.832511 0.627262 0.649188 0.153989
H22   H     H_    0.775442 0.448845 0.812870 0.138066
H23   H     H_    0.497720 0.571557 0.736513 0.127225
O1    O     O_R   0.507430 0.255570 0.581420 -0.525251
O2    O     O_R   0.524460 0.695920 0.424060 -0.504093
O3    O     O_R   0.736530 0.504260 0.414810 -0.518963
O4    O     O_R   0.691460 0.277160 0.422180 -0.511281
O5    O     O_3   0.499990 0.499990 0.499980 -0.265031
O6    O     O_R   0.089490 0.825610 0.930610 -0.533631
O7    O     O_R   0.818370 0.054540 0.929880 -0.504179
O8    O     O_R   0.605870 0.077310 0.915530 -0.531035
O9    O     O_R   0.646440 0.806700 0.917570 -0.521830
O10   O     O_R   0.837200 0.593290 0.915250 -0.541805
O11   O     O_R   0.065330 0.635370 0.931590 -0.507472
O12   O     O_R   0.280190 0.527390 0.578910 -0.505695
O13   O     O_R   0.068300 0.828790 0.091860 -0.534847
O14   O     O_R   0.798730 0.057480 0.079370 -0.514844
O15   O     O_R   0.584680 0.080480 0.076790 -0.533791
O16   O     O_R   0.626790 0.809640 0.067050 -0.525062
O17   O     O_R   0.816010 0.596460 0.076500 -0.526724
O18   O     O_R   0.045680 0.638310 0.081070 -0.504402
O19   O     O_3   0.833590 0.833690 0.001120 -0.261865
O20   O     O_R   0.260310 0.739740 0.584580 -0.545975
O21   O     O_R   0.532250 0.695150 0.573830 -0.512226
O22   O     O_R   0.744930 0.503430 0.576380 -0.527930
O23   O     O_R   0.699250 0.276390 0.571950 -0.520201
O24   O     O_R   0.499020 0.256400 0.419850 -0.530316
O25   O     O_R   0.272400 0.528160 0.429140 -0.506425
O26   O     O_R   0.251910 0.740570 0.423020 -0.524883
C51   C     C_3   0.908082 0.165975 0.819644 -0.402320
H24   H     H_    0.973675 0.071645 0.849862 0.171144
H25   H     H_    0.975752 0.182605 0.781279 0.098335
H26   H     H_    0.866585 0.249149 0.859901 0.126251
C52   C     C_3   0.416610 0.224371 0.825585 -0.369305
H27   H     H_    0.410508 0.133269 0.845193 0.151790
H28   H     H_    0.400184 0.297372 0.869788 0.141486
H29   H     H_    0.327348 0.277487 0.789031 0.097212
C53   C     C_3   0.455778 0.127884 0.680699 -0.380575
H30   H     H_    0.502503 0.058078 0.634005 0.138011
H31   H     H_    0.421629 0.075327 0.718768 0.104661
H32   H     H_    0.359472 0.224402 0.664601 0.150915
C54   C     C_3   0.413476 0.833722 0.831904 -0.402087
H33   H     H_    0.432261 0.810137 0.889246 0.159003
H34   H     H_    0.331251 0.945355 0.828526 0.100802
H35   H     H_    0.373536 0.770342 0.809305 0.151219
C55   C     C_3   0.717591 0.414000 0.148238 -0.277008
C56   C     C_3   0.578502 0.421163 0.130685 -0.431773
H36   H     H_    0.526357 0.413760 0.180067 0.170335
H37   H     H_    0.506707 0.520391 0.103336 0.140038
H38   H     H_    0.598329 0.333779 0.095018 0.175831
H39   H     H_    0.773416 0.409516 0.098202 0.171198
H40   H     H_    0.786271 0.314950 0.176385 0.145108
C57   C     C_3   0.403980 0.164373 0.321892 -0.368669
H41   H     H_    0.347551 0.130309 0.285624 0.091298
H42   H     H_    0.422739 0.102894 0.371267 0.149056
H43   H     H_    0.331895 0.277061 0.332051 0.170655
C58   C     C_3   0.389538 0.861713 0.679969 -0.395166
H44   H     H_    0.312902 0.950776 0.712622 0.099619
H45   H     H_    0.380867 0.906589 0.626286 0.163093
H46   H     H_    0.360815 0.781970 0.679708 0.191216
C59   C     C_3   0.829338 0.780986 0.762680 -0.259092
C60   C     C_3   0.851662 0.827537 0.689241 -0.427904
H47   H     H_    0.881859 0.907295 0.696204 0.162427
H48   H     H_    0.936775 0.741466 0.658696 0.152742
H49   H     H_    0.755954 0.875060 0.656614 0.134366
H50   H     H_    0.746613 0.873759 0.789924 0.149183
H51   H     H_    0.919168 0.759543 0.795569 0.171893
C61   C     C_3   0.580609 0.509257 0.868073 -0.296258
C62   C     C_3   0.639530 0.480404 0.943373 -0.418694
H52   H     H_    0.596600 0.423037 0.972878 0.132022
H53   H     H_    0.755930 0.416125 0.943432 0.165689
H54   H     H_    0.605480 0.579371 0.972278 0.165026
H55   H     H_    0.468473 0.588863 0.871290 0.146917
H56   H     H_    0.578162 0.415766 0.850677 0.154181

loop_
_geom_bond_atom_site_label_1
_geom_bond_atom_site_label_2
_ccdc_geom_bond_type
C41   O10   A    
C59   H50   S    
C2    C61   S    
C6    H2    S    
C35   C36   A    
Cr6   O19   S    
C37   H18   S    
C1    O20   A    
C62   H52   S    
C50   C59   S    
C7    C8    A    
C18   H9    S    
C29   C30   A    
C51   H25   S    
Cr3   O5    S    
C2    H22   S    
C50   H3    S    
C40   O8    A    
C20   H10   S    
C28   C29   A    
C17   H8    S    
C38   C39   A    
C56   H37   S    
C23   O23   A    
C46   O13   A    
C51   H24   S    
Cr1   O24   S    
C15   C16   A    
C14   H6    S    
C3    C48   S    
C21   C55   S    
C43   O15   A    
C13   C23   S    
C18   C19   A    
C40   O7    A    
Cr5   O9    S    
Cr2   O5    S    
C11   C53   S    
C54   H33   S    
C7    H5    S    
Cr4   O14   S    
C61   H56   S    
C26   C45   S    
C62   H53   S    
Cr1   O1    S    
C22   C44   S    
C28   H13   S    
Cr3   O22   S    
C16   C17   A    
C58   H46   S    
C36   C46   S    
C47   O4    A    
C23   O1    A    
C4    C12   S    
C35   H17   S    
C9    C10   A    
C33   H16   S    
C57   H43   S    
Cr1   O12   S    
Cr6   O11   S    
C59   H51   S    
C1    O12   A    
C21   C22   A    
C29   C43   S    
C55   H40   S    
C2    C6    S    
C25   H12   S    
Cr6   O18   S    
Cr5   O15   S    
C43   O14   A    
C30   H14   S    
C3    C50   S    
C53   H30   S    
C52   H28   S    
C38   H19   S    
C1    C19   S    
C47   O24   A    
C34   C39   S    
C56   H36   S    
C24   C25   A    
Cr5   O16   S    
C60   H47   S    
Cr6   O10   S    
Cr4   O7    S    
C55   H39   S    
C8    C9    A    
C56   H38   S    
C48   C54   S    
Cr1   O25   S    
Cr2   O21   S    
C9    C40   S    
C34   O25   A    
C52   H27   S    
Cr3   O3    S    
C42   O11   A    
C54   H35   S    
Cr4   O13   S    
C37   C38   A    
C44   O17   A    
C31   C32   A    
C7    C13   A    
Cr3   O23   S    
C17   C18   A    
C49   H20   S    
C42   O6    A    
C33   C39   A    
C45   O3    A    
C52   H29   S    
C60   H48   S    
C4    C6    S    
C48   C49   S    
C46   O18   A    
Cr2   O26   S    
C58   H44   S    
C27   C57   S    
C32   C47   S    
C22   C24   A    
C5    C50   S    
C5    H21   S    
C16   C42   S    
C62   H54   S    
C57   H41   S    
Cr6   O17   S    
C41   O9    A    
C49   C58   S    
C36   C37   A    
C61   H55   S    
C27   C32   A    
C34   O26   A    
C14   C19   A    
C45   O2    A    
C61   C62   S    
C24   H11   S    
C60   H49   S    
C8    C51   S    
Cr4   O6    S    
C53   H31   S    
C59   C60   S    
Cr2   O20   S    
C4    C49   S    
Cr3   O4    S    
C2    C3    S    
C25   C26   A    
C12   O22   A    
C44   O16   A    
C11   C13   A    
C6    H23   S    
C30   C31   A    
C20   C26   A    
Cr5   O19   S    
C31   H15   S    
C33   C35   A    
C10   C52   S    
C5    H4    S    
Cr5   O8    S    
Cr2   O2    S    
C54   H34   S    
C12   O21   A    
C53   H32   S    
C3    C41   S    
C10   C11   A    
C4    C5    S    
C48   H1    S    
C20   C21   A    
C27   C28   A    
C58   H45   S    
C15   H7    S    
C14   C15   A    
Cr4   O19   S    
C55   C56   S    
Cr1   O5    S    
C57   H42   S    
C51   H26   S    
