data_mof_unit_14705.cif
_audit_creation_date              2012-12-10T16:54:32-0500
_audit_creation_method            fapswitch 2.2
_symmetry_space_group_name_H-M    P1
_symmetry_Int_Tables_number       1
_space_group_crystal_system       triclinic
_cell_length_a                    15.054116
_cell_length_b                    10.903147
_cell_length_c                    9.758297
_cell_angle_alpha                 90.418593
_cell_angle_beta                  89.911743
_cell_angle_gamma                 90.529688
_cell_volume                      1601.58700778

loop_
_atom_site_label
_atom_site_type_symbol
_atom_type_description
_atom_site_fract_x
_atom_site_fract_y
_atom_site_fract_z
_atom_type_partial_charge
C1    C     C_R   0.497190 0.265590 0.499120 0.765817
C2    C     C_R   0.907107 0.556726 0.400960 0.109310
C3    C     C_R   0.956483 0.347932 0.692266 -0.174373
C4    C     C_R   0.048872 0.351294 0.691501 -0.193844
C5    C     C_R   0.094438 0.422997 0.595985 0.108922
C6    C     C_R   0.047085 0.491123 0.498578 0.070783
C7    C     C_R   0.093280 0.561124 0.399610 0.105744
C8    C     C_R   0.046066 0.627886 0.302261 -0.195015
C9    C     C_R   0.953514 0.625705 0.302947 -0.184196
C10   C     C_R   0.186862 0.426851 0.595602 -0.222885
C11   C     C_R   0.232517 0.497306 0.499000 -0.067872
C12   C     C_R   0.329023 0.499776 0.499882 0.792343
C13   C     C_R   0.186007 0.563101 0.399987 -0.229786
C14   C     C_2   0.522908 0.933640 0.392806 -0.153240
C15   C     C_2   0.515166 0.866160 0.505886 -0.238329
C16   C     C_2   0.530249 0.067368 0.402271 -0.239351
C17   C     C_2   0.484506 0.133495 0.495146 0.364821
C18   C     C_2   0.431708 0.472129 0.927254 0.025028
C19   C     C_2   0.429098 0.503731 0.077746 -0.070676
C20   C     C_R   0.503973 0.734390 0.500791 0.808876
C21   C     C_R   0.671008 0.496173 0.499975 0.833659
C22   C     C_R   0.814811 0.555388 0.401787 -0.239004
C23   C     C_R   0.767902 0.488185 0.500110 -0.126037
C24   C     C_R   0.813403 0.417301 0.598362 -0.052636
C25   C     C_R   0.907328 0.417956 0.598379 0.026432
C26   C     C_R   0.953684 0.488823 0.499661 0.052757
Cu1   Cu    Cu3+1 0.500020 0.500020 0.638630 1.042928
Cu2   Cu    Cu3+1 0.499980 0.499980 0.361370 0.966041
H1    H     H_    0.779029 0.609189 0.327172 0.163135
H2    H     H_    0.520035 0.908254 0.606831 0.210088
H3    H     H_    0.572306 0.113055 0.327358 0.146494
H4    H     H_    0.365380 0.520226 0.126012 0.186116
H5    H     H_    0.555560 0.464336 0.108064 0.215441
H6    H     H_    0.924561 0.289556 0.766963 0.177315
H7    H     H_    0.084779 0.297364 0.765680 0.160059
H8    H     H_    0.223345 0.372830 0.668345 0.165188
H9    H     H_    0.222034 0.616959 0.324770 0.150630
H10   H     H_    0.080699 0.681837 0.225777 0.154966
H11   H     H_    0.918152 0.678112 0.226833 0.156284
H12   H     H_    0.526450 0.890901 0.292077 0.180628
N1    N     N_2   0.499020 0.498660 0.846910 -0.273571
N2    N     N_2   0.499000 0.498630 0.153040 -0.288014
O1    O     O_R   0.500020 0.321960 0.617040 -0.509804
O2    O     O_R   0.499980 0.321920 0.382900 -0.607532
O3    O     O_R   0.370270 0.499990 0.617090 -0.575987
O4    O     O_R   0.370240 0.499950 0.382940 -0.590167
O5    O     O_R   0.500020 0.678080 0.617100 -0.579139
O6    O     O_R   0.499980 0.678040 0.382960 -0.565067
O7    O     O_R   0.629760 0.500050 0.617060 -0.550518
O8    O     O_R   0.629730 0.500010 0.382910 -0.579929
O9    O     O_3   0.423450 0.078815 0.583029 -0.573383
C27   C     C_3   0.335759 0.104699 0.539865 0.098520
H13   H     H_    0.326281 0.203036 0.513664 0.111537
H14   H     H_    0.290343 0.084826 0.626738 0.165862
C28   C     C_3   0.306924 0.022175 0.420427 -0.813710
H15   H     H_    0.317601 0.924391 0.446329 0.257220
H16   H     H_    0.235253 0.035835 0.399286 0.212330
H17   H     H_    0.345017 0.045289 0.326491 0.246228
C29   C     C_2   0.357015 0.395284 0.879233 0.869980
O10   O     O_2   0.281228 0.420236 0.914354 -0.637081
O11   O     O_R   0.373348 0.288367 0.804665 -0.720981
H18   H     H_    0.317539 0.237259 0.791124 0.301211
C30   C     C_2   0.559990 0.590983 0.893421 1.012294
O12   O     O_2   0.639814 0.572833 0.886023 -0.576673
O13   O     O_R   0.528650 0.703227 0.943465 -0.769693
H19   H     H_    0.578492 0.760952 0.972335 0.318143
C31   C     C_2   0.762480 0.339390 0.695702 0.868253
O14   O     O_2   0.771161 0.354430 0.819282 -0.563267
O15   O     O_R   0.703071 0.250831 0.645128 -0.779358
H20   H     H_    0.671302 0.204668 0.720843 0.339733

loop_
_geom_bond_atom_site_label_1
_geom_bond_atom_site_label_2
_ccdc_geom_bond_type
C2    C22   A    
C11   C12   S    
C30   O13   S    
C6    C7    A    
C22   H1    S    
C8    C9    A    
C1    O1    A    
Cu1   N1    S    
C1    O2    A    
C13   H9    S    
C24   C31   S    
C19   N2    D    
C9    H11   S    
C28   H15   S    
H5    N2    S    
C17   O9    S    
C21   O7    A    
C6    C26   A    
C4    H7    S    
C29   O10   D    
C2    C26   A    
C20   O6    A    
C1    C17   S    
C27   H13   S    
C16   H3    S    
C11   C13   A    
Cu2   O4    S    
C15   C20   S    
C8    H10   S    
C5    C6    A    
C19   H4    S    
Cu2   N2    S    
C21   O8    A    
C27   C28   S    
C27   H14   S    
O13   H19   S    
O15   H20   S    
C28   H16   S    
C21   C23   S    
O11   H18   S    
C14   C16   S    
C29   O11   S    
C20   O5    A    
C7    C8    A    
Cu1   O3    S    
N1    C30   S    
C23   C24   A    
C5    C10   A    
C31   O14   D    
Cu1   O1    S    
C18   C29   S    
C7    C13   A    
C3    C25   A    
O9    C27   S    
C24   C25   A    
C15   H2    S    
C12   O4    A    
C18   C19   S    
C10   C11   A    
C18   N1    D    
Cu1   O5    S    
Cu1   Cu2   S    
C28   H17   S    
C14   C15   D    
C4    C5    A    
C14   H12   S    
C10   H8    S    
C3    H6    S    
C25   C26   A    
C30   O12   D    
C2    C9    A    
Cu2   O8    S    
Cu2   O2    S    
C22   C23   A    
Cu2   O6    S    
C3    C4    A    
Cu1   O7    S    
C16   C17   D    
C12   O3    A    
C31   O15   S    
