data_mof_unit_16489.cif
_audit_creation_date              2012-12-10T17:06:15-0500
_audit_creation_method            fapswitch 2.2
_symmetry_space_group_name_H-M    P1
_symmetry_Int_Tables_number       1
_space_group_crystal_system       triclinic
_cell_length_a                    10.616253
_cell_length_b                    11.003599
_cell_length_c                    9.952485
_cell_angle_alpha                 110.601632
_cell_angle_beta                  96.732241
_cell_angle_gamma                 94.078241
_cell_volume                      1072.840577

loop_
_atom_site_label
_atom_site_type_symbol
_atom_type_description
_atom_site_fract_x
_atom_site_fract_y
_atom_site_fract_z
_atom_type_partial_charge
C1    C     C_R   0.490876 0.254506 0.440795 0.856229
C2    C     C_3   0.123372 0.501131 0.506662 0.020354
C3    C     C_3   0.972503 0.624837 0.545440 -0.164807
C4    C     C_3   0.028078 0.376965 0.457630 -0.187514
C5    C     C_2   0.478360 0.114335 0.407784 -0.349013
C6    C     C_2   0.530662 0.885496 0.589795 -0.376508
C7    C     C_2   0.524604 0.067794 0.507624 -0.148241
C8    C     C_2   0.491054 0.931523 0.486905 -0.172542
C9    C     C_2   0.519425 0.502816 0.076421 0.008393
C10   C     C_2   0.491287 0.483215 0.918795 0.011816
C11   C     C_R   0.396310 0.370299 0.828902 0.224451
C12   C     C_R   0.511514 0.745604 0.558875 0.857511
C13   C     C_R   0.428176 0.243690 0.807476 -0.152216
C14   C     C_R   0.333751 0.135989 0.753425 -0.131083
C15   C     C_R   0.206460 0.153630 0.722319 -0.130964
C16   C     C_R   0.172977 0.279444 0.749939 -0.179316
C17   C     C_R   0.266958 0.387638 0.805073 -0.142448
C18   C     C_R   0.643213 0.579179 0.154028 0.223551
C19   C     C_R   0.755546 0.525088 0.115375 -0.158379
C20   C     C_R   0.872256 0.604754 0.153047 -0.157020
C21   C     C_R   0.879055 0.738071 0.235103 -0.133151
C22   C     C_R   0.767752 0.792985 0.272950 -0.171989
C23   C     C_R   0.259989 0.499928 0.502238 0.779968
C24   C     C_R   0.649970 0.714521 0.227816 -0.133586
C25   C     C_R   0.740168 0.500746 0.498240 0.774544
C26   C     C_3   0.058082 0.567314 0.638718 -0.155230
C27   C     C_3   0.942779 0.434462 0.364193 -0.133649
C28   C     C_3   0.960385 0.443099 0.589435 -0.157934
C29   C     C_3   0.040308 0.558982 0.413805 -0.134414
C30   C     C_3   0.877208 0.500550 0.495831 0.036497
Cu1   Cu    Cu3+1 0.522260 0.521810 0.644920 0.936855
Cu2   Cu    Cu3+1 0.477740 0.478190 0.355080 0.935448
H1    H     H_    0.920424 0.397026 0.660524 0.124925
H2    H     H_    0.424828 0.049482 0.304196 0.141683
H3    H     H_    0.618530 0.634007 0.929930 0.202837
H4    H     H_    0.357958 0.395247 0.079378 0.202198
H5    H     H_    0.525566 0.229420 0.838858 0.106187
H6    H     H_    0.358526 0.039231 0.739642 0.144993
H7    H     H_    0.133243 0.070347 0.681886 0.121974
H8    H     H_    0.073563 0.292858 0.734357 0.129041
H9    H     H_    0.238600 0.485048 0.836077 0.126354
H10   H     H_    0.751317 0.422600 0.048593 0.109114
H11   H     H_    0.957274 0.562933 0.117514 0.123782
H12   H     H_    0.081126 0.608388 0.346181 0.127533
H13   H     H_    0.969920 0.799298 0.265857 0.121134
H14   H     H_    0.771897 0.897221 0.330987 0.140490
H15   H     H_    0.563496 0.760007 0.241054 0.132083
H16   H     H_    0.107309 0.622276 0.751046 0.125374
H17   H     H_    0.893770 0.378452 0.252107 0.131949
H18   H     H_    0.946438 0.726083 0.579722 0.124586
H19   H     H_    0.054128 0.275711 0.423210 0.129659
H20   H     H_    0.431582 0.868199 0.386595 0.168042
H21   H     H_    0.584303 0.131708 0.607337 0.169346
H22   H     H_    0.582659 0.950232 0.694304 0.143100
N1    N     N_2   0.444270 0.445410 0.137360 -0.313727
N2    N     N_2   0.555730 0.554590 0.862640 -0.312789
O1    O     O_R   0.511880 0.332340 0.577400 -0.566299
O2    O     O_R   0.488120 0.667660 0.422600 -0.578109
O3    O     O_R   0.474280 0.295500 0.332650 -0.574848
O4    O     O_R   0.525720 0.704500 0.667350 -0.578746
O5    O     O_R   0.335640 0.518390 0.622350 -0.580377
O6    O     O_R   0.664360 0.481610 0.377650 -0.570836
O7    O     O_R   0.298050 0.481550 0.377590 -0.585346
O8    O     O_R   0.701950 0.518450 0.622410 -0.580918

loop_
_geom_bond_atom_site_label_1
_geom_bond_atom_site_label_2
_ccdc_geom_bond_type
Cu1   O4    S    
C3    C30   S    
C2    C4    S    
C9    N1    D    
C1    O1    A    
Cu1   N2    S    
C14   H6    S    
C10   N2    D    
C9    C10   S    
Cu1   O5    S    
Cu2   N1    S    
C13   H5    S    
C19   C20   A    
C19   H10   S    
Cu2   O2    S    
C12   O2    A    
C5    H2    S    
Cu1   O1    S    
C23   O7    A    
Cu2   O6    S    
C7    C8    S    
C2    C26   S    
H4    N1    S    
Cu1   Cu2   S    
C21   C22   A    
C20   C21   A    
C27   C30   S    
C11   C13   A    
C15   H7    S    
C16   H8    S    
C2    C29   S    
C18   C24   A    
C22   C24   A    
C28   C30   S    
C22   H14   S    
C3    H18   S    
C6    H22   S    
C28   H1    S    
C21   H13   S    
C25   O6    A    
C1    O3    A    
C29   H12   S    
C6    C12   S    
C1    C5    S    
C17   H9    S    
C27   C29   S    
C10   C11   S    
C7    H21   S    
C4    H19   S    
C15   C16   A    
C12   O4    A    
C9    C18   S    
C23   O5    A    
C20   H11   S    
C26   H16   S    
C2    C23   S    
C5    C7    D    
C18   C19   A    
C25   C30   S    
C3    C29   S    
C8    H20   S    
C14   C15   A    
C11   C17   A    
C6    C8    D    
C4    C27   S    
Cu2   O3    S    
C4    C28   S    
H3    N2    S    
C13   C14   A    
C24   H15   S    
C26   C28   S    
Cu1   O8    S    
C3    C26   S    
C27   H17   S    
Cu2   O7    S    
C16   C17   A    
C25   O8    A    
