data_mof_unit_63983.cif
_audit_creation_date              2012-12-10T18:51:01-0500
_audit_creation_method            fapswitch 2.2
_symmetry_space_group_name_H-M    P1
_symmetry_Int_Tables_number       1
_space_group_crystal_system       triclinic
_cell_length_a                    37.166991
_cell_length_b                    30.287849
_cell_length_c                    21.709702
_cell_angle_alpha                 90.315514
_cell_angle_beta                  125.480338
_cell_angle_gamma                 89.689623
_cell_volume                      19900.4912165

loop_
_atom_site_label
_atom_site_type_symbol
_atom_type_description
_atom_site_fract_x
_atom_site_fract_y
_atom_site_fract_z
_atom_type_partial_charge
C1    C     C_R   0.413719 0.500052 0.913723 0.864509
C2    C     C_R   0.586280 0.499948 0.086271 0.866487
C3    C     C_R   0.913725 0.000049 0.913768 0.865020
C4    C     C_R   0.086280 0.999948 0.086271 0.866410
C5    C     C_2   0.507480 0.498316 0.822479 -0.443225
C6    C     C_2   0.492152 0.501742 0.177107 -0.446558
C7    C     C_2   0.007482 0.998317 0.822481 -0.443679
C8    C     C_2   0.992200 0.001745 0.177156 -0.444814
C9    C     C_R   0.297012 0.462269 0.778617 -0.177934
C10   C     C_R   0.703198 0.461556 0.185808 -0.178161
C11   C     C_R   0.796953 0.962288 0.815140 -0.181725
C12   C     C_R   0.203198 0.961556 0.185808 -0.178131
C13   C     C_R   0.342807 0.462038 0.825019 -0.184823
C14   C     C_R   0.657396 0.461572 0.140134 -0.187339
C15   C     C_R   0.842745 0.962198 0.860776 -0.176084
C16   C     C_R   0.157396 0.961572 0.140134 -0.187279
C17   C     C_R   0.365760 0.500170 0.865612 -0.021052
C18   C     C_R   0.634240 0.499830 0.134373 -0.020862
C19   C     C_R   0.865776 0.000123 0.865816 -0.026305
C20   C     C_R   0.134240 0.999830 0.134373 -0.020825
C21   C     C_R   0.342603 0.538425 0.859858 -0.187947
C22   C     C_R   0.657195 0.537964 0.174954 -0.185192
C23   C     C_R   0.842712 0.038049 0.824636 -0.194325
C24   C     C_R   0.157195 0.037964 0.174954 -0.185189
C25   C     C_R   0.296801 0.538438 0.814183 -0.176432
C26   C     C_R   0.702990 0.537731 0.221357 -0.176627
C27   C     C_R   0.796910 0.037919 0.778284 -0.175449
C28   C     C_R   0.202990 0.037731 0.221357 -0.176614
C29   C     C_R   0.274012 0.500413 0.773389 0.109843
C30   C     C_R   0.725988 0.499582 0.226596 0.109873
C31   C     C_R   0.774033 0.000089 0.773706 0.109757
C32   C     C_R   0.225988 0.999583 0.226596 0.109899
C33   C     C_R   0.203041 0.512961 0.755749 -0.174161
C34   C     C_R   0.796640 0.512097 0.350463 -0.176215
C35   C     C_R   0.703317 0.012063 0.649665 -0.176055
C36   C     C_R   0.296640 0.012096 0.350463 -0.176193
C37   C     C_R   0.157249 0.512573 0.710242 -0.189680
C38   C     C_R   0.842447 0.511960 0.396285 -0.189550
C39   C     C_R   0.657508 0.011750 0.603747 -0.189651
C40   C     C_R   0.342447 0.011959 0.396286 -0.189563
C41   C     C_R   0.134351 0.500211 0.634015 -0.031332
C42   C     C_R   0.865648 0.499794 0.365983 -0.032411
C43   C     C_R   0.634360 0.999973 0.634080 -0.032723
C44   C     C_R   0.365648 0.999794 0.365983 -0.032385
C45   C     C_R   0.501939 0.499765 0.882915 0.974170
C46   C     C_R   0.497895 0.500229 0.116905 0.973921
C47   C     C_R   0.001940 0.999765 0.882915 0.974321
C48   C     C_R   0.997907 0.000230 0.116917 0.973978
C49   C     C_R   0.157548 0.488025 0.603714 -0.191403
C50   C     C_R   0.842754 0.487441 0.289752 -0.191353
C51   C     C_R   0.657316 0.988235 0.710461 -0.191334
C52   C     C_R   0.342754 0.987441 0.289752 -0.191356
C53   C     C_R   0.203356 0.487883 0.649533 -0.176431
C54   C     C_R   0.796961 0.487045 0.244242 -0.174623
C55   C     C_R   0.703105 0.988041 0.756075 -0.175199
C56   C     C_R   0.296961 0.987046 0.244242 -0.174613
C57   C     C_R   0.226093 0.500466 0.725480 0.111183
C58   C     C_R   0.773906 0.499526 0.274511 0.110586
C59   C     C_R   0.726109 0.000079 0.725760 0.110992
C60   C     C_R   0.273906 0.999526 0.274511 0.110635
C61   C     C_R   0.500051 0.413672 0.500041 0.926164
C62   C     C_R   0.000051 0.913672 0.500043 0.926300
C63   C     C_R   0.499787 0.501897 0.618876 0.959910
C64   C     C_R   0.500228 0.498412 0.381144 0.955351
C65   C     C_R   0.999787 0.001898 0.618876 0.960116
C66   C     C_R   0.000226 0.998396 0.381141 0.955369
C67   C     C_R   0.499958 0.586256 0.499632 0.987321
C68   C     C_R   0.999958 0.086256 0.499631 0.987277
C69   C     C_R   0.999891 0.413591 0.499726 0.885197
C70   C     C_R   0.499891 0.913591 0.499727 0.885171
C71   C     C_R   0.086401 0.500041 0.586293 0.874547
C72   C     C_R   0.913599 0.499975 0.413706 0.874332
C73   C     C_R   0.586404 0.999995 0.586301 0.874774
C74   C     C_R   0.413599 0.999974 0.413706 0.874382
C75   C     C_R   0.000006 0.586449 0.500146 0.884469
C76   C     C_R   0.500005 0.086449 0.500145 0.884607
C77   C     C_R   0.460852 0.296577 0.448315 0.496227
C78   C     C_R   0.539503 0.296571 0.552820 0.493913
C79   C     C_R   0.960842 0.796576 0.448377 0.496454
C80   C     C_R   0.039512 0.796570 0.552793 0.494281
C81   C     C_R   0.998745 0.274060 0.497390 0.260877
C82   C     C_R   0.498745 0.774061 0.497404 0.260779
C83   C     C_R   0.460830 0.342641 0.450145 -0.305390
C84   C     C_R   0.539479 0.342618 0.550512 -0.300258
C85   C     C_R   0.960821 0.842641 0.450203 -0.305124
C86   C     C_R   0.039487 0.842617 0.550478 -0.300095
C87   C     C_R   0.500136 0.365638 0.500223 -0.170470
C88   C     C_R   0.000136 0.865638 0.500231 -0.170521
C89   C     C_R   0.500182 0.273903 0.500722 -0.154170
C90   C     C_R   0.000182 0.773902 0.500741 -0.154261
C91   C     C_R   0.004881 0.703469 0.560933 -0.113618
C92   C     C_R   0.995514 0.703188 0.440466 -0.113421
C93   C     C_R   0.504803 0.203475 0.560855 -0.113844
C94   C     C_R   0.495589 0.203187 0.440516 -0.113656
C95   C     C_R   0.004723 0.657690 0.560760 -0.210529
C96   C     C_R   0.995499 0.657434 0.440289 -0.206507
C97   C     C_R   0.504643 0.157695 0.560686 -0.208816
C98   C     C_R   0.495574 0.157432 0.440344 -0.208158
C99   C     C_R   0.000061 0.634458 0.500423 -0.039993
C100  C     C_R   0.500059 0.134459 0.500417 -0.040296
C101  C     C_R   0.000226 0.726066 0.500764 0.240248
C102  C     C_R   0.500224 0.226068 0.500748 0.240290
C103  C     C_R   0.534771 0.703722 0.560022 0.379994
C104  C     C_R   0.464175 0.703045 0.435275 0.380056
C105  C     C_R   0.034771 0.203723 0.560012 0.379941
C106  C     C_R   0.964179 0.203044 0.435260 0.380097
C107  C     C_R   0.534157 0.657742 0.562161 0.367216
C108  C     C_R   0.465569 0.657021 0.434242 0.363580
C109  C     C_R   0.034157 0.157743 0.562155 0.367088
C110  C     C_R   0.965572 0.157020 0.434232 0.363156
C111  C     C_R   0.499869 0.634286 0.498715 -0.429111
C112  C     C_R   0.999869 0.134286 0.498710 -0.429122
C113  C     C_R   0.999796 0.296827 0.442673 -0.124822
C114  C     C_R   0.997853 0.296824 0.552641 -0.123601
C115  C     C_R   0.499771 0.796826 0.442659 -0.124857
C116  C     C_R   0.497878 0.796827 0.552678 -0.123543
C117  C     C_R   0.499190 0.726183 0.497546 -0.314450
C118  C     C_R   0.999192 0.226183 0.497532 -0.314617
C119  C     C_R   0.999445 0.365632 0.498869 -0.039111
C120  C     C_R   0.499445 0.865632 0.498874 -0.039135
C121  C     C_R   0.000135 0.342564 0.443345 -0.228611
C122  C     C_R   0.998217 0.342551 0.553452 -0.223354
C123  C     C_R   0.500109 0.842562 0.443325 -0.227040
C124  C     C_R   0.498244 0.842554 0.553487 -0.225022
C125  C     C_2   0.533313 0.523341 0.749577 -0.310155
C126  C     C_2   0.467102 0.476563 0.250992 -0.300074
C127  C     C_2   0.033309 0.023348 0.749573 -0.309972
C128  C     C_2   0.967024 0.976653 0.250902 -0.299079
C129  C     C_2   0.498378 0.508493 0.683259 -0.406604
C130  C     C_2   0.501700 0.492212 0.316840 -0.410178
C131  C     C_2   0.998377 0.008493 0.683258 -0.406863
C132  C     C_2   0.001686 0.992162 0.316822 -0.410330
C133  C     C_2   0.530033 0.529197 0.813866 0.588719
C134  C     C_2   0.470660 0.470317 0.187175 0.585002
C135  C     C_2   0.030027 0.029204 0.813859 0.587969
C136  C     C_2   0.970538 0.970423 0.187028 0.585896
H1    H     H_    0.563834 0.531649 0.756415 0.179612
H2    H     H_    0.436788 0.467534 0.244362 0.180060
H3    H     H_    0.063828 0.031664 0.756409 0.179676
H4    H     H_    0.936669 0.967759 0.244231 0.179957
H5    H     H_    0.139808 0.522247 0.734435 0.153927
H6    H     H_    0.859658 0.521726 0.455013 0.154326
H7    H     H_    0.640257 0.021051 0.544910 0.154548
H8    H     H_    0.359658 0.021725 0.455013 0.154295
H9    H     H_    0.140335 0.478250 0.544990 0.153243
H10   H     H_    0.860197 0.477780 0.265558 0.154625
H11   H     H_    0.639929 0.978903 0.734716 0.154816
H12   H     H_    0.360197 0.977781 0.265558 0.154596
H13   H     H_    0.221083 0.478390 0.625766 0.133481
H14   H     H_    0.779487 0.477519 0.185341 0.135186
H15   H     H_    0.720611 0.978968 0.815078 0.135196
H16   H     H_    0.279487 0.977519 0.185341 0.135150
H17   H     H_    0.000757 0.279138 0.400128 0.144250
H18   H     H_    0.996834 0.279126 0.594845 0.142849
H19   H     H_    0.500713 0.779135 0.400095 0.144370
H20   H     H_    0.496878 0.779131 0.594904 0.142895
H21   H     H_    0.430193 0.360373 0.412368 0.180178
H22   H     H_    0.570097 0.360315 0.588074 0.181172
H23   H     H_    0.930179 0.860372 0.412464 0.180183
H24   H     H_    0.070109 0.860315 0.588000 0.181191
H25   H     H_    0.008354 0.640567 0.607747 0.156660
H26   H     H_    0.991807 0.640130 0.393141 0.157919
H27   H     H_    0.508212 0.140575 0.607623 0.157415
H28   H     H_    0.491943 0.140127 0.393249 0.157589
H29   H     H_    0.001100 0.359770 0.400727 0.161507
H30   H     H_    0.997542 0.359740 0.596650 0.162222
H31   H     H_    0.501052 0.859766 0.400683 0.162011
H32   H     H_    0.497591 0.859745 0.596705 0.161778
H33   H     H_    0.494980 0.469015 0.786796 0.122818
H34   H     H_    0.503737 0.531515 0.211659 0.119200
H35   H     H_    0.994989 0.969014 0.786805 0.123808
H36   H     H_    0.003938 0.031451 0.211875 0.119104
H37   H     H_    0.279492 0.432661 0.747463 0.133711
H38   H     H_    0.720882 0.431872 0.189967 0.133841
H39   H     H_    0.779378 0.932840 0.811499 0.134370
H40   H     H_    0.220882 0.931872 0.189967 0.133816
H41   H     H_    0.360203 0.432261 0.828615 0.154667
H42   H     H_    0.640158 0.431891 0.108924 0.154751
H43   H     H_    0.860078 0.932692 0.892503 0.162791
H44   H     H_    0.140158 0.931891 0.108924 0.154768
H45   H     H_    0.359839 0.568105 0.891076 0.155183
H46   H     H_    0.639801 0.567744 0.171350 0.154718
H47   H     H_    0.860028 0.067561 0.827708 0.155695
H48   H     H_    0.139801 0.067744 0.171350 0.154705
H49   H     H_    0.279116 0.568120 0.810031 0.135479
H50   H     H_    0.720512 0.567340 0.252505 0.135633
H51   H     H_    0.779294 0.067359 0.746640 0.135865
H52   H     H_    0.220512 0.067340 0.252505 0.135587
H53   H     H_    0.220518 0.522496 0.814646 0.134840
H54   H     H_    0.778909 0.521578 0.374229 0.133786
H55   H     H_    0.721002 0.021180 0.625841 0.133838
H56   H     H_    0.278909 0.021578 0.374229 0.133750
O1    O     O_R   0.434530 0.536960 0.934530 -0.634966
O2    O     O_R   0.565470 0.536960 0.065470 -0.617606
O3    O     O_R   0.934530 0.036960 0.934530 -0.633586
O4    O     O_R   0.065470 0.036960 0.065470 -0.617645
O5    O     O_R   0.065470 0.500010 0.514410 -0.625157
O6    O     O_R   0.934530 0.500010 0.485590 -0.625651
O7    O     O_R   0.565470 0.000010 0.514410 -0.625664
O8    O     O_R   0.434530 0.000010 0.485590 -0.625643
O9    O     O_R   0.065460 0.500010 0.616540 -0.625535
O10   O     O_R   0.934540 0.500010 0.383460 -0.625465
O11   O     O_R   0.565460 0.000010 0.616540 -0.625434
O12   O     O_R   0.434540 0.000010 0.383460 -0.625441
O13   O     O_R   0.000010 0.565480 0.448930 -0.624603
O14   O     O_R   0.999990 0.565480 0.551070 -0.628213
O15   O     O_R   0.500010 0.065480 0.448930 -0.626490
O16   O     O_R   0.499990 0.065480 0.551070 -0.626309
O17   O     O_R   0.434530 0.463040 0.934530 -0.618317
O18   O     O_R   0.565470 0.463040 0.065470 -0.634921
O19   O     O_R   0.934530 0.963040 0.934530 -0.620181
O20   O     O_R   0.065470 0.963040 0.065470 -0.634875
O21   O     O_R   0.500010 0.536960 0.909550 -0.565354
O22   O     O_R   0.499990 0.536960 0.090450 -0.640281
O23   O     O_R   0.000010 0.036960 0.909550 -0.567565
O24   O     O_R   0.999990 0.036960 0.090450 -0.638226
O25   O     O_R   0.500010 0.463040 0.909550 -0.639002
O26   O     O_R   0.499990 0.463040 0.090450 -0.565013
O27   O     O_R   0.000010 0.963040 0.909550 -0.636684
O28   O     O_R   0.999990 0.963040 0.090450 -0.566875
O29   O     O_R   0.536960 0.434530 0.536970 -0.629901
O30   O     O_R   0.463040 0.434530 0.463030 -0.632892
O31   O     O_R   0.036960 0.934530 0.536970 -0.629905
O32   O     O_R   0.963040 0.934530 0.463030 -0.632845
O33   O     O_R   0.536950 0.500000 0.627420 -0.616973
O34   O     O_R   0.463050 0.500000 0.372580 -0.618247
O35   O     O_R   0.036950 0.000000 0.627420 -0.616963
O36   O     O_R   0.963050 0.000000 0.372580 -0.618300
O37   O     O_R   0.463030 0.500000 0.553490 -0.629646
O38   O     O_R   0.536970 0.500000 0.446510 -0.629578
O39   O     O_R   0.963030 1.000000 0.553490 -0.629675
O40   O     O_R   0.036970 0.000000 0.446510 -0.629549
O41   O     O_R   0.536960 0.565470 0.536960 -0.583900
O42   O     O_R   0.463040 0.565470 0.463040 -0.583201
O43   O     O_R   0.036960 0.065470 0.536960 -0.583871
O44   O     O_R   0.963040 0.065470 0.463040 -0.583334
O45   O     O_R   1.000000 0.434540 0.448940 -0.629214
O46   O     O_R   1.000000 0.434540 0.551060 -0.625305
O47   O     O_R   0.500000 0.934540 0.448940 -0.627399
O48   O     O_R   0.500000 0.934540 0.551060 -0.627206
Zn1   Zn    Zn3+2 0.500000 0.549350 0.000000 0.973961
Zn2   Zn    Zn3+2 0.000000 0.049350 0.000000 0.974422
Zn3   Zn    Zn3+2 0.500000 0.450640 0.000000 0.974373
Zn4   Zn    Zn3+2 0.000000 0.950640 0.000000 0.974132
Zn5   Zn    Zn3+2 0.549360 0.500000 0.549360 0.968255
Zn6   Zn    Zn3+2 0.450640 0.500000 0.450640 0.966665
Zn7   Zn    Zn3+2 0.049360 1.000000 0.549360 0.968319
Zn8   Zn    Zn3+2 0.950640 0.000000 0.450640 0.966567
Zn9   Zn    Zn3+2 0.000010 0.500010 0.431810 0.945979
Zn10  Zn    Zn3+2 0.999990 0.500010 0.568190 0.945947
Zn11  Zn    Zn3+2 0.500010 0.000010 0.431810 0.945652
Zn12  Zn    Zn3+2 0.499990 0.000010 0.568190 0.945892
O49   O     O_3   0.422120 0.273074 0.400648 -0.591901
C137  C     C_3   0.404936 0.282201 0.324541 -0.323105
H57   H     H_    0.430788 0.280239 0.313747 0.142073
H58   H     H_    0.388318 0.314934 0.307280 0.162489
H59   H     H_    0.379610 0.257000 0.288179 0.197504
O50   O     O_3   0.578289 0.273023 0.600514 -0.593574
C138  C     C_3   0.595410 0.282535 0.676581 -0.315827
H60   H     H_    0.569580 0.280653 0.687389 0.144919
H61   H     H_    0.611714 0.315341 0.693694 0.164573
H62   H     H_    0.620979 0.257496 0.713040 0.196559
O51   O     O_3   0.922103 0.773072 0.400764 -0.591625
C139  C     C_3   0.904858 0.782213 0.324635 -0.323857
H63   H     H_    0.930675 0.780281 0.313756 0.142083
H64   H     H_    0.888219 0.814937 0.307412 0.162348
H65   H     H_    0.879535 0.757003 0.288303 0.197356
O52   O     O_3   0.078305 0.773023 0.600438 -0.593194
C140  C     C_3   0.095481 0.782548 0.676525 -0.316914
H66   H     H_    0.069683 0.780690 0.687410 0.144948
H67   H     H_    0.111800 0.815347 0.693601 0.164788
H68   H     H_    0.121050 0.757501 0.712956 0.195803
H69   H     H_    0.008365 0.721302 0.607508 0.121416
H70   H     H_    0.992068 0.720790 0.393993 0.120850
H71   H     H_    0.508227 0.221310 0.607378 0.121437
H72   H     H_    0.492202 0.220786 0.394091 0.120683
O53   O     O_3   0.569081 0.726792 0.621277 -0.583502
C141  C     C_3   0.602819 0.732127 0.610721 -0.243021
H73   H     H_    0.590996 0.751314 0.558574 0.140756
H74   H     H_    0.616416 0.699688 0.608949 0.181312
H75   H     H_    0.630204 0.750985 0.659410 0.180914
O54   O     O_3   0.429736 0.725457 0.373214 -0.583068
C142  C     C_3   0.395423 0.730610 0.382494 -0.241996
H76   H     H_    0.406453 0.750184 0.434171 0.140385
H77   H     H_    0.382257 0.698086 0.384280 0.181566
H78   H     H_    0.367934 0.748988 0.333193 0.181142
O55   O     O_3   0.069079 0.226795 0.621267 -0.583008
C143  C     C_3   0.102820 0.232127 0.610718 -0.242574
H79   H     H_    0.091000 0.251312 0.558570 0.140057
H80   H     H_    0.116418 0.199687 0.608950 0.181072
H81   H     H_    0.130204 0.250986 0.659407 0.181475
O56   O     O_3   0.929744 0.225456 0.373192 -0.582758
C144  C     C_3   0.895424 0.230608 0.382456 -0.241889
H82   H     H_    0.906448 0.250180 0.434132 0.140050
H83   H     H_    0.882255 0.198084 0.384233 0.181382
H84   H     H_    0.867939 0.248987 0.333152 0.181318
H85   H     H_    0.466726 0.503632 0.674430 0.159862
H86   H     H_    0.533225 0.497742 0.325494 0.159286
H87   H     H_    0.966726 0.003627 0.674430 0.159807
H88   H     H_    0.033233 0.997571 0.325505 0.159235
O57   O     O_3   0.568644 0.635889 0.624960 -0.556302
C145  C     C_3   0.557768 0.630219 0.676708 -0.246767
H89   H     H_    0.527386 0.609971 0.652004 0.130187
H90   H     H_    0.553860 0.662546 0.696869 0.170760
H91   H     H_    0.585265 0.612262 0.726557 0.172042
O58   O     O_3   0.432166 0.634448 0.371005 -0.560176
C146  C     C_3   0.444882 0.628015 0.321740 -0.216471
H92   H     H_    0.475627 0.607888 0.348744 0.123441
H93   H     H_    0.449184 0.660077 0.301949 0.167065
H94   H     H_    0.418315 0.609612 0.271233 0.181947
O59   O     O_3   0.068642 0.135892 0.624957 -0.556250
C147  C     C_3   0.057764 0.130224 0.676702 -0.246649
H95   H     H_    0.027382 0.109976 0.651998 0.129925
H96   H     H_    0.053855 0.162551 0.696860 0.170812
H97   H     H_    0.085261 0.112267 0.726553 0.172142
O60   O     O_3   0.932171 0.134446 0.370995 -0.560374
C148  C     C_3   0.944893 0.128007 0.321738 -0.214830
H98   H     H_    0.975637 0.107878 0.348751 0.123147
H99   H     H_    0.949198 0.160067 0.301946 0.167242
H100  H     H_    0.918327 0.109603 0.271231 0.182532
O61   O     O_3   0.552654 0.561853 0.869239 -0.581060
C149  C     C_3   0.562816 0.598737 0.842715 -0.314899
H101  H     H_    0.533734 0.610186 0.786779 0.151528
H102  H     H_    0.591446 0.591361 0.840806 0.154273
H103  H     H_    0.572653 0.626328 0.883323 0.195177
O62   O     O_3   0.449100 0.436575 0.133696 -0.583025
C150  C     C_3   0.443216 0.398707 0.164469 -0.302419
H104  H     H_    0.415704 0.403679 0.170340 0.154939
H105  H     H_    0.474207 0.389122 0.219486 0.160415
H106  H     H_    0.433928 0.370757 0.124699 0.188443
O63   O     O_3   0.052639 0.061867 0.869223 -0.581006
C151  C     C_3   0.062786 0.098755 0.842685 -0.315371
H107  H     H_    0.033699 0.110193 0.786745 0.151126
H108  H     H_    0.091418 0.091390 0.840778 0.154591
H109  H     H_    0.072613 0.126350 0.883283 0.195252
O64   O     O_3   0.948775 0.936837 0.133288 -0.586139
C152  C     C_3   0.942492 0.899033 0.163660 -0.310645
H110  H     H_    0.914949 0.904247 0.169379 0.155387
H111  H     H_    0.973350 0.889194 0.218675 0.162885
H112  H     H_    0.933033 0.871155 0.123694 0.187265

loop_
_geom_bond_atom_site_label_1
_geom_bond_atom_site_label_2
_ccdc_geom_bond_type
C10   H38   S    
C149  H102  S    
C55   C59   A    
C24   H48   S    
C110  O60   S    
C152  H110  S    
O57   C145  S    
C77   C89   A    
O54   C142  S    
C95   C99   A    
C149  H103  S    
C96   C99   A    
C33   H53   S    
C31   C59   S    
C136  O64   S    
C9    C13   A    
C79   C90   A    
C80   C86   A    
C124  H32   S    
C11   C15   A    
C12   C16   A    
C45   O21   A    
C3    C19   S    
O62   C150  S    
C108  O58   S    
C106  C118  A    
O24   Zn2   S    
C103  C117  A    
C41   C49   A    
C78   C89   A    
C25   C29   A    
C115  C123  A    
C86   C88   A    
C27   C31   A    
C143  H81   S    
C28   C32   A    
C62   C88   S    
C69   C119  S    
C3    O3    A    
O60   C148  S    
C148  H100  S    
C19   C23   A    
C10   C30   A    
C83   H21   S    
C36   C40   A    
C16   C20   A    
C109  O59   S    
C42   C72   S    
O58   C146  S    
C27   H51   S    
C44   C74   S    
C25   H49   S    
O3    Zn2   S    
C74   O8    A    
C140  H67   S    
C105  C118  A    
C79   C85   A    
C152  H112  S    
C104  C117  A    
C4    O4    A    
O19   Zn4   S    
O64   C152  S    
C138  H61   S    
C55   H15   S    
C76   C100  S    
C108  C111  A    
C28   H52   S    
C50   C54   A    
C75   O13   A    
O41   Zn5   S    
C52   C56   A    
C49   C53   A    
C129  H85   S    
C96   H26   S    
C51   C55   A    
O14   Zn10  S    
C127  C131  D    
C116  H20   S    
C4    C20   S    
C125  C129  D    
C94   C102  A    
O61   C149  S    
C34   C58   A    
C126  C130  D    
C103  C107  A    
C114  H18   S    
O42   Zn6   S    
C76   O16   A    
C43   C73   S    
C15   H43   S    
O44   Zn8   S    
O20   Zn4   S    
C54   H14   S    
C5    C133  D    
C73   O11   A    
C130  H86   S    
C82   C115  A    
C95   H25   S    
O49   C137  S    
C92   C96   A    
C147  H95   S    
C65   O35   A    
C68   C112  S    
C61   O30   A    
C107  O57   S    
C70   C120  S    
C139  H63   S    
C81   C114  A    
C137  H58   S    
C9    H37   S    
C62   O32   A    
C12   H40   S    
C44   C52   A    
C52   H12   S    
O53   C141  S    
O46   Zn10  S    
C142  H78   S    
C53   H13   S    
C70   O48   A    
C91   C101  A    
C119  C121  A    
C3    O19   A    
C145  H90   S    
C1    O17   A    
C34   H54   S    
C77   O49   S    
C151  H107  S    
C10   C14   A    
C150  H105  S    
C84   H22   S    
C137  H59   S    
O31   Zn7   S    
C62   O31   A    
C143  H80   S    
C23   H47   S    
C144  H82   S    
C68   O43   A    
C106  O56   S    
C75   C99   S    
C126  C134  S    
C14   H42   S    
C42   C50   A    
C64   C130  S    
C26   C30   A    
C93   C97   A    
C97   C100  A    
C72   O10   A    
C6    H34   S    
C85   C88   A    
C21   C25   A    
O23   Zn2   S    
C35   H55   S    
C132  H88   S    
C36   H56   S    
O1    Zn1   S    
C24   C28   A    
O36   Zn8   S    
C121  H29   S    
C1    C17   S    
C147  H97   S    
C13   C17   A    
C146  H94   S    
O50   C138  S    
C128  H4    S    
C22   H46   S    
C64   O38   A    
C26   H50   S    
C74   O12   A    
C139  H65   S    
C37   C41   A    
C110  C112  A    
O35   Zn7   S    
C40   C44   A    
O10   Zn9   S    
C113  C121  A    
C66   O36   A    
C142  H76   S    
C141  H73   S    
O15   Zn11  S    
C16   H44   S    
C83   C87   A    
C67   O42   A    
C46   O26   A    
O2    Zn1   S    
C7    H35   S    
C8    C136  D    
C79   O51   S    
C151  H109  S    
O17   Zn3   S    
C80   O52   S    
O51   C139  S    
C15   C19   A    
C105  O55   S    
C37   H5    S    
C127  C135  S    
O18   Zn3   S    
C93   H71   S    
C144  H84   S    
C128  C136  S    
C94   H72   S    
C142  H77   S    
C94   C98   A    
O27   Zn4   S    
C35   C59   A    
C148  H99   S    
C105  C109  A    
C104  O54   S    
O12   Zn11  S    
O32   Zn8   S    
C67   O41   A    
C97   H27   S    
C141  H75   S    
C47   O23   A    
C135  O63   S    
C56   H16   S    
C69   O46   A    
C120  C123  A    
C63   O37   A    
C50   H10   S    
C149  H101  S    
C18   C22   A    
C140  H66   S    
C131  H87   S    
C107  C111  A    
C152  H111  S    
O34   Zn6   S    
C65   O39   A    
C146  H92   S    
C63   O33   A    
C53   C57   A    
C125  H1    S    
C5    C45   S    
C81   C118  S    
C33   C37   A    
C56   C60   A    
O4    Zn2   S    
C2    O2    A    
C7    C47   S    
O5    Zn9   S    
C35   C39   A    
O63   C151  S    
C8    C48   S    
C137  H57   S    
O6    Zn10  S    
O55   C143  S    
C78   O50   S    
C49   H9    S    
O38   Zn5   S    
C92   C101  A    
C67   C111  S    
C29   C57   S    
O48   Zn12  S    
C98   C100  A    
C32   C60   S    
C104  C108  A    
C133  O61   S    
C48   O28   A    
C116  C124  A    
C93   C102  A    
C11   H39   S    
O21   Zn1   S    
C82   C116  A    
C150  H104  S    
O8    Zn12  S    
O30   Zn6   S    
C43   C51   A    
C13   H41   S    
C147  H96   S    
C63   C129  S    
C61   O29   A    
O13   Zn9   S    
C72   O6    A    
O52   C140  S    
C139  H64   S    
C22   C26   A    
C140  H68   S    
C81   C113  A    
C134  O62   S    
C5    H33   S    
C85   H23   S    
C82   C117  S    
C86   H24   S    
C8    H36   S    
C17   C21   A    
O59   C147  S    
C48   O24   A    
C122  H30   S    
C89   C102  S    
C2    C18   S    
C45   O25   A    
C14   C18   A    
C1    O1    A    
O39   Zn8   S    
C84   C87   A    
C138  H62   S    
C64   O34   A    
C21   H45   S    
O28   Zn4   S    
C145  H91   S    
O22   Zn1   S    
O56   C144  S    
C151  H108  S    
C38   C42   A    
O16   Zn12  S    
C75   O14   A    
C77   C83   A    
C66   O40   A    
C68   O44   A    
C30   C58   S    
C20   C24   A    
C46   O22   A    
C23   C27   A    
C61   C87   S    
C76   O15   A    
C9    C29   A    
C123  H31   S    
C11   C31   A    
C12   C32   A    
C38   H6    S    
O45   Zn9   S    
C127  H3    S    
C128  C132  D    
O43   Zn7   S    
C65   C131  S    
C71   O5    A    
C66   C132  S    
O33   Zn5   S    
C2    O18   A    
O47   Zn11  S    
C91   H69   S    
C109  C112  A    
C39   C43   A    
C47   O27   A    
C146  H93   S    
O25   Zn3   S    
C90   C101  S    
C7    C135  D    
C51   H11   S    
O26   Zn3   S    
O37   Zn6   S    
O7    Zn11  S    
C39   H7    S    
C40   H8    S    
C141  H74   S    
C70   O47   A    
C103  O53   S    
C92   H70   S    
C138  H60   S    
C54   C58   A    
C119  C122  A    
C125  C133  S    
C71   O9    A    
C145  H89   S    
C126  H2    S    
C33   C57   A    
C6    C46   S    
C115  H19   S    
C34   C38   A    
C113  H17   S    
C36   C60   A    
C150  H106  S    
C98   H28   S    
C4    O20   A    
C41   C71   S    
O40   Zn7   S    
C143  H79   S    
C144  H83   S    
O29   Zn5   S    
C73   O7    A    
C80   C90   A    
C148  H98   S    
O11   Zn12  S    
C114  C122  A    
C78   C84   A    
C6    C134  D    
C91   C95   A    
C106  C110  A    
O9    Zn10  S    
C69   O45   A    
C120  C124  A    
