data_mof_unit_26708.cif
_audit_creation_date              2012-12-10T17:53:18-0500
_audit_creation_method            fapswitch 2.2
_symmetry_space_group_name_H-M    P1
_symmetry_Int_Tables_number       1
_space_group_crystal_system       triclinic
_cell_length_a                    23.379588
_cell_length_b                    10.697507
_cell_length_c                    9.966628
_cell_angle_alpha                 88.466903
_cell_angle_beta                  89.529127
_cell_angle_gamma                 93.092429
_cell_volume                      2488.04924

loop_
_atom_site_label
_atom_site_type_symbol
_atom_type_description
_atom_site_fract_x
_atom_site_fract_y
_atom_site_fract_z
_atom_type_partial_charge
C1    C     C_R   0.503795 0.260163 0.502419 0.892925
C2    C     C_R   0.972323 0.418469 0.270594 -0.160782
C3    C     C_R   0.032104 0.423861 0.269166 -0.037089
C4    C     C_R   0.062263 0.476551 0.379533 -0.076926
C5    C     C_R   0.031449 0.513007 0.494072 0.017512
C6    C     C_R   0.060702 0.557678 0.608997 -0.091404
C7    C     C_R   0.029107 0.602978 0.718298 -0.153508
C8    C     C_R   0.969365 0.591591 0.716683 -0.142716
C9    C     C_R   0.122083 0.496431 0.380307 0.624629
C10   C     C_R   0.120417 0.550150 0.611357 0.561782
C11   C     C_R   0.244720 0.632328 0.509078 0.025296
C12   C     C_R   0.389997 0.501239 0.500478 0.901086
C13   C     C_R   0.304511 0.626441 0.510679 0.005895
C14   C     C_R   0.328725 0.509569 0.501428 -0.085679
C15   C     C_R   0.294669 0.399581 0.492631 -0.241574
C16   C     C_R   0.235384 0.402468 0.494971 -0.012822
C17   C     C_R   0.210293 0.519700 0.500915 0.113800
C18   C     C_R   0.759176 0.401941 0.573284 0.179510
C19   C     C_R   0.699622 0.407626 0.576288 0.041425
C20   C     C_R   0.672951 0.498469 0.495310 -0.138801
C21   C     C_R   0.706671 0.579906 0.406476 -0.163302
C22   C     C_R   0.765985 0.571904 0.407091 -0.195733
C23   C     C_R   0.509270 0.739004 0.497757 0.861362
C24   C     C_R   0.791904 0.485825 0.490561 0.252608
C25   C     C_R   0.552695 0.121737 0.741723 -0.138458
C26   C     C_R   0.570206 0.052882 0.852693 0.126139
C27   C     C_R   0.580791 0.927500 0.839247 -0.230505
C28   C     C_R   0.575376 0.873034 0.713696 -0.013606
C29   C     C_R   0.545686 0.934535 0.608709 0.037461
C30   C     C_R   0.536978 0.063456 0.619613 0.024891
C31   C     C_R   0.514953 0.128265 0.505861 -0.114018
C32   C     C_R   0.507151 0.068215 0.384298 -0.233387
C33   C     C_R   0.514193 0.942808 0.373867 -0.021831
C34   C     C_R   0.610525 0.501271 0.498937 0.919893
C35   C     C_R   0.526038 0.872555 0.491472 -0.130008
C36   C     C_R   0.400025 0.416296 0.139026 0.158811
C37   C     C_R   0.347423 0.421824 0.073345 -0.279569
C38   C     C_R   0.347259 0.428899 0.933499 0.013982
C39   C     C_R   0.399817 0.419297 0.867005 0.033637
C40   C     C_R   0.449769 0.469595 0.929583 0.017120
C41   C     C_R   0.449714 0.469844 0.073584 0.116220
C42   C     C_R   0.549687 0.502086 0.067879 0.049232
C43   C     C_R   0.549037 0.511388 0.925968 -0.107582
C44   C     C_R   0.880492 0.533916 0.603348 0.549661
C45   C     C_R   0.881911 0.449342 0.384045 0.543466
C46   C     C_R   0.941777 0.457751 0.381617 -0.045715
C47   C     C_R   0.971221 0.504371 0.493944 -0.010583
C48   C     C_R   0.940306 0.542383 0.606159 -0.033925
H1    H     H_    0.949531 0.378630 0.186146 0.217439
H2    H     H_    0.793213 0.635294 0.344853 0.207876
H3    H     H_    0.494731 0.119145 0.294578 0.197872
H4    H     H_    0.553455 0.220516 0.756849 0.204421
H5    H     H_    0.601353 0.879062 0.921130 0.199726
H6    H     H_    0.307812 0.395781 0.126714 0.196035
H7    H     H_    0.588789 0.511198 0.870457 0.211264
H8    H     H_    0.945501 0.625509 0.800788 0.210214
H9    H     H_    0.314631 0.310793 0.487031 0.209159
N1    N     N_R   0.852842 0.487560 0.493626 -0.343567
N2    N     N_R   0.149388 0.524009 0.497103 -0.325350
N3    N     N_R   0.499460 0.498800 0.142780 -0.132955
N4    N     N_R   0.499440 0.498720 0.857170 -0.130657
O1    O     O_R   0.500000 0.316780 0.614690 -0.640491
O2    O     O_2   0.852796 0.403462 0.278086 -0.532243
O3    O     O_2   0.153216 0.489493 0.266481 -0.512451
O4    O     O_2   0.149571 0.565431 0.726546 -0.533723
O5    O     O_R   0.500000 0.316750 0.385360 -0.586705
O6    O     O_R   0.416160 0.499970 0.614690 -0.617824
O7    O     O_R   0.416150 0.499950 0.385360 -0.610679
O8    O     O_R   0.500000 0.683250 0.614640 -0.627465
O9    O     O_R   0.500000 0.683220 0.385310 -0.577578
O10   O     O_R   0.583850 0.500050 0.614640 -0.633332
O11   O     O_R   0.583840 0.500030 0.385310 -0.574363
O12   O     O_2   0.850025 0.573081 0.708439 -0.530816
Zn1   Zn    Zn3+2 0.500000 0.500020 0.653130 0.975208
Zn2   Zn    Zn3+2 0.500000 0.499980 0.346870 1.039549
N5    N     N_3   0.667084 0.316294 0.657606 -0.460814
H10   H     H_    0.646678 0.361319 0.734789 0.219391
H11   H     H_    0.636618 0.270670 0.597322 0.186542
C49   C     C_2   0.683427 0.678468 0.315700 1.009456
O13   O     O_2   0.635235 0.714390 0.331675 -0.565356
O14   O     O_R   0.717883 0.733003 0.212051 -0.762786
H12   H     H_    0.697713 0.798474 0.157443 0.367325
N6    N     N_3   0.582697 0.115119 0.975244 -0.420910
H13   H     H_    0.557315 0.071367 0.051340 0.223689
H14   H     H_    0.625586 0.103092 0.998819 0.209236
C50   C     C_2   0.619459 0.784776 0.682975 0.927425
O15   O     O_2   0.629833 0.700918 0.763066 -0.619972
O16   O     O_R   0.656040 0.812088 0.573912 -0.782888
H15   H     H_    0.691883 0.763192 0.579139 0.341418
C51   C     C_2   0.507671 0.891250 0.237500 0.922148
O17   O     O_2   0.544850 0.828547 0.190801 -0.582387
O18   O     O_R   0.460375 0.920251 0.159875 -0.812255
H16   H     H_    0.461341 0.882139 0.067866 0.348765
C52   C     C_2   0.603101 0.456846 0.123139 0.931145
O19   O     O_2   0.601840 0.358611 0.189017 -0.611965
O20   O     O_R   0.655597 0.515899 0.084120 -0.777883
H17   H     H_    0.689425 0.471229 0.121428 0.359430
C53   C     C_2   0.060058 0.361659 0.156571 1.028454
O21   O     O_2   0.097772 0.289162 0.178874 -0.561207
O22   O     O_R   0.040518 0.379739 0.025631 -0.762404
H18   H     H_    0.062293 0.331344 0.957636 0.364314
N7    N     N_3   0.405978 0.315651 0.234968 -0.373137
H19   H     H_    0.415625 0.236484 0.181601 0.201658
H20   H     H_    0.366857 0.293924 0.283877 0.186284
N8    N     N_3   0.294570 0.412010 0.862140 -0.387974
H21   H     H_    0.273181 0.329103 0.897558 0.227124
H22   H     H_    0.269148 0.486163 0.885005 0.246322
C54   C     C_2   0.404023 0.299692 0.796772 0.989799
O23   O     O_2   0.370362 0.270820 0.708216 -0.634766
O24   O     O_R   0.442512 0.213383 0.843149 -0.817382
H23   H     H_    0.437438 0.130289 0.796929 0.349932
C55   C     C_2   0.056042 0.672889 0.830561 1.070439
O25   O     O_2   0.041248 0.646504 0.946080 -0.521827
O26   O     O_R   0.096177 0.772896 0.806394 -0.705660
H24   H     H_    0.102160 0.794021 0.707380 0.319081
C56   C     C_2   0.218534 0.755859 0.514986 0.974324
O27   O     O_2   0.176383 0.776903 0.447895 -0.625595
O28   O     O_R   0.242100 0.848294 0.597843 -0.739839
H25   H     H_    0.220042 0.927304 0.595061 0.358471
N9    N     N_3   0.340364 0.739524 0.516298 -0.392123
H26   H     H_    0.366875 0.746057 0.431102 0.194804
H27   H     H_    0.366200 0.733897 0.601141 0.213226
C57   C     C_2   0.200963 0.281457 0.492034 0.981174
O29   O     O_2   0.153204 0.270748 0.543366 -0.613589
O30   O     O_R   0.223898 0.178176 0.432292 -0.781464
H28   H     H_    0.196322 0.101677 0.434835 0.367618
N10   N     N_3   0.787115 0.310788 0.653764 -0.419459
H29   H     H_    0.771354 0.221662 0.627018 0.213335
H30   H     H_    0.776342 0.323347 0.754357 0.233933

loop_
_geom_bond_atom_site_label_1
_geom_bond_atom_site_label_2
_ccdc_geom_bond_type
C26   N6    S    
C9    O3    S    
C23   O8    A    
C19   C20   A    
C1    O1    A    
C8    H8    S    
C55   O26   S    
O14   H12   S    
C57   O29   D    
C45   C46   A    
C56   O27   D    
O7    Zn2   S    
C5    C47   A    
C26   C27   A    
C29   C30   A    
N6    H13   S    
C18   C24   A    
C5    C6    A    
C19   N5    S    
C16   C57   S    
N5    H11   S    
C30   C31   A    
C50   O16   S    
C57   O30   S    
C15   C16   A    
C1    C31   S    
C54   O23   D    
C36   N7    S    
C18   C19   A    
O24   H23   S    
O18   H16   S    
O28   H25   S    
C11   C17   A    
C31   C32   A    
C44   N1    A    
C16   C17   A    
C22   H2    S    
C20   C34   S    
C21   C22   A    
C15   H9    S    
C23   O9    A    
C36   C41   A    
N7    H19   S    
N10   H30   S    
O11   Zn2   S    
C55   O25   D    
N9    H27   S    
O26   H24   S    
C39   C54   S    
C12   O6    A    
C45   N1    A    
C24   N1    S    
C7    C8    A    
N5    H10   S    
C42   N3    A    
C39   C40   A    
C49   O14   S    
C50   O15   D    
C25   C26   A    
C45   O2    S    
C2    C46   A    
C40   N4    A    
C9    N2    A    
C52   O20   S    
C8    C48   A    
C32   H3    S    
C37   C38   A    
C2    H1    S    
C18   N10   S    
N8    H22   S    
C51   O18   S    
C47   C48   A    
O20   H17   S    
C21   C49   S    
C1    O5    A    
O8    Zn1   S    
O6    Zn1   S    
O16   H15   S    
N7    H20   S    
C11   C56   S    
C17   N2    S    
C37   H6    S    
C43   H7    S    
C40   C41   A    
N6    H14   S    
C12   C14   S    
C52   O19   D    
C53   O22   S    
C28   C50   S    
O30   H28   S    
C22   C24   A    
C42   C43   A    
N10   H29   S    
C34   O11   A    
O9    Zn2   S    
C13   N9    S    
N9    H26   S    
C43   N4    A    
C7    C55   S    
C10   O4    S    
C25   C30   A    
C46   C47   A    
C28   C29   A    
C42   C52   S    
C41   N3    A    
C4    C5    A    
C6    C10   A    
O10   Zn1   S    
C27   H5    S    
C6    C7    A    
N4    Zn1   S    
N8    H21   S    
C29   C35   A    
N3    Zn2   S    
C23   C35   S    
C32   C33   A    
C12   O7    A    
C38   N8    S    
C2    C3    A    
C25   H4    S    
C33   C51   S    
C11   C13   A    
C3    C53   S    
C51   O17   D    
C38   C39   A    
C54   O24   S    
O5    Zn2   S    
O22   H18   S    
C33   C35   A    
C56   O28   S    
C10   N2    A    
C44   O12   S    
C49   O13   D    
C44   C48   A    
C20   C21   A    
C36   C37   A    
C53   O21   D    
C27   C28   A    
C14   C15   A    
O1    Zn1   S    
C4    C9    A    
C13   C14   A    
C34   O10   A    
C3    C4    A    
