data_mof_unit_25877.cif
_audit_creation_date              2012-12-10T21:26:08-0500
_audit_creation_method            fapswitch 2.2
_symmetry_space_group_name_H-M    P1
_symmetry_Int_Tables_number       1
_space_group_crystal_system       triclinic
_cell_length_a                    8.596699
_cell_length_b                    16.20951
_cell_length_c                    16.659891
_cell_angle_alpha                 87.272361
_cell_angle_beta                  92.26657
_cell_angle_gamma                 100.244555
_cell_volume                      2280.78676254

loop_
_atom_site_label
_atom_site_type_symbol
_atom_type_description
_atom_site_fract_x
_atom_site_fract_y
_atom_site_fract_z
_atom_type_partial_charge
C1    C     C_R   0.494613 0.488325 0.653104 0.962978
C2    C     C_R   0.364141 0.146629 0.439218 0.270491
C3    C     C_R   0.621820 0.765185 0.561750 0.336739
C4    C     C_R   0.378175 0.234814 0.438252 0.336697
C5    C     C_R   0.800067 0.521007 0.501935 0.944733
C6    C     C_R   0.199933 0.478993 0.498064 0.944753
C7    C     C_2   0.963198 0.528293 0.515927 0.114922
C8    C     C_2   0.036802 0.471707 0.484072 0.114894
C9    C     C_R   0.472096 0.479330 0.739103 -0.161511
C10   C     C_R   0.528005 0.520697 0.260908 -0.160626
C11   C     C_R   0.411728 0.541392 0.777322 -0.203606
C12   C     C_R   0.505389 0.511677 0.346897 0.962967
C13   C     C_R   0.588635 0.458715 0.222711 -0.203740
C14   C     C_R   0.394632 0.535738 0.859748 0.350218
C15   C     C_R   0.605845 0.464408 0.140294 0.349430
C16   C     C_R   0.440826 0.467925 0.904608 0.147997
C17   C     C_R   0.559555 0.532192 0.095429 0.149814
C18   C     C_R   0.487472 0.401756 0.866046 0.439248
C19   C     C_R   0.512713 0.598324 0.133960 0.439907
C20   C     C_R   0.505847 0.408486 0.782982 -0.296613
C21   C     C_R   0.494118 0.591511 0.217030 -0.298736
C22   C     C_3   0.421971 0.262800 0.900125 0.103958
C23   C     C_R   0.425725 0.757013 0.456953 0.379508
C24   C     C_3   0.463753 0.193073 0.956757 -0.648112
C25   C     C_3   0.575506 0.737856 0.101321 0.103470
C26   C     C_3   0.535451 0.807110 0.043575 -0.647541
C27   C     C_3   0.883661 0.927845 0.579362 0.155440
C28   C     C_3   0.004295 0.965289 0.642877 -0.671997
C29   C     C_3   0.116315 0.072174 0.420655 0.155606
C30   C     C_3   0.995698 0.034665 0.357160 -0.672338
C31   C     C_R   0.574284 0.242988 0.543043 0.379603
C32   C     C_R   0.435349 0.845109 0.453913 0.205157
C33   C     C_R   0.564669 0.154893 0.546080 0.205224
C34   C     C_R   0.539665 0.894485 0.507934 0.012634
C35   C     C_R   0.460341 0.105515 0.492064 0.012597
C36   C     C_R   0.635853 0.853370 0.560786 0.270538
Cl1   Cl    Cl    0.047064 0.600118 0.590119 -0.499539
Cl2   Cl    Cl    0.259505 0.283536 0.369464 -0.442708
Cl3   Cl    Cl    0.952936 0.399883 0.409879 -0.499632
Cl4   Cl    Cl    0.683120 0.385275 0.094605 -0.482831
Cl5   Cl    Cl    0.317584 0.614948 0.905440 -0.482097
Cl6   Cl    Cl    0.708262 0.302999 0.609415 -0.495609
Cl7   Cl    Cl    0.291745 0.697004 0.390580 -0.496123
Cl8   Cl    Cl    0.674768 0.108471 0.622085 -0.507947
Cl9   Cl    Cl    0.325280 0.891534 0.377898 -0.508370
Cl10  Cl    Cl    0.740490 0.716462 0.630539 -0.442633
H1    H     H_    0.621647 0.405471 0.256747 0.232126
H2    H     H_    0.698198 0.728880 0.089705 0.149352
H3    H     H_    0.570486 0.758539 0.163789 0.153379
H4    H     H_    0.414287 0.818357 0.054070 0.265722
H5    H     H_    0.621008 0.866009 0.053124 0.197866
H6    H     H_    0.541640 0.788874 0.980502 0.280719
H7    H     H_    0.871049 0.977578 0.532522 0.137175
H8    H     H_    0.930115 0.876094 0.551779 0.160358
H9    H     H_    0.019252 0.916899 0.690647 0.277425
H10   H     H_    0.120228 0.988181 0.615145 0.186233
H11   H     H_    0.964155 0.018720 0.670218 0.282516
H12   H     H_    0.378806 0.594662 0.743293 0.232141
H13   H     H_    0.069847 0.123951 0.448183 0.160426
H14   H     H_    0.128927 0.022484 0.467540 0.137090
H15   H     H_    0.035844 0.981199 0.329885 0.282531
H16   H     H_    0.879755 0.011808 0.384896 0.186220
H17   H     H_    0.980758 0.083008 0.309340 0.277405
H18   H     H_    0.551573 0.360069 0.753556 0.225262
H19   H     H_    0.447997 0.639780 0.246473 0.224594
H20   H     H_    0.421857 0.242008 0.837377 0.151980
H21   H     H_    0.301009 0.272801 0.914080 0.150496
H22   H     H_    0.462722 0.211434 0.020101 0.281451
H23   H     H_    0.376033 0.134709 0.948462 0.198013
H24   H     H_    0.583195 0.180809 0.943905 0.265149
N1    N     N_2   0.453431 0.468603 0.988662 -0.064935
N2    N     N_2   0.547009 0.531500 0.011374 -0.063914
N3    N     N_R   0.519180 0.718290 0.509780 -0.200685
N4    N     N_R   0.480820 0.281710 0.490220 -0.200717
N5    N     N_2   0.560882 0.984591 0.507865 -0.035665
N6    N     N_2   0.439124 0.015409 0.492134 -0.035578
O1    O     O_R   0.493140 0.422050 0.612640 -0.601744
O2    O     O_3   0.465251 0.663659 0.088636 -0.540033
O3    O     O_3   0.737382 0.898695 0.615745 -0.510638
O4    O     O_3   0.262598 0.101300 0.384267 -0.510674
O5    O     O_R   0.506860 0.577950 0.387360 -0.601737
O6    O     O_R   0.505450 0.562230 0.618920 -0.570510
O7    O     O_R   0.494550 0.437770 0.381080 -0.570538
O8    O     O_R   0.723530 0.446300 0.497600 -0.561694
O9    O     O_R   0.276470 0.553700 0.502400 -0.561652
O10   O     O_R   0.735850 0.586490 0.503880 -0.565292
O11   O     O_R   0.264150 0.413510 0.496120 -0.565285
O12   O     O_3   0.534833 0.336337 0.911242 -0.540077
Zn1   Zn    Zn3+2 0.491780 0.406400 0.495810 1.089277
Zn2   Zn    Zn3+2 0.508220 0.593600 0.504190 1.089251

loop_
_geom_bond_atom_site_label_1
_geom_bond_atom_site_label_2
_ccdc_geom_bond_type
C2    C35   A    
C31   Cl6   S    
C1    O1    A    
C32   Cl9   S    
C28   H10   S    
C27   H8    S    
C24   H24   S    
C7    C8    D    
C28   H11   S    
O1    Zn1   S    
C6    O9    A    
N4    Zn1   S    
C19   C21   A    
N3    Zn2   S    
C27   O3    S    
C26   H4    S    
C11   C14   A    
C23   Cl7   S    
C18   C20   A    
C22   H20   S    
C17   C19   A    
C29   H13   S    
C31   C33   A    
C8    Cl3   S    
C22   O12   S    
C11   H12   S    
C4    N4    A    
C34   N5    S    
C30   H17   S    
C16   N1    S    
C23   N3    A    
C28   H9    S    
C24   H23   S    
C10   C21   A    
O7    Zn1   S    
C35   N6    S    
C25   O2    S    
C1    C9    S    
O10   Zn2   S    
C13   H1    S    
C5    O8    A    
C31   N4    A    
C6    C8    S    
C25   C26   S    
C36   O3    S    
C18   O12   S    
C6    O11   A    
C12   O7    A    
C32   C34   A    
C20   H18   S    
C19   O2    S    
C2    C4    A    
N5    N6    D    
C29   C30   S    
C26   H6    S    
C9    C20   A    
C29   H14   S    
C15   Cl4   S    
C7    Cl1   S    
C9    C11   A    
C25   H2    S    
C10   C12   S    
C14   Cl5   S    
O5    Zn2   S    
C4    Cl2   S    
C13   C15   A    
C14   C16   A    
O8    Zn1   S    
C5    O10   A    
C5    C7    S    
C15   C17   A    
C21   H19   S    
C33   Cl8   S    
C10   C13   A    
O9    Zn2   S    
C27   H7    S    
C3    Cl10  S    
O6    Zn2   S    
C23   C32   A    
C30   H16   S    
C1    O6    A    
N1    N2    D    
C26   H5    S    
C29   O4    S    
C3    C36   A    
C33   C35   A    
C34   C36   A    
C12   O5    A    
C22   C24   S    
C3    N3    A    
C25   H3    S    
C22   H21   S    
C2    O4    S    
C24   H22   S    
C17   N2    S    
C16   C18   A    
C30   H15   S    
C27   C28   S    
O11   Zn1   S    
