data_mof_unit_58051.cif
_audit_creation_date              2012-12-11T15:55:50-0500
_audit_creation_method            fapswitch 2.2
_symmetry_space_group_name_H-M    P1
_symmetry_Int_Tables_number       1
_space_group_crystal_system       triclinic
_cell_length_a                    11.073889
_cell_length_b                    11.162677
_cell_length_c                    18.78206
_cell_angle_alpha                 91.031799
_cell_angle_beta                  90.926203
_cell_angle_gamma                 58.797862
_cell_volume                      1985.49471246

loop_
_atom_site_label
_atom_site_type_symbol
_atom_type_description
_atom_site_fract_x
_atom_site_fract_y
_atom_site_fract_z
_atom_type_partial_charge
C1    C     C_R   0.356315 0.772901 0.398134 0.538286
C2    C     C_R   0.631395 0.110050 0.164053 0.031209
C3    C     C_R   0.362593 0.320350 0.162475 0.021116
C4    C     C_R   0.489825 0.237775 0.272782 -0.149779
C5    C     C_R   0.492171 0.224610 0.198663 -0.025221
C6    C     C_R   0.102025 0.650430 0.336178 -0.044016
C7    C     C_R   0.983889 0.755725 0.371617 -0.107628
C8    C     C_R   0.646382 0.996786 0.120968 -0.096092
C9    C     C_R   0.770426 0.900012 0.088234 -0.129608
C10   C     C_R   0.244006 0.422094 0.200099 -0.137062
C11   C     C_R   0.240106 0.425602 0.273234 -0.063179
C12   C     C_R   0.386385 0.353725 0.387257 0.548153
C13   C     C_R   0.861155 0.750942 0.371708 -0.114817
C14   C     C_R   0.855109 0.647147 0.331896 -0.089416
C15   C     C_R   0.976748 0.540582 0.298329 -0.109871
C16   C     C_R   0.105431 0.535478 0.306240 0.014693
C17   C     C_R   0.366727 0.335968 0.310903 -0.001501
C18   C     C_R   0.870322 0.331532 0.184585 0.012611
C19   C     C_R   0.962381 0.231266 0.233421 -0.004024
C20   C     C_R   0.930159 0.243107 0.304613 -0.011619
C21   C     C_R   0.703367 0.448790 0.278896 -0.159915
C22   C     C_R   0.736482 0.437290 0.206676 -0.173840
C23   C     C_R   0.773273 0.380280 0.402505 0.540539
C24   C     C_3   0.113544 0.180300 0.248876 -0.279611
C25   C     C_3   0.078061 0.193417 0.327491 -0.288316
C26   C     C_R   0.805712 0.357733 0.328435 0.025758
C27   C     C_R   0.357995 0.828836 0.176585 0.001192
C28   C     C_R   0.460914 0.830572 0.221730 -0.013999
C29   C     C_R   0.452138 0.825881 0.296093 0.018098
C30   C     C_R   0.236974 0.830000 0.282650 -0.192239
C31   C     C_R   0.259823 0.805542 0.210711 -0.148585
C32   C     C_3   0.498755 0.939234 0.232556 -0.291449
C33   C     C_3   0.479860 0.939366 0.310703 -0.270817
C34   C     C_R   0.341658 0.773725 0.603200 0.548236
C35   C     C_R   0.340706 0.825298 0.326782 0.007114
C36   C     C_R   0.309949 0.342575 0.818461 -0.013117
C37   C     C_R   0.444118 0.283753 0.789268 -0.014835
C38   C     C_R   0.460940 0.288204 0.717892 0.017289
C39   C     C_R   0.210446 0.427055 0.699977 -0.183775
C40   C     C_R   0.190874 0.431384 0.774048 0.000200
C41   C     C_3   0.580468 0.146603 0.796683 -0.251167
C42   C     C_3   0.599054 0.153016 0.717212 -0.247439
C43   C     C_R   0.345652 0.345075 0.671259 0.000992
C44   C     C_R   0.848772 0.310510 0.830923 0.040734
C45   C     C_R   0.372451 0.352755 0.597184 0.566133
C46   C     C_R   0.710964 0.378471 0.805472 -0.019080
C47   C     C_R   0.685579 0.397547 0.733161 0.012281
C48   C     C_R   0.935286 0.267713 0.708864 -0.123701
C49   C     C_R   0.961216 0.251714 0.782192 -0.093387
C50   C     C_3   0.588794 0.520559 0.823016 -0.269123
C51   C     C_3   0.561191 0.541481 0.743439 -0.251463
C52   C     C_R   0.796261 0.347921 0.684471 0.045262
C53   C     C_R   0.253952 0.928943 0.814704 -0.028026
C54   C     C_R   0.154609 0.915946 0.774943 -0.014032
C55   C     C_R   0.175402 0.882154 0.703523 -0.004395
C56   C     C_R   0.762040 0.377746 0.610182 0.536842
C57   C     C_R   0.383646 0.900217 0.704801 0.008218
C58   C     C_R   0.361170 0.934089 0.777661 -0.169834
C59   C     C_3   0.089267 0.830720 0.787589 -0.226138
C60   C     C_3   0.111680 0.792507 0.709087 -0.250017
C61   C     C_R   0.297366 0.859270 0.668651 -0.012539
C62   C     C_R   0.914025 0.315160 0.111955 0.542348
C63   C     C_R   0.331037 0.293529 0.091252 0.559823
C64   C     C_R   0.309326 0.898021 0.105938 0.544269
C65   C     C_R   0.882781 0.308983 0.905258 0.524282
C66   C     C_R   0.295054 0.290823 0.886234 0.541181
C67   C     C_R   0.892230 0.901017 0.101952 0.071601
C68   C     C_R   0.238934 0.954592 0.891456 0.553187
C69   C     C_R   0.887885 0.999332 0.151589 -0.108695
C70   C     C_R   0.758527 0.102999 0.181582 -0.130091
Cr1   Cr    Cr6+3 0.601740 0.606840 0.505840 1.059415
Cr2   Cr    Cr6+3 0.291500 0.601560 0.495070 1.006218
Cr3   Cr    Cr6+3 0.606780 0.291630 0.499130 1.020888
Cr4   Cr    Cr6+3 0.062440 0.063060 0.008240 1.050296
Cr5   Cr    Cr6+3 0.062950 0.375000 0.998920 1.075144
Cr6   Cr    Cr6+3 0.374550 0.061770 0.992470 0.999213
H1    H     H_    0.587163 0.168686 0.301048 0.147951
H2    H     H_    0.771355 0.829368 0.401392 0.110798
H3    H     H_    0.756616 0.649764 0.326985 0.149099
H4    H     H_    0.969554 0.465053 0.265782 0.132188
H5    H     H_    0.600910 0.532003 0.296678 0.136330
H6    H     H_    0.660326 0.511283 0.169046 0.134733
H7    H     H_    0.147149 0.251815 0.230428 0.133915
H8    H     H_    0.181747 0.072444 0.230359 0.157752
H9    H     H_    0.126103 0.091906 0.355302 0.143427
H10   H     H_    0.089607 0.274751 0.356299 0.148367
H11   H     H_    0.136911 0.853984 0.303655 0.123045
H12   H     H_    0.771837 0.820336 0.053676 0.127087
H13   H     H_    0.180222 0.797874 0.182165 0.192245
H14   H     H_    0.420298 0.039577 0.207517 0.150635
H15   H     H_    0.613027 0.892316 0.223216 0.148244
H16   H     H_    0.576769 0.904715 0.342105 0.137807
H17   H     H_    0.386444 0.037392 0.330946 0.147695
H18   H     H_    0.121082 0.488432 0.664883 0.163713
H19   H     H_    0.568065 0.057600 0.810657 0.180741
H20   H     H_    0.659702 0.156117 0.829349 0.151234
H21   H     H_    0.689726 0.164290 0.703985 0.147587
H22   H     H_    0.987340 0.840269 0.398722 0.123146
H23   H     H_    0.594232 0.071841 0.685422 0.195781
H24   H     H_    0.022754 0.225857 0.672135 0.119850
H25   H     H_    0.068963 0.202990 0.801196 0.104740
H26   H     H_    0.621351 0.590967 0.847665 0.165721
H27   H     H_    0.504520 0.515531 0.851698 0.144938
H28   H     H_    0.460639 0.549837 0.726294 0.126146
H29   H     H_    0.580221 0.621903 0.721887 0.193420
H30   H     H_    0.432441 0.957267 0.806036 0.166213
H31   H     H_    0.976058 0.896595 0.802173 0.170268
H32   H     H_    0.154928 0.740252 0.822911 0.177139
H33   H     H_    0.189835 0.679985 0.699408 0.151450
H34   H     H_    0.011281 0.835243 0.678377 0.146972
H35   H     H_    0.981809 0.999662 0.166233 0.143768
H36   H     H_    0.756829 0.176955 0.219606 0.132389
H37   H     H_    0.197707 0.649418 0.332295 0.171720
H38   H     H_    0.564973 0.973674 0.112960 0.178169
H39   H     H_    0.146966 0.494553 0.172452 0.188742
O1    O     O_R   0.748670 0.497520 0.427970 -0.522932
O2    O     O_R   0.300170 0.471020 0.567120 -0.512257
O3    O     O_R   0.491630 0.259030 0.574940 -0.494630
O4    O     O_R   0.718640 0.304340 0.577850 -0.516754
O5    O     O_3   0.500010 0.500010 0.500020 -0.268578
O6    O     O_R   0.186620 0.923750 0.087000 -0.511658
O7    O     O_R   0.957350 0.194160 0.084660 -0.505442
O8    O     O_R   0.935120 0.407280 0.085350 -0.519131
O9    O     O_R   0.203800 0.365060 0.067090 -0.485986
O10   O     O_R   0.417470 0.174910 0.067830 -0.542132
O11   O     O_R   0.375160 0.946380 0.070880 -0.521291
O12   O     O_R   0.476470 0.723930 0.429450 -0.492380
O13   O     O_R   0.160500 0.919670 0.926690 -0.476396
O14   O     O_R   0.933140 0.190380 0.936050 -0.510096
O15   O     O_R   0.909010 0.403210 0.925030 -0.490496
O16   O     O_R   0.179590 0.361290 0.918480 -0.459672
O17   O     O_R   0.391360 0.170840 0.907510 -0.538981
O18   O     O_R   0.350950 0.942600 0.922260 -0.510219
O19   O     O_3   0.166650 0.166610 0.999880 -0.291411
O20   O     O_R   0.264730 0.744140 0.416740 -0.557755
O21   O     O_R   0.309440 0.472410 0.418220 -0.503562
O22   O     O_R   0.501630 0.260530 0.414310 -0.525787
O23   O     O_R   0.727920 0.305730 0.428950 -0.506984
O24   O     O_R   0.738670 0.496020 0.588600 -0.487733
O25   O     O_R   0.467190 0.722540 0.578350 -0.462004
O26   O     O_R   0.254720 0.742640 0.577370 -0.527303
C71   C     C_2   0.045694 0.526779 0.800826 0.582130
O27   O     O_2   0.026638 0.595876 0.855250 -0.504860
O28   O     O_R   0.929748 0.544649 0.761111 -0.697388
H40   H     H_    0.836567 0.611025 0.785085 0.363566
C72   C     C_2   0.506833 0.892871 0.671037 0.555845
O29   O     O_2   0.495228 0.942157 0.611916 -0.514378
O30   O     O_R   0.636860 0.828299 0.706823 -0.738197
H41   H     H_    0.715300 0.822785 0.677150 0.338577
C73   C     C_2   0.018561 0.796806 0.062757 0.585287
O31   O     O_2   0.115559 0.697370 0.093512 -0.568036
O32   O     O_R   0.018173 0.802817 0.988549 -0.652974
H42   H     H_    0.106241 0.721079 0.966772 0.357469

loop_
_geom_bond_atom_site_label_1
_geom_bond_atom_site_label_2
_ccdc_geom_bond_type
C44   C49   A    
C45   O3    A    
C7    C13   A    
C21   C26   A    
C34   O26   A    
Cr3   O4    S    
C7    H22   S    
C40   C71   S    
Cr6   O11   S    
C41   C42   S    
C23   O23   A    
C19   C20   A    
C65   O15   A    
C66   O16   A    
Cr5   O19   S    
C6    H37   S    
C53   C54   A    
C20   C26   A    
Cr1   O5    S    
Cr5   O8    S    
C22   H6    S    
C21   C22   A    
C68   O18   A    
C24   H7    S    
C38   C42   S    
C9    H12   S    
C49   H25   S    
C30   C31   A    
C36   C66   S    
Cr2   O21   S    
C32   H15   S    
C20   C25   S    
C64   O6    A    
C29   C33   S    
C18   C19   A    
C23   C26   S    
C4    H1    S    
C53   C68   S    
C36   C40   A    
C60   H33   S    
C23   O1    A    
C46   C47   A    
Cr4   O13   S    
Cr5   O16   S    
C8    C9    A    
C31   H13   S    
Cr2   O2    S    
C68   O13   A    
C72   O30   S    
Cr5   O15   S    
C8    H38   S    
C50   H27   S    
Cr3   O5    S    
C55   C60   S    
C67   C73   S    
Cr6   O10   S    
Cr1   O12   S    
C44   C65   S    
C62   O8    A    
C44   C46   A    
C63   O9    A    
C66   O17   A    
C54   C59   S    
C39   C43   A    
Cr2   O26   S    
C48   H24   S    
C32   H14   S    
C27   C31   A    
Cr5   O9    S    
C28   C32   S    
O30   H41   S    
C10   C11   A    
C42   H21   S    
C39   C40   A    
C56   O24   A    
Cr6   O19   S    
C18   C62   S    
Cr2   O20   S    
Cr1   O24   S    
C51   H28   S    
C34   C61   S    
C59   H31   S    
C33   H17   S    
C58   H30   S    
C12   C17   S    
C47   C52   A    
C9    C67   A    
C39   H18   S    
C37   C38   A    
C11   C16   S    
C65   O14   A    
C15   H4    S    
C14   C15   A    
C48   C52   A    
C51   H29   S    
Cr2   O5    S    
C25   H9    S    
C50   C51   S    
C14   H3    S    
C24   C25   S    
C43   C45   S    
C63   O10   A    
C70   H36   S    
C53   C58   A    
C4    C17   A    
C30   C35   A    
C48   C49   A    
Cr4   O7    S    
C21   H5    S    
C50   H26   S    
C64   O11   A    
C12   O21   A    
C56   O4    A    
C71   O28   S    
C33   H16   S    
C2    C5    S    
C55   C61   A    
C62   O7    A    
C1    C35   S    
C72   O29   D    
C45   O2    A    
C46   C50   S    
C54   C55   A    
C28   C29   A    
Cr1   O25   S    
Cr3   O3    S    
C18   C22   A    
C12   O22   A    
C2    C8    A    
C1    O12   A    
O28   H40   S    
C3    C5    A    
C11   C17   A    
C47   C51   S    
Cr6   O18   S    
C57   C61   A    
C6    C7    A    
C3    C63   S    
C29   C35   A    
C59   H32   S    
C57   C72   S    
C32   C33   S    
C19   C24   S    
C24   H8    S    
C38   C43   A    
C3    C10   A    
C2    C70   A    
C42   H23   S    
Cr6   O17   S    
C57   C58   A    
C41   H19   S    
Cr3   O22   S    
C4    C5    A    
Cr4   O19   S    
C34   O25   A    
C25   H10   S    
Cr1   O1    S    
C73   O32   S    
C37   C41   S    
C69   C70   A    
C69   H35   S    
C60   H34   S    
C27   C64   S    
C13   H2    S    
C6    C16   A    
C41   H20   S    
C52   C56   S    
C59   C60   S    
Cr4   O6    S    
O32   H42   S    
C36   C37   A    
Cr3   O23   S    
Cr4   O14   S    
C1    O20   A    
C27   C28   A    
C71   O27   D    
C73   O31   D    
C67   C69   A    
C30   H11   S    
C13   C14   A    
C10   H39   S    
C15   C16   A    
