data_mof_unit_36972.cif
_audit_creation_date              2013-03-05T15:50:11-0500
_audit_creation_method            fapswitch 2.2
_symmetry_space_group_name_H-M    P1
_symmetry_Int_Tables_number       1
_space_group_crystal_system       triclinic
_cell_length_a                    15.067565
_cell_length_b                    15.048666
_cell_length_c                    34.899777
_cell_angle_alpha                 90.239532
_cell_angle_beta                  89.864034
_cell_angle_gamma                 60.077051
_cell_volume                      6858.37912835

loop_
_atom_site_label
_atom_site_type_symbol
_atom_site_description
_atom_site_fract_x
_atom_site_fract_y
_atom_site_fract_z
_atom_type_partial_charge
O1    O     O_R   0.502070 0.323090 0.541280 -0.527811
O2    O     O_R   0.338340 0.520690 0.539540 -0.503180
C1    C     C_R   0.302400 0.608265 0.555725 0.540515
O3    O     O_R   0.324760 0.674070 0.543580 -0.529036
O4    O     O_R   0.522400 0.640310 0.540110 -0.491859
C2    C     C_R   0.609617 0.587091 0.555823 0.600061
O5    O     O_R   0.675940 0.500630 0.542210 -0.483579
O6    O     O_R   0.641790 0.337020 0.538150 -0.431920
C3    C     C_R   0.590160 0.300370 0.553473 0.570687
O7    O     O_R   0.500260 0.324550 0.456580 -0.458614
O8    O     O_R   0.336660 0.522040 0.461020 -0.495266
C4    C     C_R   0.298732 0.611036 0.446505 0.555865
O9    O     O_R   0.322940 0.675540 0.458880 -0.510326
O10   O     O_R   0.520720 0.641670 0.461580 -0.512721
C5    C     C_R   0.608623 0.591335 0.445795 0.561822
O11   O     O_R   0.674120 0.502090 0.457500 -0.440439
O12   O     O_R   0.640110 0.338380 0.459630 -0.454498
C6    C     C_R   0.589345 0.300213 0.444198 0.575318
Cr1   Cr    Cr6+3 0.421670 0.426920 0.499620 1.073450
Cr2   Cr    Cr6+3 0.427030 0.651190 0.500980 1.035232
Cr3   Cr    Cr6+3 0.651280 0.421870 0.499380 1.151208
O13   O     O_3   0.499990 0.499990 0.499990 -0.278653
N1    N     N_R   0.570218 0.674424 0.776902 -0.214332
N2    N     N_R   0.557346 0.670321 0.739344 -0.165447
C7    C     C_R   0.622907 0.614461 0.595185 -0.039175
C8    C     C_R   0.663452 0.536628 0.623136 0.200891
C9    C     C_R   0.654176 0.562576 0.662103 0.172759
C10   C     C_R   0.614722 0.665422 0.673284 -0.076643
C11   C     C_R   0.580208 0.743164 0.645460 0.174386
C12   C     C_R   0.579915 0.718075 0.606414 0.207734
N3    N     N_R   0.684166 0.713401 0.727506 -0.173173
N4    N     N_R   0.697546 0.716799 0.765026 -0.182937
C13   C     C_R   0.641938 0.695819 0.790286 0.370465
C14   C     C_R   0.614619 0.689060 0.714068 0.434716
C15   C     C_R   0.765254 0.621554 0.844787 0.192778
C16   C     C_R   0.787789 0.629571 0.883131 -0.160844
C17   C     C_R   0.611181 0.761160 0.895066 0.244868
C18   C     C_R   0.588534 0.754824 0.856674 -0.147978
C19   C     C_R   0.665256 0.688439 0.831221 -0.029946
C20   C     C_R   0.712971 0.701697 0.908026 -0.017946
H1    H     H_    0.865478 0.582043 0.893160 0.175736
H2    H     H_    0.511650 0.805342 0.846367 0.142516
C21   C     C_R   0.728091 0.069284 0.904633 -0.048395
C22   C     C_R   0.634633 0.118424 0.884482 0.250227
C23   C     C_R   0.634413 0.145444 0.845851 0.167561
C24   C     C_R   0.728005 0.116978 0.826896 -0.002231
C25   C     C_R   0.820219 0.072551 0.847225 0.250451
C26   C     C_R   0.819279 0.049013 0.885932 -0.185836
C27   C     C_R   0.761287 0.184849 0.765922 0.310670
C28   C     C_R   0.754878 0.192063 0.725971 -0.112786
C29   C     C_R   0.710874 0.143934 0.705164 0.025429
C30   C     C_R   0.681791 0.079656 0.723863 0.309221
C31   C     C_R   0.696612 0.065921 0.763600 -0.111145
C32   C     C_R   0.730107 0.122530 0.784825 0.064319
C33   C     C_R   0.577002 0.227013 0.655240 0.334937
C34   C     C_R   0.549689 0.264128 0.617771 -0.141240
C35   C     C_R   0.728872 0.187173 0.599539 0.266217
C36   C     C_R   0.756662 0.153248 0.637222 -0.126163
C37   C     C_R   0.681486 0.173467 0.665022 0.061528
C38   C     C_R   0.624388 0.246030 0.590082 0.011552
H3    H     H_    0.891728 0.007327 0.900625 0.176080
H4    H     H_    0.836942 0.111983 0.644894 0.123002
H5    H     H_    0.778747 0.240160 0.711457 0.188036
H6    H     H_    0.678237 0.014100 0.778501 0.121523
H7    H     H_    0.469747 0.313058 0.610766 0.130108
C39   C     C_R   0.089620 0.698295 0.910558 0.023206
C40   C     C_R   0.124625 0.755551 0.889812 0.268791
C41   C     C_R   0.141263 0.739660 0.850244 -0.082354
C42   C     C_R   0.128087 0.664568 0.831372 -0.009618
C43   C     C_R   0.106253 0.599516 0.852984 -0.110008
C44   C     C_R   0.086965 0.616300 0.892151 -0.159810
C45   C     C_R   0.177305 0.563636 0.770106 -0.058446
C46   C     C_R   0.181570 0.558039 0.729849 0.309093
C47   C     C_R   0.143771 0.649376 0.708453 0.043322
C48   C     C_R   0.091492 0.744248 0.727633 -0.153709
C49   C     C_R   0.084616 0.748870 0.767414 -0.117453
C50   C     C_R   0.130658 0.658688 0.789064 -0.006694
C51   C     C_R   0.204887 0.712307 0.654360 -0.114422
C52   C     C_R   0.241713 0.703761 0.617191 -0.115543
C53   C     C_R   0.204987 0.567238 0.604115 -0.133544
C54   C     C_R   0.165383 0.577737 0.641207 -0.072593
C55   C     C_R   0.168905 0.647582 0.667207 0.060023
C56   C     C_R   0.245660 0.628695 0.592145 0.023845
H8    H     H_    0.062351 0.569650 0.907336 0.155394
H9    H     H_    0.134594 0.529450 0.649756 0.138415
H10   H     H_    0.213596 0.493503 0.786525 0.141279
H11   H     H_    0.161047 0.788733 0.834105 0.127088
H12   H     H_    0.058399 0.815365 0.711789 0.123731
H13   H     H_    0.044578 0.823318 0.781295 0.156030
H14   H     H_    0.209475 0.766400 0.673662 0.122128
H15   H     H_    0.272691 0.752128 0.608900 0.122997
H16   H     H_    0.097225 0.539996 0.839220 0.176503
H17   H     H_    0.206178 0.509459 0.585173 0.119820
C57   C     C_R   0.700924 0.717047 0.093786 -0.042158
C58   C     C_R   0.603122 0.787543 0.108831 0.216063
C59   C     C_R   0.582190 0.786615 0.148412 0.195826
C60   C     C_R   0.661856 0.720632 0.173045 0.025802
C61   C     C_R   0.755375 0.644425 0.157924 0.267366
C62   C     C_R   0.773626 0.639485 0.118392 0.123960
C63   C     C_R   0.607628 0.668367 0.231784 0.266736
C64   C     C_R   0.602369 0.664805 0.271972 0.164706
C65   C     C_R   0.644146 0.711797 0.295069 -0.066963
C66   C     C_R   0.683297 0.770454 0.278398 0.194679
C67   C     C_R   0.684665 0.777790 0.238082 0.209194
C68   C     C_R   0.648775 0.724726 0.215066 0.029997
C69   C     C_R   0.553002 0.749467 0.356806 -0.075244
C70   C     C_R   0.544030 0.718286 0.393240 -0.153064
C71   C     C_R   0.724661 0.588815 0.392412 0.280030
C72   C     C_R   0.732875 0.618433 0.354801 0.318817
C73   C     C_R   0.645582 0.697342 0.336815 0.074849
C74   C     C_R   0.627721 0.634177 0.410646 -0.014323
H18   H     H_    0.485517 0.809719 0.342995 0.191587
H19   H     H_    0.469133 0.756477 0.406710 0.171097
C75   C     C_R   0.697166 0.106431 0.087115 -0.063179
C76   C     C_R   0.768606 0.129958 0.103699 0.189972
C77   C     C_R   0.753967 0.167365 0.141628 0.172576
C78   C     C_R   0.668152 0.180504 0.162908 -0.035664
C79   C     C_R   0.591107 0.168491 0.144599 0.186007
C80   C     C_R   0.605170 0.135285 0.106540 -0.152915
C81   C     C_R   0.579807 0.281702 0.221890 -0.048847
C82   C     C_R   0.572526 0.292799 0.261897 0.225392
C83   C     C_R   0.653275 0.218926 0.284711 0.010399
C84   C     C_R   0.739227 0.137418 0.267145 -0.094979
C85   C     C_R   0.744314 0.126469 0.227523 -0.015551
C86   C     C_R   0.664317 0.197854 0.204696 0.049500
C87   C     C_R   0.721811 0.227450 0.348463 -0.082153
C88   C     C_R   0.712987 0.236827 0.388410 0.180321
C89   C     C_R   0.558172 0.223001 0.385034 0.181645
C90   C     C_R   0.569074 0.213731 0.345172 -0.026482
C91   C     C_R   0.647300 0.221356 0.326777 -0.017242
C92   C     C_R   0.624630 0.245259 0.406736 -0.005924
H20   H     H_    0.546673 0.124377 0.093139 0.159524
H21   H     H_    0.515996 0.201152 0.328294 0.203369
H22   H     H_    0.518882 0.337569 0.204053 0.180374
H23   H     H_    0.800917 0.079983 0.284288 0.176153
H24   H     H_    0.809697 0.060688 0.214637 0.175425
H25   H     H_    0.786283 0.226263 0.334130 0.167973
C93   C     C_R   0.077817 0.708769 0.095506 -0.042560
C94   C     C_R   0.066221 0.632450 0.114304 -0.121957
C95   C     C_R   0.088169 0.612713 0.153081 0.278743
C96   C     C_R   0.118792 0.672443 0.174045 0.017086
C97   C     C_R   0.136846 0.744031 0.155089 -0.074157
C98   C     C_R   0.121064 0.759769 0.115610 0.199374
C99   C     C_R   0.223371 0.646221 0.232990 0.227724
C100  C     C_R   0.229171 0.647365 0.272811 0.014058
C101  C     C_R   0.147593 0.659021 0.295619 0.042788
C102  C     C_R   0.059091 0.669347 0.278696 -0.033581
C103  C     C_R   0.051068 0.671396 0.238908 -0.061610
C104  C     C_R   0.132497 0.660763 0.215794 0.012490
C105  C     C_R   0.178032 0.571170 0.358700 0.195219
C106  C     C_R   0.215517 0.560826 0.395984 -0.104236
C107  C     C_R   0.206964 0.725404 0.391843 -0.105025
C108  C     C_R   0.167062 0.739189 0.354851 0.185738
C109  C     C_R   0.158253 0.658889 0.337338 -0.009293
C110  C     C_R   0.236147 0.634431 0.411732 -0.063668
H26   H     H_    0.035502 0.590469 0.099462 0.182732
H27   H     H_    0.298523 0.636402 0.286225 0.213901
H28   H     H_    0.996529 0.676778 0.296309 0.193814
H29   H     H_    0.980557 0.683265 0.226146 0.218659
H30   H     H_    0.236098 0.491018 0.411509 0.191357
H31   H     H_    0.163907 0.787472 0.171190 0.203727
H32   H     H_    0.219250 0.784238 0.404469 0.184594
O14   O     O_R   0.017640 0.822070 0.960410 -0.450128
O15   O     O_R   0.822000 0.989470 0.960340 -0.505579
C111  C     C_R   0.736588 0.024809 0.943064 0.573758
O16   O     O_R   0.666920 0.007430 0.955290 -0.482587
O17   O     O_R   0.694410 0.812480 0.959650 -0.457967
C112  C     C_R   0.745678 0.722908 0.945125 0.555956
O18   O     O_R   0.831550 0.656950 0.958960 -0.523774
O19   O     O_R   0.998590 0.685540 0.963930 -0.519201
C113  C     C_R   0.038117 0.734225 0.948189 0.554292
O20   O     O_R   0.008220 0.831200 0.045060 -0.424056
O21   O     O_R   0.813270 0.997930 0.038810 -0.438355
C114  C     C_R   0.722429 0.040439 0.052463 0.564564
O22   O     O_R   0.657500 0.016560 0.039940 -0.541845
O23   O     O_R   0.685680 0.820940 0.038120 -0.473195
C115  C     C_R   0.734535 0.733864 0.055358 0.580978
O24   O     O_R   0.822130 0.666070 0.043610 -0.481987
O25   O     O_R   0.989860 0.694000 0.042400 -0.517127
C116  C     C_R   0.027774 0.744217 0.057955 0.567025
Cr4   Cr    Cr6+3 0.910810 0.908010 0.001130 1.153340
Cr5   Cr    Cr6+3 0.682800 0.909890 0.998370 1.060984
Cr6   Cr    Cr6+3 0.908370 0.682300 0.002180 1.048673
O26   O     O_3   0.833990 0.833400 0.000560 -0.286473
O27   O     O_3   0.703911 0.434800 0.612630 -0.507019
C117  C     C_3   0.811691 0.388137 0.612237 -0.053815
H33   H     H_    0.842317 0.384606 0.641485 0.144697
H34   H     H_    0.838195 0.428204 0.592488 0.110119
H35   H     H_    0.844465 0.308266 0.601719 0.186107
O28   O     O_3   0.800990 0.236260 0.786052 -0.547780
C118  C     C_3   0.720158 0.334575 0.795887 -0.043748
H36   H     H_    0.666041 0.329745 0.816299 0.142090
H37   H     H_    0.678709 0.379048 0.770092 0.203824
H38   H     H_    0.752690 0.377274 0.810569 0.188486
N5    N     N_R   0.539408 0.200803 0.825615 0.094890
O29   O     O_R   0.486646 0.156487 0.817276 -0.382495
O30   O     O_R   0.515191 0.287926 0.809665 -0.330111
O31   O     O_3   0.641918 0.030022 0.702168 -0.537121
C119  C     C_3   0.560586 0.027357 0.721391 -0.038322
H39   H     H_    0.514462 0.095774 0.739971 0.153733
H40   H     H_    0.590337 0.955713 0.738244 0.159552
H41   H     H_    0.507066 0.027952 0.699692 0.207953
O32   O     O_3   0.504224 0.252721 0.684151 -0.511916
C120  C     C_3   0.419445 0.244790 0.671530 -0.076828
H42   H     H_    0.441967 0.177752 0.652143 0.124646
H43   H     H_    0.362368 0.316959 0.657515 0.149457
H44   H     H_    0.381968 0.233615 0.696947 0.151936
O33   O     O_3   0.911539 0.039246 0.827338 -0.548421
C121  C     C_3   0.972164 0.074487 0.845338 -0.068494
H45   H     H_    0.016080 0.023616 0.869400 0.147962
H46   H     H_    0.926147 0.155588 0.855327 0.150436
H47   H     H_    0.028686 0.071300 0.824151 0.161347
O34   O     O_3   0.541107 0.793821 0.578732 -0.517948
C122  C     C_3   0.432917 0.846703 0.580356 -0.042730
H48   H     H_    0.401124 0.794482 0.584078 0.108822
H49   H     H_    0.403113 0.887557 0.552885 0.142713
H50   H     H_    0.403898 0.905308 0.603521 0.170190
O35   O     O_3   0.804267 0.168835 0.572962 -0.564467
C123  C     C_3   0.827565 0.078762 0.552519 -0.090457
H51   H     H_    0.888506 0.063376 0.531258 0.174817
H52   H     H_    0.759888 0.087689 0.536433 0.135161
H53   H     H_    0.857303 0.011382 0.571898 0.118129
O36   O     O_3   0.130227 0.835542 0.906969 -0.560071
C124  C     C_3   0.234088 0.804301 0.913220 -0.109634
H54   H     H_    0.276498 0.790679 0.885691 0.107278
H55   H     H_    0.271651 0.734688 0.931507 0.132914
H56   H     H_    0.238364 0.866668 0.928630 0.157447
O37   O     O_3   0.231180 0.463640 0.711538 -0.566326
C125  C     C_3   0.178351 0.409957 0.719144 -0.127431
H57   H     H_    0.093486 0.460225 0.717912 0.139303
H58   H     H_    0.201441 0.371030 0.747314 0.158065
H59   H     H_    0.199199 0.350046 0.696832 0.118160
O38   O     O_3   0.528131 0.856564 0.084478 -0.516754
C126  C     C_3   0.512000 0.955972 0.091735 -0.010849
H60   H     H_    0.584094 0.955786 0.098947 0.113181
H61   H     H_    0.454919 0.994281 0.115014 0.202098
H62   H     H_    0.480400 0.002506 0.065498 0.151631
N6    N     N_R   0.869631 0.558116 0.104511 -0.205118
O39   O     O_R   0.872706 0.486756 0.082427 -0.000001
O40   O     O_R   0.872706 0.486756 0.082427 -0.000001
O41   O     O_3   0.826948 0.573526 0.336365 -0.547964
C127  C     C_3   0.845906 0.480642 0.319181 -0.029899
H63   H     H_    0.795490 0.495347 0.294043 0.114364
H64   H     H_    0.837374 0.429043 0.339759 0.199393
H65   H     H_    0.926093 0.439639 0.308552 0.184759
N7    N     N_R   0.552474 0.615359 0.289494 0.081560
O42   O     O_R   0.453097 0.662054 0.290617 -0.263044
O43   O     O_R   0.605075 0.532014 0.309198 -0.359887
O44   O     O_3   0.566560 0.624025 0.207898 -0.494472
C128  C     C_3   0.612034 0.517383 0.214193 -0.008385
H66   H     H_    0.560222 0.501490 0.231829 0.218401
H67   H     H_    0.689036 0.482136 0.227750 0.088375
H68   H     H_    0.621141 0.478830 0.186131 0.166071
N8    N     N_R   0.480649 0.852555 0.163189 0.110099
O45   O     O_R   0.466366 0.905743 0.194398 -0.263776
O46   O     O_R   0.401516 0.861421 0.144880 -0.197300
N9    N     N_R   0.721851 0.821926 0.302215 0.124662
O47   O     O_R   0.805555 0.821780 0.292895 -0.298674
O48   O     O_R   0.672045 0.871616 0.332824 -0.300376
N10   N     N_R   0.683328 0.483465 0.690173 0.087328
O49   O     O_R   0.645614 0.422381 0.688592 -0.321701
O50   O     O_R   0.752065 0.468143 0.715775 -0.313246
N11   N     N_R   0.716969 0.843561 0.220676 0.111351
O51   O     O_R   0.786483 0.809232 0.193848 -0.345496
O52   O     O_R   0.676927 0.938534 0.231850 -0.239321
O53   O     O_3   0.832659 0.581081 0.182906 -0.531547
C129  C     C_3   0.852462 0.479066 0.180025 -0.035328
H69   H     H_    0.924718 0.432023 0.163816 0.195461
H70   H     H_    0.789798 0.471130 0.166468 0.135970
H71   H     H_    0.864044 0.446803 0.209299 0.139891
O54   O     O_3   0.809773 0.509913 0.409692 -0.505046
C130  C     C_3   0.860062 0.552642 0.430219 -0.045970
H72   H     H_    0.809785 0.606026 0.453076 0.098630
H73   H     H_    0.887546 0.592439 0.410783 0.164974
H74   H     H_    0.928140 0.489685 0.444367 0.169587
N12   N     N_R   0.853241 0.120481 0.081644 0.120207
O55   O     O_R   0.944733 0.043565 0.087291 -0.216692
O56   O     O_R   0.836337 0.178931 0.052031 -0.306854
N13   N     N_R   0.482682 0.377900 0.278573 0.081939
O57   O     O_R   0.395320 0.416232 0.260968 -0.292363
O58   O     O_R   0.488533 0.422317 0.309762 -0.285905
N14   N     N_R   0.540461 0.847932 0.656876 0.075209
O59   O     O_R   0.469855 0.887901 0.683249 -0.400516
O60   O     O_R   0.565625 0.906547 0.637991 -0.296521
N15   N     N_R   0.825328 0.193158 0.158480 0.091515
O61   O     O_R   0.792142 0.279774 0.176652 -0.392962
O62   O     O_R   0.922951 0.127318 0.158297 -0.231932
N16   N     N_R   0.794010 0.237621 0.409791 0.107203
O63   O     O_R   0.827422 0.183798 0.440937 -0.314249
O64   O     O_R   0.844888 0.278520 0.395301 -0.286271
N17   N     N_R   0.501893 0.181845 0.164782 0.080918
O65   O     O_R   0.413881 0.223215 0.147497 -0.345775
O66   O     O_R   0.511148 0.137605 0.197648 -0.242603
N18   N     N_R   0.479514 0.209771 0.402875 0.102163
O67   O     O_R   0.500206 0.153627 0.433423 -0.291007
O68   O     O_R   0.392722 0.240006 0.385578 -0.258041
N19   N     N_R   0.151079 0.825365 0.096564 0.131365
O69   O     O_R   0.194742 0.799687 0.062991 -0.284728
O70   O     O_R   0.153146 0.899167 0.115379 -0.209027
N20   N     N_R   0.140625 0.832586 0.334721 0.095730
O71   O     O_R   0.066117 0.870123 0.310097 -0.298757
O72   O     O_R   0.184367 0.885752 0.343535 -0.279393
N21   N     N_R   0.844547 0.546372 0.820202 0.090416
O73   O     O_R   0.940507 0.509011 0.828964 -0.371979
O74   O     O_R   0.821910 0.505822 0.791566 -0.284266
N22   N     N_R   0.310225 0.629409 0.210482 0.078289
O75   O     O_R   0.358154 0.678812 0.218578 -0.215368
O76   O     O_R   0.342861 0.563579 0.182310 -0.328906
O77   O     O_3   0.071001 0.540879 0.170974 -0.548959
C131  C     C_3   0.161162 0.444756 0.168157 -0.032757
H75   H     H_    0.226369 0.445537 0.182799 0.187869
H76   H     H_    0.181133 0.420200 0.137721 0.143076
H77   H     H_    0.147912 0.386931 0.182677 0.185344
N23   N     N_R   0.167236 0.488966 0.342463 0.097039
O78   O     O_R   0.137010 0.438609 0.363991 -0.284714
O79   O     O_R   0.200451 0.454842 0.308043 -0.258149
O80   O     O_3   0.534895 0.832473 0.918649 -0.573240
C132  C     C_3   0.491848 0.782544 0.939154 -0.099069
H78   H     H_    0.549130 0.722848 0.958438 0.139363
H79   H     H_    0.458858 0.748233 0.919474 0.100244
H80   H     H_    0.428571 0.840001 0.957361 0.157522
O81   O     O_3   0.543172 0.145893 0.903181 -0.527582
C133  C     C_3   0.511823 0.073087 0.895557 -0.006048
H81   H     H_    0.567609 0.004363 0.878678 0.116690
H82   H     H_    0.437588 0.111183 0.880296 0.176525
H83   H     H_    0.497834 0.045733 0.923152 0.174187

loop_
_geom_bond_atom_site_label_1
_geom_bond_atom_site_label_2
_geom_bond_distance
_ccdc_geom_bond_type
C87   C88   1.399989 A    
C33   C37   1.408381 A    
O36   C124  1.409284 S    
C75   C76   1.414374 A    
N21   O74   1.300631 A    
C89   N18   1.436993 S    
N14   O59   1.301177 A    
C93   C98   1.415124 A    
O4    C2    1.275227 A    
C31   H6    1.083211 S    
C2    C7    1.475037 S    
C69   C70   1.386612 A    
C128  H67   1.114477 S    
O54   C130  1.409147 S    
C71   C72   1.412827 A    
C70   H19   1.083045 S    
N8    O46   1.301300 A    
N6    O39   1.301016 A    
N17   O65   1.301300 A    
C130  H72   1.113643 S    
C127  H64   1.113140 S    
C106  C110  1.401708 A    
C132  H80   1.109281 S    
C60   C68   1.476175 S    
C128  H68   1.108949 S    
C119  H39   1.114418 S    
Cr3   O13   1.976076 S    
C120  H42   1.114625 S    
C126  H61   1.109126 S    
C53   C56   1.404610 A    
C64   N7    1.432664 S    
O37   C125  1.413891 S    
C100  C101  1.397982 A    
N6    O40   1.301015 A    
C127  H65   1.109195 S    
C29   C30   1.407264 A    
C95   C96   1.402166 A    
C81   C86   1.400261 A    
C99   C100  1.393252 A    
N23   O78   1.301405 A    
O34   C122  1.413807 S    
N2    C14   1.357809 A    
C126  H62   1.109194 S    
O23   Cr5   1.917299 S    
Cr6   O26   1.971948 S    
C125  H57   1.115654 S    
C100  H27   1.081339 S    
C51   C55   1.404633 A    
C22   O81   1.386018 S    
N21   O73   1.301034 A    
C101  C109  1.465086 S    
C33   O32   1.392292 S    
N22   O75   1.299607 A    
C103  C104  1.407132 A    
C40   O36   1.382137 S    
C90   H21   1.083856 S    
C35   O35   1.381006 S    
C112  O18   1.272081 A    
C21   C22   1.412289 A    
C1    C56   1.473187 S    
C79   N17   1.438167 S    
C30   O31   1.391852 S    
N20   O71   1.301499 A    
C101  C102  1.396059 A    
N11   O52   1.301032 A    
C10   C11   1.409615 A    
O9    Cr2   2.048161 S    
O2    Cr1   1.927781 S    
C51   C52   1.389658 A    
C71   O54   1.381536 S    
C82   N13   1.439373 S    
C45   C46   1.406507 A    
C94   C95   1.391571 A    
C2    O5    1.269905 A    
C71   C74   1.414802 A    
C118  H38   1.108308 S    
C59   N8    1.438318 S    
N15   O62   1.300502 A    
C12   O34   1.386156 S    
C117  H35   1.107504 S    
C130  H74   1.109218 S    
C8    O27   1.384371 S    
N13   O58   1.300980 A    
C42   C43   1.400643 A    
C88   C92   1.422798 A    
N5    O29   1.299948 A    
O3    Cr2   2.039357 S    
C75   C114  1.484693 S    
C61   C62   1.400575 A    
C53   H17   1.083020 S    
C105  N23   1.439887 S    
O28   C118  1.409306 S    
O14   Cr4   2.044518 S    
C42   C50   1.478078 S    
C102  C103  1.393273 A    
O16   Cr5   2.035204 S    
C89   C90   1.398665 A    
C97   H31   1.083186 S    
C60   C61   1.399439 A    
C84   C85   1.389291 A    
O4    Cr2   1.932136 S    
C31   C32   1.398062 A    
O44   C128  1.414152 S    
C132  H78   1.113182 S    
N17   O66   1.301081 A    
O7    C6    1.275969 A    
C17   C20   1.412474 A    
C18   C19   1.399654 A    
C129  H71   1.109255 S    
C122  H49   1.109181 S    
O19   C113  1.276883 A    
C76   C77   1.409379 A    
N9    O47   1.300681 A    
C114  O22   1.276219 A    
C132  H79   1.113594 S    
O15   Cr4   1.925352 S    
C62   N6    1.432180 S    
O20   Cr4   2.042983 S    
C11   N14   1.433446 S    
C119  H41   1.104386 S    
N1    N2    1.331179 A    
O38   C126  1.412404 S    
C52   H15   1.082334 S    
C75   C80   1.400763 A    
C49   H13   1.083313 S    
C39   C40   1.414786 A    
C133  H81   1.117313 S    
C28   H5    1.082461 S    
N19   O70   1.301611 A    
C121  H45   1.109854 S    
C39   C113  1.479864 S    
C63   O44   1.390266 S    
O33   C121  1.411924 S    
C27   O28   1.381734 S    
C7    C8    1.412518 A    
C84   H23   1.083717 S    
C133  H82   1.108640 S    
N16   O64   1.301432 A    
C11   C12   1.413113 A    
N22   O76   1.301319 A    
N3    N4    1.330000 A    
C15   N21   1.442952 S    
O12   C6    1.281677 A    
N3    C14   1.355018 A    
C77   N15   1.438784 S    
C1    O3    1.268663 A    
C89   C92   1.422911 A    
C30   C31   1.404883 A    
C90   C91   1.395166 A    
N7    O42   1.298918 A    
C70   C74   1.406758 A    
C120  H43   1.110391 S    
N10   O49   1.300709 A    
C129  H69   1.109618 S    
N14   O60   1.301368 A    
C117  H33   1.111744 S    
C78   C79   1.414412 A    
C123  H53   1.113656 S    
C35   C36   1.400174 A    
C61   O53   1.388928 S    
C63   C64   1.407368 A    
C81   H22   1.083586 S    
C65   C66   1.409920 A    
Cr5   O26   1.976321 S    
O21   Cr4   1.926707 S    
C4    O9    1.269764 A    
C130  H73   1.113464 S    
C27   C28   1.398773 A    
C41   H11   1.083406 S    
O10   C5    1.274226 A    
C107  C108  1.397405 A    
C102  H28   1.081867 S    
C78   C86   1.476407 S    
C54   H9    1.081549 S    
N5    O30   1.300659 A    
C36   H4    1.083518 S    
C33   C34   1.403824 A    
C87   H25   1.083746 S    
C64   C65   1.409916 A    
C46   C47   1.414514 A    
C15   C16   1.400836 A    
C124  H54   1.112739 S    
C16   H1    1.083082 S    
N11   O51   1.300802 A    
C23   C24   1.414320 A    
C51   H14   1.083055 S    
C9    N10   1.435277 S    
O8    Cr1   1.923414 S    
C8    C9    1.400566 A    
O11   Cr3   2.034428 S    
C25   O33   1.389521 S    
O15   C111  1.275202 A    
N18   O67   1.301531 A    
O17   Cr5   1.931833 S    
C87   C91   1.395648 A    
N23   O79   1.301042 A    
C121  H47   1.109186 S    
C67   C68   1.415234 A    
C76   N12   1.432476 S    
C99   N22   1.434167 S    
C41   C42   1.402992 A    
C17   O80   1.381202 S    
N13   O57   1.300853 A    
C43   C44   1.392385 A    
O14   C113  1.269799 A    
O24   Cr6   2.037021 S    
O20   C116  1.274179 A    
O81   C133  1.417321 S    
C10   C14   1.465493 S    
C6    C92   1.491606 S    
C47   C55   1.484291 S    
N20   O72   1.301587 A    
C131  H76   1.113389 S    
C21   C111  1.478522 S    
O1    Cr1   2.040041 S    
C85   H24   1.083481 S    
C40   C41   1.400972 A    
O10   Cr2   1.921328 S    
O1    C3    1.269195 A    
O17   C112  1.274455 A    
C35   C38   1.409138 A    
C36   C37   1.401932 A    
O21   C114  1.276921 A    
C118  H36   1.111044 S    
C57   C115  1.498883 S    
C15   C19   1.414857 A    
C118  H37   1.113144 S    
N15   O61   1.301001 A    
C34   H7    1.082071 S    
C39   C44   1.406956 A    
C120  H44   1.107960 S    
C72   O41   1.384267 S    
O7    Cr1   2.045476 S    
C24   C32   1.472152 S    
C28   C29   1.403027 A    
C13   C19   1.463386 S    
C82   C83   1.418699 A    
Cr2   O13   1.972460 S    
C65   C73   1.472577 S    
C126  H60   1.114295 S    
C117  H34   1.113761 S    
C124  H56   1.109282 S    
C123  H51   1.109291 S    
C22   C23   1.409347 A    
C98   N19   1.438840 S    
Cr4   O26   1.974163 S    
C7    C12   1.410823 A    
C24   C25   1.400992 A    
C88   N16   1.437417 S    
C43   H16   1.081564 S    
C80   H20   1.080852 S    
C46   O37   1.384180 S    
C45   H10   1.082601 S    
C18   H2    1.083975 S    
C125  H59   1.108292 S    
C3    C38   1.469075 S    
N4    C13   1.357066 A    
N8    O45   1.301157 A    
C128  H66   1.109370 S    
C125  H58   1.110785 S    
O5    Cr3   2.050446 S    
C72   C73   1.409257 A    
N16   O63   1.301625 A    
C52   C56   1.402922 A    
C129  H70   1.115256 S    
O27   C117  1.411638 S    
C57   C58   1.415880 A    
O12   Cr3   1.931035 S    
C93   C94   1.409230 A    
O25   C116  1.273138 A    
C34   C38   1.400568 A    
C115  O24   1.265490 A    
C131  H75   1.113748 S    
C66   C67   1.412689 A    
C119  H40   1.110694 S    
C97   C98   1.399668 A    
C103  H29   1.082882 S    
C107  H32   1.083037 S    
C5    O11   1.276200 A    
C131  H77   1.109242 S    
C23   N5    1.435952 S    
O32   C120  1.412210 S    
C111  O16   1.274798 A    
O19   Cr6   1.921040 S    
N19   O69   1.301501 A    
C58   C59   1.417870 A    
C48   C49   1.390814 A    
C93   C116  1.476432 S    
C54   C55   1.406709 A    
O35   C123  1.409101 S    
C96   C104  1.470989 S    
C69   H18   1.083758 S    
O77   C131  1.409005 S    
C63   C68   1.403957 A    
C17   C18   1.397987 A    
C94   H26   1.082504 S    
O41   C127  1.410267 S    
C27   C32   1.406678 A    
C77   C78   1.414817 A    
C79   C80   1.395104 A    
O18   Cr6   2.050487 S    
C95   O77   1.381780 S    
O6    C3    1.274318 A    
N1    C13   1.355680 A    
C107  C110  1.399364 A    
O31   C119  1.413812 S    
C67   N11   1.438686 S    
C21   C26   1.408108 A    
C66   N9    1.440199 S    
C127  H63   1.110304 S    
O25   Cr6   1.931503 S    
N7    O43   1.300849 A    
C47   C48   1.405149 A    
C5    C74   1.480965 S    
C16   C20   1.403760 A    
Cr1   O13   1.973951 S    
C49   C50   1.402039 A    
N10   O50   1.300797 A    
C122  H48   1.113597 S    
N9    O48   1.301216 A    
C45   C50   1.401683 A    
C123  H52   1.113435 S    
C25   C26   1.399768 A    
C59   C60   1.410256 A    
O6    Cr3   1.917640 S    
N12   O55   1.300102 A    
O22   Cr5   2.047994 S    
C108  N20   1.441755 S    
O23   C115  1.291214 A    
N12   O56   1.300788 A    
C29   C37   1.472406 S    
C4    C110  1.470962 S    
C44   H8    1.083109 S    
C69   C73   1.395385 A    
C99   C104  1.410305 A    
C105  C106  1.397797 A    
C53   C54   1.399055 A    
C122  H50   1.109151 S    
C124  H55   1.113931 S    
O8    C4    1.272921 A    
C133  H83   1.109191 S    
C106  H30   1.083460 S    
O2    C1    1.276512 A    
C108  C109  1.416220 A    
C96   C97   1.403481 A    
N18   O68   1.301543 A    
C26   H3    1.081792 S    
C57   C62   1.427239 A    
C121  H46   1.114847 S    
O80   C132  1.409204 S    
C20   C112  1.475662 S    
O53   C129  1.413323 S    
C48   H12   1.083332 S    
C105  C109  1.415616 A    
C9    C10   1.406038 A    
C81   C82   1.403001 A    
C58   O38   1.385268 S    
C83   C84   1.400963 A    
C83   C91   1.469824 S    
C85   C86   1.400510 A    
