data_mof_unit_47287.cif
_audit_creation_date              2012-12-10T16:32:38-0500
_audit_creation_method            fapswitch 2.2
_symmetry_space_group_name_H-M    P1
_symmetry_Int_Tables_number       1
_space_group_crystal_system       triclinic
_cell_length_a                    16.887498
_cell_length_b                    16.887414
_cell_length_c                    16.918932
_cell_angle_alpha                 64.621428
_cell_angle_beta                  64.621508
_cell_angle_gamma                 65.850612
_cell_volume                      3785.55061604

loop_
_atom_site_label
_atom_site_type_symbol
_atom_type_description
_atom_site_fract_x
_atom_site_fract_y
_atom_site_fract_z
_atom_type_partial_charge
Br1   Br    Br    0.536081 0.881169 0.766200 -0.476267
Br2   Br    Br    0.415953 0.725253 0.051590 -0.387023
Br3   Br    Br    0.847580 0.590539 0.295937 -0.449873
Br4   Br    Br    0.881172 0.536080 0.766198 -0.476092
Br5   Br    Br    0.590537 0.847579 0.295938 -0.449880
Br6   Br    Br    0.133129 0.698569 0.413307 -0.469080
Br7   Br    Br    0.073401 0.260536 0.495402 -0.421613
Br8   Br    Br    0.725290 0.416002 0.051419 -0.387019
Br9   Br    Br    0.276306 0.585723 0.941733 -0.429761
Br10  Br    Br    0.260536 0.073397 0.495407 -0.421623
Br11  Br    Br    0.698570 0.133126 0.413308 -0.469153
Br12  Br    Br    0.585740 0.276327 0.941658 -0.429708
C1    C     C_R   0.607475 0.013006 0.590452 -0.037015
C2    C     C_R   0.821084 0.563709 0.033330 0.921091
C3    C     C_R   0.440995 0.953793 0.178537 0.919752
C4    C     C_R   0.570749 0.019518 0.823893 0.945971
C5    C     C_R   0.563702 0.821082 0.033347 0.921087
C6    C     C_R   0.436555 0.178976 0.965957 0.937445
C7    C     C_R   0.019518 0.570749 0.823893 0.945953
C8    C     C_R   0.953792 0.440996 0.178537 0.919764
C9    C     C_R   0.821519 0.042606 0.559939 0.930296
C10   C     C_R   0.177788 0.976390 0.430786 0.931053
C11   C     C_R   0.563336 0.991354 0.543352 0.132559
C12   C     C_R   0.421351 0.951196 0.404758 -0.045463
C13   C     C_R   0.474322 0.958637 0.453294 0.135573
C14   C     C_R   0.991357 0.563335 0.543350 0.132547
C15   C     C_R   0.958639 0.474323 0.453292 0.135560
C16   C     C_R   0.542062 0.542089 0.019616 0.156213
C17   C     C_R   0.459646 0.459637 0.974347 0.163153
C18   C     C_R   0.607313 0.983091 0.454001 -0.110969
C19   C     C_R   0.436380 0.953510 0.546835 -0.102606
C20   C     C_R   0.978983 0.475187 0.587433 -0.093117
C21   C     C_R   0.975583 0.560539 0.407196 -0.099226
C22   C     C_R   0.555874 0.556117 0.927122 -0.073036
C23   C     C_R   0.013010 0.607475 0.590451 -0.037030
C24   C     C_R   0.445870 0.445648 0.066806 -0.101108
C25   C     C_R   0.560538 0.975582 0.407197 -0.099247
C26   C     C_R   0.475188 0.978980 0.587435 -0.093134
C27   C     C_R   0.514839 0.515063 0.904523 -0.072918
C28   C     C_R   0.486881 0.486676 0.089397 -0.070759
C29   C     C_R   0.953513 0.436380 0.546833 -0.102584
C30   C     C_R   0.983093 0.607313 0.453999 -0.110961
C31   C     C_R   0.582961 0.986139 0.688017 0.187479
C32   C     C_R   0.464394 0.917434 0.328132 0.222669
C33   C     C_R   0.060314 0.675997 0.541003 0.226122
C34   C     C_R   0.951197 0.421352 0.404757 -0.045452
C35   C     C_R   0.983349 0.324409 0.430986 0.204830
C36   C     C_R   0.675323 0.543510 0.046672 0.254064
C37   C     C_R   0.325815 0.457682 0.948736 0.229763
C38   C     C_R   0.324408 0.983347 0.430988 0.204828
C39   C     C_R   0.675998 0.060310 0.541004 0.226121
C40   C     C_R   0.457686 0.325818 0.948721 0.229754
C41   C     C_R   0.543491 0.675319 0.046719 0.254036
C42   C     C_R   0.917434 0.464395 0.328131 0.222679
C43   C     C_R   0.986142 0.582960 0.688016 0.187472
C44   C     C_R   0.610169 0.025029 0.728589 -0.108566
C45   C     C_R   0.586095 0.586107 0.042074 -0.090646
C46   C     C_R   0.410682 0.926102 0.278174 -0.107780
C47   C     C_R   0.065733 0.722821 0.589878 -0.104913
C48   C     C_R   0.962253 0.275595 0.395148 -0.120233
C49   C     C_R   0.723767 0.594450 0.048794 -0.118663
C50   C     C_R   0.276580 0.406008 0.949162 -0.127382
C51   C     C_R   0.275595 0.962253 0.395149 -0.120239
C52   C     C_R   0.722822 0.065730 0.589879 -0.104907
C53   C     C_R   0.406010 0.276582 0.949154 -0.127388
C54   C     C_R   0.594441 0.723764 0.048821 -0.118648
C55   C     C_R   0.926101 0.410683 0.278174 -0.107788
C56   C     C_R   0.415438 0.415436 0.952306 -0.076467
C57   C     C_R   0.025031 0.610169 0.728588 -0.108574
C58   C     C_R   0.680203 0.064835 0.678851 -0.313748
C59   C     C_R   0.320153 0.931713 0.319974 -0.297953
C60   C     C_R   0.064838 0.680202 0.678850 -0.313752
C61   C     C_R   0.931711 0.320154 0.319975 -0.297964
C62   C     C_R   0.681383 0.681384 0.054315 -0.307054
C63   C     C_R   0.318574 0.318575 0.944936 -0.333763
C64   C     C_R   0.976390 0.177788 0.430786 0.931055
C65   C     C_R   0.042608 0.821519 0.559939 0.930292
C66   C     C_R   0.178975 0.436552 0.965962 0.937452
H1    H     H_    0.434985 0.988867 0.653823 0.188436
H2    H     H_    0.598447 0.598867 0.872670 0.177769
H3    H     H_    0.984115 0.592512 0.334636 0.190368
H4    H     H_    0.988872 0.434984 0.653821 0.188433
H5    H     H_    0.709750 0.082948 0.712311 0.205952
H6    H     H_    0.282225 0.924861 0.286323 0.216592
H7    H     H_    0.082950 0.709750 0.712310 0.205947
H8    H     H_    0.924859 0.282225 0.286324 0.216585
H9    H     H_    0.719086 0.719085 0.056153 0.222294
H10   H     H_    0.280236 0.280236 0.945168 0.210965
H11   H     H_    0.592510 0.984115 0.334637 0.190361
H12   H     H_    0.984179 0.677431 0.418493 0.188597
H13   H     H_    0.934940 0.373265 0.587939 0.181767
H14   H     H_    0.475757 0.475381 0.160929 0.167531
H15   H     H_    0.525949 0.526344 0.833000 0.163854
H16   H     H_    0.373266 0.934937 0.587941 0.181759
H17   H     H_    0.677430 0.984177 0.418494 0.188599
H18   H     H_    0.403310 0.402909 0.121287 0.156705
O1    O     O_R   0.982940 0.138950 0.510160 -0.582488
O2    O     O_R   0.982940 0.510160 0.138950 -0.586617
O3    O     O_R   0.861050 0.017060 0.489840 -0.590179
O4    O     O_R   0.138950 0.982940 0.510160 -0.582489
O5    O     O_R   0.867700 0.025880 0.612340 -0.626058
O6    O     O_R   0.132300 0.974120 0.387660 -0.635709
O7    O     O_R   0.025880 0.612340 0.867700 -0.634840
O8    O     O_R   0.974120 0.387660 0.132300 -0.627447
O9    O     O_R   0.612340 0.867700 0.025880 -0.633365
O10   O     O_R   0.387660 0.132300 0.974120 -0.634287
O11   O     O_R   0.387660 0.974120 0.132300 -0.627438
O12   O     O_R   0.017060 0.861050 0.489840 -0.590181
O13   O     O_R   0.612340 0.025880 0.867700 -0.634830
O14   O     O_R   0.132300 0.387660 0.974120 -0.634290
O15   O     O_R   0.867700 0.612340 0.025880 -0.633370
O16   O     O_R   0.974120 0.132300 0.387660 -0.635711
O17   O     O_R   0.025880 0.867700 0.612340 -0.626059
O18   O     O_R   0.138950 0.510160 0.982940 -0.573861
O19   O     O_R   0.861050 0.489840 0.017060 -0.572936
O20   O     O_R   0.510160 0.982940 0.138950 -0.586633
O21   O     O_R   0.489840 0.017060 0.861050 -0.590715
O22   O     O_R   0.489840 0.861050 0.017060 -0.572938
O23   O     O_R   0.510160 0.138950 0.982940 -0.573876
O24   O     O_R   0.017060 0.489840 0.861050 -0.590711
Zn1   Zn    Zn3+2 0.004880 0.004880 0.583590 1.066643
Zn2   Zn    Zn3+2 0.995120 0.995120 0.416410 1.057756
Zn3   Zn    Zn3+2 0.004880 0.583590 0.004880 1.077611
Zn4   Zn    Zn3+2 0.995120 0.416410 0.995120 1.073209
Zn5   Zn    Zn3+2 0.583590 0.004880 0.004880 1.077597
Zn6   Zn    Zn3+2 0.416410 0.995120 0.995120 1.073205

loop_
_geom_bond_atom_site_label_1
_geom_bond_atom_site_label_2
_ccdc_geom_bond_type
C13   C19   A    
C14   C20   A    
Br6   C33   S    
C8    C55   S    
C31   C44   A    
O7    Zn3   S    
C47   C65   S    
C4    C44   S    
C60   H7    S    
C36   C45   A    
C16   C45   S    
C15   C21   A    
C6    C53   S    
C17   C24   A    
C5    C54   S    
C21   C30   A    
C37   C56   A    
C9    O3    A    
Br3   C42   S    
C46   C59   A    
C26   H1    S    
C16   C28   A    
C2    O19   A    
C54   C62   A    
C48   C61   A    
C1    C11   S    
O4    Zn1   S    
C3    O11   A    
C15   C29   A    
C27   H15   S    
C9    C52   S    
O1    Zn1   S    
C22   H2    S    
C10   C51   S    
C1    C39   A    
C7    O7    A    
Br1   C31   S    
C32   C46   A    
C20   C29   A    
C55   C61   A    
C52   C58   A    
C62   H9    S    
O21   Zn6   S    
C40   C56   A    
C47   C60   A    
C9    O5    A    
C35   C48   A    
C16   C22   A    
C38   C51   A    
C17   C27   A    
C66   O18   A    
C65   O17   A    
Br12  C40   S    
C4    O13   A    
C12   C38   A    
O2    Zn3   S    
C10   O4    A    
O15   Zn3   S    
C22   C27   A    
C11   C18   A    
C24   C28   A    
Br9   C37   S    
C12   C13   S    
C14   C23   S    
C41   C45   A    
C42   C55   A    
C64   O1    A    
C2    C49   S    
C23   C43   A    
C48   C64   S    
O5    Zn1   S    
C18   C25   A    
C30   H12   S    
Br7   C35   S    
C57   C60   A    
Br8   C36   S    
O16   Zn2   S    
C18   H17   S    
C41   C54   A    
C5    O9    A    
C17   C56   S    
C24   H18   S    
C64   O16   A    
C34   C42   A    
C8    O2    A    
C66   O14   A    
C28   H14   S    
C2    O15   A    
C58   H5    S    
C43   C57   A    
O19   Zn4   S    
C5    O22   A    
O3    Zn2   S    
O8    Zn4   S    
O18   Zn3   S    
O23   Zn5   S    
C15   C34   S    
O13   Zn5   S    
C29   H13   S    
Br5   C32   S    
C51   C59   A    
C7    O24   A    
C44   C58   A    
O20   Zn5   S    
Br4   C43   S    
C12   C32   A    
C3    C46   S    
C50   C63   A    
C7    C57   S    
C23   C33   A    
C1    C31   A    
C14   C30   A    
C59   H6    S    
C34   C35   A    
C33   C47   A    
C37   C50   A    
C50   C66   S    
C65   O12   A    
C39   C52   A    
O11   Zn6   S    
O12   Zn2   S    
Br2   C41   S    
C10   O6    A    
C8    O8    A    
C25   H11   S    
C49   C62   A    
C11   C26   A    
C20   H4    S    
O10   Zn6   S    
C53   C63   A    
C19   C26   A    
O9    Zn5   S    
C4    O21   A    
C36   C49   A    
C6    O10   A    
C19   H16   S    
C61   H8    S    
Br11  C39   S    
C63   H10   S    
O17   Zn1   S    
C3    O20   A    
O14   Zn4   S    
O22   Zn6   S    
O6    Zn2   S    
C21   H3    S    
C6    O23   A    
C40   C53   A    
O24   Zn4   S    
C13   C25   A    
Br10  C38   S    
