data_mof_unit_66440.cif
_audit_creation_date              2012-12-10T16:35:06-0500
_audit_creation_method            fapswitch 2.2
_symmetry_space_group_name_H-M    P1
_symmetry_Int_Tables_number       1
_space_group_crystal_system       triclinic
_cell_length_a                    10.84885
_cell_length_b                    10.89032
_cell_length_c                    10.863803
_cell_angle_alpha                 80.574286
_cell_angle_beta                  98.300243
_cell_angle_gamma                 90.822637
_cell_volume                      1252.8814415

loop_
_atom_site_label
_atom_site_type_symbol
_atom_type_description
_atom_site_fract_x
_atom_site_fract_y
_atom_site_fract_z
_atom_type_partial_charge
C1    C     C_R   0.834262 0.471906 0.528858 0.523257
C2    C     C_2   0.454817 0.031496 0.516574 0.248327
C3    C     C_2   0.538880 0.967745 0.471042 0.261709
C4    C     C_2   0.028497 0.528985 0.457973 0.248376
C5    C     C_3   0.240863 0.014990 0.483805 0.024967
C6    C     C_3   0.147434 0.051051 0.564815 -0.246042
C7    C     C_3   0.108421 0.938925 0.654537 -0.402536
C8    C     C_3   0.696590 0.991017 0.344663 0.001200
C9    C     C_3   0.819669 0.918715 0.381839 -0.251897
C10   C     C_3   0.878248 0.901590 0.266228 -0.476699
C11   C     C_3   0.917640 0.544344 0.257856 0.003754
C12   C     C_2   0.967693 0.458891 0.544471 0.262119
C13   C     C_3   0.969478 0.600446 0.137613 -0.269081
C14   C     C_3   0.906144 0.545305 0.024405 -0.463865
C15   C     C_3   0.973821 0.281871 0.700764 -0.000131
C16   C     C_3   0.908116 0.296139 0.813441 -0.258705
C17   C     C_3   0.842098 0.176614 0.860642 -0.491658
C18   C     C_3   0.508547 0.744073 0.919571 0.007536
C19   C     C_3   0.536404 0.825531 0.022020 -0.271542
C20   C     C_3   0.624187 0.930543 0.981989 -0.503089
C21   C     C_3   0.534579 0.243254 0.033767 0.008296
C22   C     C_3   0.409756 0.232701 0.086470 -0.264712
C23   C     C_2   0.480609 0.546984 0.024751 0.249418
C24   C     C_3   0.354890 0.103058 0.086713 -0.486071
C25   C     C_2   0.530908 0.457700 0.973600 0.254826
C26   C     C_R   0.163941 0.526416 0.472748 0.543512
C27   C     C_R   0.523621 0.471386 0.838789 0.540299
C28   C     C_R   0.478927 0.529321 0.160534 0.508835
C29   C     C_R   0.523801 0.834738 0.477417 0.543113
C30   C     C_R   0.474636 0.164288 0.521833 0.517142
H1    H     H_    0.201418 0.939181 0.433318 0.156849
H2    H     H_    0.885259 0.970551 0.442271 0.170296
H3    H     H_    0.803781 0.825910 0.436806 0.199039
H4    H     H_    0.818843 0.840875 0.209952 0.158266
H5    H     H_    0.971578 0.857353 0.296763 0.193074
H6    H     H_    0.889818 0.992936 0.206537 0.127376
H7    H     H_    0.814646 0.556171 0.240883 0.173897
H8    H     H_    0.938120 0.442066 0.277918 0.117255
H9    H     H_    0.954297 0.702882 0.118716 0.168913
H10   H     H_    0.071338 0.581585 0.150403 0.186261
H11   H     H_    0.917407 0.442478 0.042337 0.152646
H12   H     H_    0.252113 0.096872 0.409614 0.075868
H13   H     H_    0.948846 0.583608 0.939417 0.165678
H14   H     H_    0.805235 0.569248 0.005980 0.162992
H15   H     H_    0.048172 0.210285 0.734220 0.146881
H16   H     H_    0.909415 0.244793 0.626118 0.130840
H17   H     H_    0.978373 0.319367 0.891038 0.166240
H18   H     H_    0.838448 0.372935 0.787078 0.190042
H19   H     H_    0.768965 0.153376 0.785503 0.158025
H20   H     H_    0.797180 0.189555 0.943308 0.154091
H21   H     H_    0.909909 0.098124 0.889726 0.142928
H22   H     H_    0.468432 0.803549 0.829970 0.188063
H23   H     H_    0.189571 0.121991 0.620358 0.195530
H24   H     H_    0.598359 0.706411 0.903148 0.139619
H25   H     H_    0.448105 0.864836 0.039773 0.184985
H26   H     H_    0.581829 0.768619 0.110853 0.150853
H27   H     H_    0.708948 0.892845 0.954417 0.152107
H28   H     H_    0.654332 0.980022 0.062066 0.123260
H29   H     H_    0.576505 0.997376 0.901482 0.157594
H30   H     H_    0.596725 0.168368 0.089170 0.137396
H31   H     H_    0.523096 0.226332 0.934647 0.143813
H32   H     H_    0.423963 0.251440 0.184908 0.186961
H33   H     H_    0.341758 0.301810 0.028422 0.158112
H34   H     H_    0.063528 0.093483 0.502317 0.099342
H35   H     H_    0.342160 0.079478 0.990001 0.159031
H36   H     H_    0.262832 0.100138 0.120410 0.138509
H37   H     H_    0.417270 0.033189 0.151407 0.145233
H38   H     H_    0.067504 0.865971 0.600872 0.156751
H39   H     H_    0.037410 0.968557 0.708069 0.117600
H40   H     H_    0.189940 0.899233 0.722729 0.201589
H41   H     H_    0.713739 0.080740 0.284922 0.162244
H42   H     H_    0.628648 0.939096 0.285580 0.095338
O1    O     O_3   0.500000 0.500000 0.500000 -0.448926
O2    O     O_R   0.597340 0.765700 0.560080 -0.540697
O3    O     O_R   0.548200 0.222430 0.451790 -0.520634
O4    O     O_R   0.441590 0.789440 0.401000 -0.563605
O5    O     O_R   0.412860 0.222430 0.587130 -0.554878
O6    O     O_3   0.352846 0.971174 0.561917 -0.598771
O7    O     O_3   0.654604 0.019597 0.454268 -0.581254
O8    O     O_3   0.964947 0.609578 0.357038 -0.621610
O9    O     O_3   0.032229 0.394740 0.656779 -0.576092
O10   O     O_3   0.420306 0.650694 0.949969 -0.593063
O11   O     O_3   0.596057 0.356632 0.048377 -0.596727
O12   O     O_R   0.441590 0.410520 0.779910 -0.547155
O13   O     O_R   0.548210 0.443940 0.230290 -0.529258
O14   O     O_R   0.787780 0.544200 0.591150 -0.548669
O15   O     O_R   0.222430 0.601350 0.398650 -0.530591
O16   O     O_R   0.767360 0.410530 0.454140 -0.571500
O17   O     O_R   0.222430 0.443930 0.556060 -0.515009
O18   O     O_R   0.597340 0.544190 0.781580 -0.573465
O19   O     O_R   0.412870 0.601350 0.208220 -0.538214
Zn1   Zn    Zn3+2 0.396020 0.396030 0.603970 0.937097
Zn2   Zn    Zn3+2 0.618560 0.587010 0.606350 0.921034
Zn3   Zn    Zn3+2 0.396030 0.620930 0.379070 0.921637
Zn4   Zn    Zn3+2 0.589390 0.396030 0.410610 0.918307

loop_
_geom_bond_atom_site_label_1
_geom_bond_atom_site_label_2
_ccdc_geom_bond_type
C19   H26   S    
C5    H12   S    
O5    Zn1   S    
C23   O10   S    
C11   C13   S    
C19   C20   S    
O1    Zn2   S    
C3    O7    S    
C17   H21   S    
C7    H40   S    
C18   H22   S    
C15   O9    S    
C29   O4    A    
C26   O17   A    
C27   O12   A    
C4    O8    S    
C5    C6    S    
C15   C16   S    
O15   Zn3   S    
C27   O18   A    
C11   H7    S    
C18   C19   S    
C26   O15   A    
C6    H34   S    
C3    C29   S    
C13   H10   S    
C9    H2    S    
O4    Zn3   S    
C22   H33   S    
C30   O5    A    
C21   O11   S    
C16   C17   S    
C8    O7    S    
C10   H5    S    
C4    C12   D    
C9    C10   S    
C21   H31   S    
C24   H37   S    
C24   H36   S    
C1    O16   A    
C7    H38   S    
O16   Zn4   S    
C13   C14   S    
C9    H3    S    
O2    Zn2   S    
C16   H18   S    
C1    C12   S    
O1    Zn3   S    
C16   H17   S    
C8    H42   S    
O3    Zn4   S    
C21   H30   S    
C17   H19   S    
C8    C9    S    
C29   O2    A    
C20   H29   S    
C11   H8    S    
C2    O6    S    
O14   Zn2   S    
C22   H32   S    
C10   H4    S    
C23   C28   S    
O17   Zn1   S    
C24   H35   S    
C14   H11   S    
C22   C24   S    
C15   H15   S    
C6    H23   S    
C20   H28   S    
O18   Zn2   S    
C14   H14   S    
C19   H25   S    
C1    O14   A    
C8    H41   S    
O1    Zn1   S    
C17   H20   S    
C7    H39   S    
C4    C26   S    
C6    C7    S    
C25   C27   S    
C2    C30   S    
C2    C3    D    
C5    O6    S    
O19   Zn3   S    
C30   O3    A    
O13   Zn4   S    
C18   O10   S    
C12   O9    S    
C28   O19   A    
C23   C25   D    
C13   H9    S    
C11   O8    S    
C18   H24   S    
C28   O13   A    
C25   O11   S    
O1    Zn4   S    
C10   H6    S    
O12   Zn1   S    
C15   H16   S    
C20   H27   S    
C21   C22   S    
C14   H13   S    
C5    H1    S    
