data_mof_unit_13210.cif
_audit_creation_date              2012-12-10T18:09:03-0500
_audit_creation_method            fapswitch 2.2
_symmetry_space_group_name_H-M    P1
_symmetry_Int_Tables_number       1
_space_group_crystal_system       triclinic
_cell_length_a                    12.665083
_cell_length_b                    13.108406
_cell_length_c                    13.593609
_cell_angle_alpha                 90.053679
_cell_angle_beta                  95.294635
_cell_angle_gamma                 97.243198
_cell_volume                      2229.05594875

loop_
_atom_site_label
_atom_site_type_symbol
_atom_type_description
_atom_site_fract_x
_atom_site_fract_y
_atom_site_fract_z
_atom_type_partial_charge
C1    C     C_R   0.558780 0.691140 0.516342 0.864570
C2    C     C_R   0.467260 0.035974 0.526385 0.085668
C3    C     C_R   0.365854 0.000319 0.559716 0.166030
C4    C     C_R   0.517232 0.496180 0.318316 0.873407
C5    C     C_R   0.346118 0.901095 0.596111 -0.272829
C6    C     C_R   0.422068 0.834300 0.591704 -0.175086
C7    C     C_R   0.479088 0.130327 0.475417 0.016413
C8    C     C_R   0.306359 0.164406 0.524439 -0.220690
C9    C     C_R   0.595218 0.800382 0.536902 -0.166888
C10   C     C_R   0.878176 0.312022 0.589630 -0.276400
C11   C     C_R   0.214733 0.631910 0.386545 -0.154485
C12   C     C_1   0.528510 0.491965 0.216830 -0.179420
C13   C     C_R   0.111404 0.654331 0.352204 0.475558
C14   C     C_R   0.024270 0.597537 0.389919 -0.234223
C15   C     C_R   0.037214 0.518975 0.458301 -0.136651
C16   C     C_R   0.440920 0.308813 0.488213 0.867684
C17   C     C_R   0.141440 0.494256 0.485622 0.119411
C18   C     C_R   0.949675 0.463747 0.500781 0.010443
C19   C     C_R   0.962272 0.368750 0.546611 0.124998
C20   C     C_R   0.061427 0.335839 0.557459 -0.385597
C21   C     C_R   0.151363 0.407014 0.547365 0.490605
C22   C     C_R   0.850857 0.500305 0.502954 -0.028306
C23   C     C_R   0.285266 0.064044 0.555810 -0.242907
C24   C     C_R   0.783544 0.353245 0.591613 0.005422
C25   C     C_R   0.483858 0.506314 0.681697 0.889652
C26   C     C_1   0.477275 0.520255 0.783119 -0.210029
C27   C     C_2   0.474386 0.539067 0.972796 -0.172619
C28   C     C_2   0.541732 0.488188 0.027552 -0.157172
C29   C     C_1   0.537195 0.488984 0.130738 0.004858
C30   C     C_1   0.473696 0.531414 0.869321 0.005116
C31   C     C_3   0.173820 0.792423 0.250458 0.080353
C32   C     C_3   0.209628 0.878831 0.326786 -0.361567
C33   C     C_3   0.294996 0.957036 0.288815 -0.965610
C34   C     C_R   0.405100 0.199058 0.489523 -0.104648
C35   C     C_3   0.230648 0.378767 0.705533 0.090736
C36   C     C_3   0.192299 0.471784 0.754640 -0.366337
C37   C     C_3   0.180967 0.453214 0.864172 -0.942451
C38   C     C_3   0.561143 0.157382 0.399587 -0.369727
C39   C     C_3   0.559804 0.074240 0.319455 -0.373864
C40   C     C_3   0.658756 0.093313 0.262663 -0.862996
C41   C     C_3   0.917626 0.931299 0.514355 0.082451
C42   C     C_3   0.967539 0.875524 0.602670 -0.363032
C43   C     C_3   0.032965 0.794351 0.568955 -0.967673
C44   C     C_R   0.703419 0.839239 0.531435 -0.345329
C45   C     C_R   0.737233 0.946234 0.539989 0.553799
C46   C     C_R   0.658973 0.011517 0.545368 -0.234400
C47   C     C_R   0.549728 0.973065 0.541019 -0.009310
C48   C     C_R   0.521676 0.867903 0.556166 0.082038
H1    H     H_    0.597042 0.443707 0.995250 0.159964
H2    H     H_    0.246958 0.215631 0.530938 0.194957
H3    H     H_    0.270513 0.873862 0.624354 0.154225
H4    H     H_    0.208080 0.037962 0.581669 0.145989
H5    H     H_    0.759708 0.785238 0.522721 0.168697
H6    H     H_    0.684961 0.092364 0.558085 0.149272
H7    H     H_    0.144745 0.828318 0.180770 0.175680
H8    H     H_    0.240212 0.751293 0.229937 0.118651
H9    H     H_    0.139849 0.918084 0.341927 0.229925
H10   H     H_    0.242265 0.847045 0.397164 0.220481
H11   H     H_    0.367232 0.919738 0.278369 0.258891
H12   H     H_    0.403414 0.757656 0.619867 0.169780
H13   H     H_    0.316252 0.021097 0.343023 0.286009
H14   H     H_    0.265162 0.989301 0.217548 0.261279
H15   H     H_    0.309125 0.366208 0.743578 0.156751
H16   H     H_    0.177936 0.306839 0.718626 0.118672
H17   H     H_    0.250015 0.541662 0.746381 0.234339
H18   H     H_    0.113311 0.486302 0.718707 0.213239
H19   H     H_    0.118562 0.387285 0.873468 0.265402
H20   H     H_    0.157187 0.522754 0.898432 0.265327
H21   H     H_    0.257833 0.436547 0.902862 0.269928
H22   H     H_    0.663864 0.170516 0.228465 0.263440
H23   H     H_    0.716475 0.310169 0.623059 0.137598
H24   H     H_    0.732066 0.088229 0.313104 0.271797
H25   H     H_    0.654073 0.034228 0.203299 0.249418
H26   H     H_    0.556515 0.996081 0.350819 0.238536
H27   H     H_    0.488139 0.076393 0.266344 0.228489
H28   H     H_    0.543119 0.227264 0.358323 0.194347
H29   H     H_    0.642461 0.179517 0.435904 0.214879
H30   H     H_    0.982881 0.983359 0.484399 0.157367
H31   H     H_    0.884491 0.878880 0.451476 0.134876
H32   H     H_    0.020165 0.932581 0.651499 0.215999
H33   H     H_    0.904360 0.837692 0.646709 0.231633
H34   H     H_    0.070010 0.261795 0.590459 0.152632
H35   H     H_    0.979034 0.732515 0.527608 0.271012
H36   H     H_    0.073988 0.760078 0.634192 0.262501
H37   H     H_    0.093925 0.828918 0.520933 0.261700
H38   H     H_    0.886715 0.238596 0.624120 0.165767
H39   H     H_    0.833658 0.571500 0.469031 0.115540
H40   H     H_    0.286121 0.673060 0.361308 0.148602
H41   H     H_    0.945655 0.614062 0.361870 0.163919
H42   H     H_    0.418063 0.582498 0.004887 0.158785
N1    N     N_R   0.773270 0.445590 0.549770 -0.105064
N2    N     N_R   0.227520 0.553880 0.450750 -0.127080
O1    O     O_R   0.631100 0.627590 0.523760 -0.615140
O2    O     O_3   0.245061 0.394572 0.603495 -0.603777
O3    O     O_3   0.843073 0.993300 0.545565 -0.663929
O4    O     O_R   0.455900 0.662370 0.491970 -0.626421
O5    O     O_R   0.600200 0.480080 0.377830 -0.607661
O6    O     O_R   0.425000 0.514870 0.346040 -0.609132
O7    O     O_R   0.544100 0.337630 0.508030 -0.632575
O8    O     O_R   0.368900 0.372410 0.476240 -0.557592
O9    O     O_R   0.575000 0.485130 0.653960 -0.605885
O10   O     O_R   0.399800 0.519920 0.622170 -0.562448
O11   O     O_3   0.086588 0.725875 0.280371 -0.653161
Zn1   Zn    Zn3+2 0.616980 0.476780 0.521230 0.938198
Zn2   Zn    Zn3+2 0.383020 0.523220 0.478770 0.966409

loop_
_geom_bond_atom_site_label_1
_geom_bond_atom_site_label_2
_ccdc_geom_bond_type
C15   C18   A    
O4    Zn2   S    
C42   H32   S    
C4    O6    A    
C12   C29   T    
C43   H35   S    
C41   C42   S    
C3    C23   A    
C35   C36   S    
C32   H10   S    
N1    Zn1   S    
C38   H28   S    
C45   C46   A    
C17   N2    A    
O8    Zn2   S    
O6    Zn2   S    
C40   H22   S    
O10   Zn2   S    
C28   C29   S    
C37   H21   S    
C38   C39   S    
C36   H18   S    
C25   O10   A    
C21   O2    S    
C37   H20   S    
C8    C23   A    
C40   H25   S    
C27   H42   S    
C18   C19   A    
C39   H26   S    
C16   C34   S    
C44   H5    S    
C10   H38   S    
C2    C7    A    
C33   H14   S    
C22   N1    A    
C35   H16   S    
C39   H27   S    
C31   H8    S    
C13   O11   S    
C10   C19   A    
O7    Zn1   S    
C33   H11   S    
C4    O5    A    
C27   C30   S    
C43   H36   S    
C41   O3    S    
C42   H33   S    
C32   H9    S    
C11   N2    A    
O1    Zn1   S    
C43   H37   S    
C6    H12   S    
C1    C9    S    
C41   H30   S    
C36   H17   S    
C16   O8    A    
C10   C24   A    
C25   C26   S    
C17   C21   A    
C31   O11   S    
C14   H41   S    
C28   H1    S    
C47   C48   A    
C11   H40   S    
C46   H6    S    
C8    C34   A    
C22   H39   S    
C6    C48   A    
C1    O1    A    
C26   C30   T    
O9    Zn1   S    
C7    C34   A    
C4    C12   S    
C42   C43   S    
C45   O3    S    
C24   N1    A    
C8    H2    S    
C39   C40   S    
C44   C45   A    
C35   O2    S    
C15   C17   A    
C46   C47   A    
C36   C37   S    
C9    C44   A    
C40   H24   S    
C18   C22   A    
C31   C32   S    
C3    C5    A    
C41   H31   S    
C16   O7    A    
C38   H29   S    
C2    C47   A    
C32   C33   S    
C19   C20   A    
C2    C3    A    
C11   C13   A    
C25   O9    A    
C23   H4    S    
C5    C6    A    
C1    O4    A    
C37   H19   S    
C7    C38   S    
O5    Zn1   S    
N2    Zn2   S    
C20   C21   A    
C9    C48   A    
C33   H13   S    
C20   H34   S    
C27   C28   D    
C14   C15   A    
C5    H3    S    
C35   H15   S    
C31   H7    S    
C13   C14   A    
C24   H23   S    
