data_mof_unit_37133.cif
_audit_creation_date              2012-12-11T16:26:33-0500
_audit_creation_method            fapswitch 2.2
_symmetry_space_group_name_H-M    P1
_symmetry_Int_Tables_number       1
_space_group_crystal_system       monoclinic
_cell_length_a                    13.96214
_cell_length_b                    13.962139
_cell_length_c                    31.916149
_cell_angle_alpha                 90.0
_cell_angle_beta                  90.0
_cell_angle_gamma                 120.000246
_cell_volume                      5388.2034392

loop_
_atom_site_label
_atom_site_type_symbol
_atom_type_description
_atom_site_fract_x
_atom_site_fract_y
_atom_site_fract_z
_atom_type_partial_charge
C1    C     C_R   0.565952 0.444978 0.810152 0.557657
C2    C     C_R   0.444978 0.565952 0.189848 0.557656
C3    C     C_2   0.892963 0.629749 0.641253 0.330105
C4    C     C_2   0.736790 0.107053 0.858749 0.330099
C5    C     C_2   0.370251 0.263213 0.641253 0.330105
C6    C     C_2   0.629736 0.892944 0.358749 0.330099
C7    C     C_2   0.107042 0.736787 0.141253 0.330104
C8    C     C_2   0.263208 0.370264 0.358749 0.330099
C9    C     C_2   0.629744 0.892957 0.141252 0.330103
C10   C     C_2   0.107054 0.736791 0.358749 0.330099
C11   C     C_2   0.263211 0.370258 0.141252 0.330101
C12   C     C_R   0.434048 0.879026 0.310152 0.557657
C13   C     C_R   0.120974 0.555022 0.189848 0.557654
C14   C     C_1   0.003145 0.495987 0.018744 0.094113
C15   C     C_1   0.492852 0.996871 0.481255 0.094116
C16   C     C_1   0.504014 0.507159 0.018743 0.094113
C17   C     C_1   0.003127 0.495980 0.481255 0.094116
C18   C     C_1   0.492842 0.996853 0.018743 0.094113
C19   C     C_1   0.504021 0.507148 0.481255 0.094116
C20   C     C_1   0.495990 0.003148 0.518743 0.094112
C21   C     C_R   0.879026 0.434048 0.689848 0.557652
C22   C     C_1   0.996867 0.492849 0.981255 0.094116
C23   C     C_1   0.507160 0.504010 0.518743 0.094112
C24   C     C_1   0.495980 0.003130 0.981255 0.094116
C25   C     C_1   0.996850 0.492841 0.518743 0.094111
C26   C     C_1   0.507152 0.504020 0.981255 0.094116
C27   C     C_R   0.940092 0.475315 0.850535 -0.056331
C28   C     C_R   0.535221 0.059908 0.649465 -0.056336
C29   C     C_R   0.524685 0.464777 0.850535 -0.056331
C30   C     C_R   0.940091 0.475314 0.649465 -0.056337
C31   C     C_R   0.535222 0.059907 0.850534 -0.056331
C32   C     C_R   0.555022 0.120974 0.810152 0.557656
C33   C     C_R   0.524687 0.464778 0.649465 -0.056336
C34   C     C_R   0.475316 0.940093 0.350535 -0.056331
C35   C     C_R   0.059908 0.535222 0.149465 -0.056334
C36   C     C_R   0.464777 0.524684 0.350535 -0.056331
C37   C     C_R   0.475314 0.940091 0.149465 -0.056335
C38   C     C_R   0.059907 0.535222 0.350534 -0.056331
C39   C     C_R   0.464777 0.524687 0.149465 -0.056334
C40   C     C_R   0.926194 0.551666 0.875839 -0.059294
C41   C     C_R   0.625471 0.073801 0.624161 -0.059297
C42   C     C_R   0.448335 0.374528 0.875840 -0.059294
C43   C     C_R   0.565952 0.444978 0.689848 0.557653
C44   C     C_R   0.926198 0.551669 0.624161 -0.059297
C45   C     C_R   0.625471 0.073804 0.875839 -0.059294
C46   C     C_R   0.448331 0.374528 0.624161 -0.059297
C47   C     C_R   0.551667 0.926194 0.375839 -0.059294
C48   C     C_R   0.073803 0.625471 0.124161 -0.059296
C49   C     C_R   0.374528 0.448333 0.375839 -0.059294
C50   C     C_R   0.551668 0.926195 0.124161 -0.059296
C51   C     C_R   0.073804 0.625471 0.375839 -0.059294
C52   C     C_R   0.374528 0.448334 0.124160 -0.059296
C53   C     C_R   0.947045 0.556134 0.918851 -0.110308
C54   C     C_R   0.879026 0.434048 0.810152 0.557656
C55   C     C_R   0.609091 0.052956 0.581149 -0.110313
C56   C     C_R   0.443867 0.390912 0.918851 -0.110308
C57   C     C_R   0.947042 0.556134 0.581149 -0.110313
C58   C     C_R   0.609088 0.052952 0.918851 -0.110308
C59   C     C_R   0.443866 0.390908 0.581149 -0.110313
C60   C     C_R   0.556135 0.947047 0.418851 -0.110307
C61   C     C_R   0.052957 0.609090 0.081149 -0.110312
C62   C     C_R   0.390912 0.443864 0.418851 -0.110307
C63   C     C_R   0.556133 0.947041 0.081148 -0.110312
C64   C     C_R   0.052951 0.609087 0.418851 -0.110307
C65   C     C_R   0.555022 0.120974 0.689848 0.557652
C66   C     C_R   0.390909 0.443869 0.081148 -0.110312
C67   C     C_R   0.987321 0.492316 0.936605 -0.026071
C68   C     C_R   0.505000 0.012691 0.563393 -0.026078
C69   C     C_R   0.507685 0.495006 0.936605 -0.026070
C70   C     C_R   0.987307 0.492309 0.563393 -0.026079
C71   C     C_R   0.504994 0.012676 0.936605 -0.026071
C72   C     C_R   0.507692 0.494999 0.563393 -0.026078
C73   C     C_R   0.492319 0.987324 0.436605 -0.026070
C74   C     C_R   0.012688 0.504999 0.063394 -0.026076
C75   C     C_R   0.495006 0.507681 0.436605 -0.026070
C76   C     C_R   0.444978 0.565952 0.310152 0.557658
C77   C     C_R   0.492310 0.987309 0.063393 -0.026077
C78   C     C_R   0.012674 0.504994 0.436605 -0.026070
C79   C     C_R   0.495001 0.507691 0.063393 -0.026076
C80   C     C_R   0.017968 0.430461 0.911172 0.294305
C81   C     C_R   0.412496 0.982047 0.588825 0.294294
C82   C     C_R   0.569540 0.587508 0.911172 0.294306
C83   C     C_R   0.017951 0.430449 0.588825 0.294293
C84   C     C_R   0.412492 0.982031 0.911172 0.294305
C85   C     C_R   0.569552 0.587503 0.588825 0.294294
C86   C     C_R   0.430463 0.017970 0.411172 0.294305
C87   C     C_R   0.434048 0.879026 0.189848 0.557654
C88   C     C_R   0.982043 0.412495 0.088826 0.294299
C89   C     C_R   0.587508 0.569537 0.411172 0.294306
C90   C     C_R   0.430452 0.017955 0.088826 0.294298
C91   C     C_R   0.982028 0.412491 0.411172 0.294306
C92   C     C_R   0.587505 0.569548 0.088826 0.294298
C93   C     C_R   0.996559 0.423506 0.867926 0.276040
C94   C     C_R   0.426947 0.003450 0.632072 0.276033
C95   C     C_R   0.576495 0.573053 0.867926 0.276041
C96   C     C_R   0.996549 0.423497 0.632072 0.276032
C97   C     C_R   0.426946 0.003441 0.867926 0.276041
C98   C     C_R   0.120974 0.555022 0.310152 0.557657
C99   C     C_R   0.576503 0.573052 0.632072 0.276032
C100  C     C_R   0.423507 0.996560 0.367926 0.276041
C101  C     C_R   0.003448 0.426947 0.132073 0.276037
C102  C     C_R   0.573054 0.576494 0.367925 0.276042
C103  C     C_R   0.423499 0.996551 0.132072 0.276035
C104  C     C_R   0.003439 0.426946 0.367926 0.276041
C105  C     C_R   0.573052 0.576500 0.132073 0.276036
C106  C     C_2   0.892945 0.629737 0.858749 0.330099
C107  C     C_2   0.736785 0.107036 0.641254 0.330105
C108  C     C_2   0.370264 0.263208 0.858750 0.330099
Cl1   Cl    Cl    0.955525 0.307843 0.163962 -0.399966
Cl2   Cl    Cl    0.307844 0.955519 0.836035 -0.399971
Cl3   Cl    Cl    0.044471 0.352315 0.663961 -0.399962
Cl4   Cl    Cl    0.647673 0.692155 0.836035 -0.399971
Cl5   Cl    Cl    0.919710 0.278992 0.066287 -0.400842
Cl6   Cl    Cl    0.359300 0.080313 0.433709 -0.400854
Cl7   Cl    Cl    0.721009 0.640717 0.066288 -0.400844
Cl8   Cl    Cl    0.919686 0.278986 0.433709 -0.400854
Cl9   Cl    Cl    0.359282 0.080288 0.066287 -0.400841
Cl10  Cl    Cl    0.721014 0.640700 0.433709 -0.400854
Cl11  Cl    Cl    0.278993 0.919717 0.566286 -0.400838
Cl12  Cl    Cl    0.352327 0.044482 0.336035 -0.399969
Cl13  Cl    Cl    0.080310 0.359298 0.933709 -0.400852
Cl14  Cl    Cl    0.640724 0.721006 0.566286 -0.400838
Cl15  Cl    Cl    0.278986 0.919689 0.933709 -0.400852
Cl16  Cl    Cl    0.080281 0.359277 0.566286 -0.400837
Cl17  Cl    Cl    0.640703 0.721014 0.933709 -0.400853
Cl18  Cl    Cl    0.692156 0.647680 0.163963 -0.399964
Cl19  Cl    Cl    0.955518 0.307844 0.336035 -0.399971
Cl20  Cl    Cl    0.352319 0.044474 0.163962 -0.399963
Cl21  Cl    Cl    0.692155 0.647673 0.336035 -0.399969
Cl22  Cl    Cl    0.307843 0.955529 0.663961 -0.399964
Cl23  Cl    Cl    0.044481 0.352327 0.836035 -0.399969
Cl24  Cl    Cl    0.647686 0.692156 0.663961 -0.399962
Cr1   Cr    Cr6+3 0.504240 0.249200 0.750000 1.104289
Cr2   Cr    Cr6+3 0.744960 0.495760 0.750000 1.104290
Cr3   Cr    Cr6+3 0.750800 0.255040 0.750000 1.104289
Cr4   Cr    Cr6+3 0.249200 0.504240 0.250000 1.104289
Cr5   Cr    Cr6+3 0.495760 0.744960 0.250000 1.104290
Cr6   Cr    Cr6+3 0.255040 0.750800 0.250000 1.104289
H1    H     H_    0.068579 0.678175 0.061084 0.208087
H2    H     H_    0.678172 0.068576 0.938916 0.208086
H3    H     H_    0.931420 0.609598 0.561085 0.208088
H4    H     H_    0.390408 0.321827 0.938917 0.208085
H5    H     H_    0.911798 0.658506 0.826662 0.163244
H6    H     H_    0.746695 0.088183 0.673341 0.163237
H7    H     H_    0.341495 0.253290 0.826663 0.163244
H8    H     H_    0.911817 0.658513 0.673341 0.163237
H9    H     H_    0.746707 0.088201 0.826662 0.163243
H10   H     H_    0.341487 0.253303 0.673341 0.163237
H11   H     H_    0.658505 0.911796 0.326663 0.163245
H12   H     H_    0.609595 0.931422 0.438916 0.208086
H13   H     H_    0.088189 0.746699 0.173340 0.163239
H14   H     H_    0.253289 0.341494 0.326663 0.163245
H15   H     H_    0.658510 0.911811 0.173340 0.163240
H16   H     H_    0.088203 0.746708 0.326662 0.163244
H17   H     H_    0.253297 0.341491 0.173339 0.163241
H18   H     H_    0.321824 0.390408 0.061083 0.208087
H19   H     H_    0.068575 0.678172 0.438916 0.208086
H20   H     H_    0.609595 0.931418 0.061084 0.208087
H21   H     H_    0.321827 0.390404 0.438916 0.208086
H22   H     H_    0.678176 0.068578 0.561085 0.208088
H23   H     H_    0.931420 0.609594 0.938916 0.208086
H24   H     H_    0.390403 0.321823 0.561084 0.208088
O1    O     O_R   0.480350 0.140770 0.796330 -0.436720
O2    O     O_R   0.140770 0.480350 0.203670 -0.436718
O3    O     O_R   0.519650 0.660420 0.296330 -0.436719
O4    O     O_R   0.339580 0.859230 0.203670 -0.436717
O5    O     O_R   0.514930 0.348530 0.793250 -0.531682
O6    O     O_R   0.833600 0.485070 0.706750 -0.531680
O7    O     O_R   0.651470 0.166400 0.793250 -0.531682
O8    O     O_R   0.514930 0.348530 0.706750 -0.531679
O9    O     O_R   0.833600 0.485070 0.793250 -0.531682
O10   O     O_R   0.651470 0.166400 0.706750 -0.531680
O11   O     O_R   0.348530 0.514930 0.293250 -0.531681
O12   O     O_R   0.660420 0.519650 0.703670 -0.436717
O13   O     O_R   0.485070 0.833600 0.206750 -0.531680
O14   O     O_R   0.166400 0.651470 0.293250 -0.531682
O15   O     O_R   0.348530 0.514930 0.206750 -0.531680
O16   O     O_R   0.485070 0.833600 0.293250 -0.531682
O17   O     O_R   0.166400 0.651470 0.206750 -0.531680
O18   O     O_3   0.666667 0.333333 0.750000 -0.268618
O19   O     O_3   0.333333 0.666667 0.250000 -0.268619
O20   O     O_2   0.847502 0.666398 0.880951 -0.409697
O21   O     O_2   0.818893 0.152468 0.619053 -0.409671
O22   O     O_2   0.333604 0.181104 0.880952 -0.409697
O23   O     O_R   0.859230 0.339580 0.796330 -0.436719
O24   O     O_2   0.847531 0.666424 0.619053 -0.409672
O25   O     O_2   0.818895 0.152496 0.880951 -0.409695
O26   O     O_2   0.333577 0.181106 0.619053 -0.409672
O27   O     O_2   0.666395 0.847499 0.380951 -0.409699
O28   O     O_2   0.152479 0.818894 0.119052 -0.409680
O29   O     O_2   0.181104 0.333604 0.380951 -0.409698
O30   O     O_2   0.666415 0.847521 0.119052 -0.409682
O31   O     O_2   0.152498 0.818895 0.380951 -0.409697
O32   O     O_2   0.181105 0.333590 0.119050 -0.409684
O33   O     O_R   0.480350 0.140770 0.703670 -0.436717
O34   O     O_R   0.660420 0.519650 0.796330 -0.436719
O35   O     O_R   0.859230 0.339580 0.703670 -0.436716
O36   O     O_R   0.140770 0.480350 0.296330 -0.436719
O37   O     O_R   0.519650 0.660420 0.203670 -0.436718
O38   O     O_R   0.339580 0.859230 0.296330 -0.436719

loop_
_geom_bond_atom_site_label_1
_geom_bond_atom_site_label_2
_ccdc_geom_bond_type
C12   O16   A    
C32   O7    A    
C81   C94   A    
C46   C59   A    
C28   C41   A    
C102  Cl21  S    
C72   C85   A    
C91   C104  A    
C38   C98   S    
C10   H16   S    
Cr5   O3    S    
C88   C101  A    
C27   C54   S    
C106  H5    S    
C84   Cl15  S    
C66   C79   A    
C94   Cl22  S    
C21   O6    A    
C105  Cl18  S    
C18   C24   T    
C84   C97   A    
C14   C74   S    
C4    O25   D    
C28   C94   A    
C76   O11   A    
C8    H14   S    
C51   C64   A    
Cr3   O18   S    
Cr5   O13   S    
C95   Cl4   S    
Cr1   O5    S    
Cr4   O2    S    
C29   C42   A    
C43   O12   A    
C58   C71   A    
C87   O4    A    
Cr5   O19   S    
C1    O5    A    
C8    O29   D    
C101  Cl1   S    
C32   O1    A    
C60   C73   A    
C91   Cl8   S    
C36   C102  A    
C88   Cl5   S    
Cr6   O19   S    
C106  O20   D    
C30   C96   A    
C11   C52   S    
C36   C76   S    
C42   C56   A    
C47   C60   A    
C6    H11   S    
C2    C39   S    
C41   C55   A    
Cr5   O16   S    
Cr5   O37   S    
C35   C48   A    
C73   C86   A    
C54   O23   A    
Cr4   O19   S    
C34   C100  A    
C11   O32   D    
C7    O28   D    
C100  Cl12  S    
C2    O15   A    
C83   Cl16  S    
C9    O30   D    
C86   C100  A    
C27   C40   A    
C21   C30   S    
Cr4   O36   S    
C11   H17   S    
C59   C72   A    
C80   Cl13  S    
C56   H4    S    
Cr2   O34   S    
C39   C52   A    
C9    H15   S    
C5    H10   S    
C50   C63   A    
C30   C44   A    
Cr6   O17   S    
Cr1   O1    S    
C43   O8    A    
C20   C68   S    
C55   C68   A    
C4    C45   S    
C16   C26   T    
C15   C20   T    
C45   C58   A    
C96   Cl3   S    
C77   C90   A    
C6    C47   S    
C108  O22   D    
C65   O10   A    
C2    O37   A    
C33   C43   S    
C90   Cl9   S    
C76   O3    A    
C1    O34   A    
C10   O31   D    
C29   C95   A    
C98   O36   A    
C61   H1    S    
C37   C103  A    
C38   C51   A    
C35   C101  A    
C13   O17   A    
C4    H9    S    
Cr4   O15   S    
C107  O21   D    
C33   C99   A    
C64   H19   S    
C19   C23   T    
Cr1   O8    S    
C82   Cl17  S    
C85   C99   A    
C98   O14   A    
C9    C50   S    
C31   C32   S    
Cr2   O12   S    
C44   C57   A    
Cr1   O33   S    
C90   C103  A    
C89   C102  A    
C1    C29   S    
C12   O38   A    
C85   Cl14  S    
C60   H12   S    
Cr3   O10   S    
C70   C83   A    
C79   C92   A    
C7    H13   S    
C99   Cl24  S    
C55   H22   S    
C15   C73   S    
C40   C53   A    
Cr2   O9    S    
Cr6   O14   S    
C57   C70   A    
Cr2   O6    S    
C62   C75   A    
C27   C93   A    
C68   C81   A    
C12   C34   S    
C3    O24   D    
C52   C66   A    
C13   O2    A    
C40   C106  S    
C71   C84   A    
C63   C77   A    
C58   H2    S    
C39   C105  A    
C103  Cl20  S    
Cr4   O11   S    
C82   C95   A    
C41   C107  S    
C3    C44   S    
C64   C78   A    
C54   O9    A    
C37   C87   S    
C67   C80   A    
C21   O35   A    
C108  H7    S    
Cr3   O35   S    
C38   C104  A    
Cr1   O18   S    
C13   C35   S    
C25   C70   S    
C31   C97   A    
C78   C91   A    
C87   O13   A    
C5    C46   S    
C81   Cl11  S    
C33   C46   A    
C63   H20   S    
C57   H3    S    
C86   Cl6   S    
C16   C79   S    
C10   C51   S    
C7    C48   S    
C14   C22   T    
C19   C75   S    
C28   C65   S    
C107  H6    S    
C17   C25   T    
C59   H24   S    
C74   C88   A    
C66   H18   S    
C97   Cl2   S    
C53   H23   S    
C48   C61   A    
C104  Cl19  S    
C18   C77   S    
C83   C96   A    
C6    O27   D    
C37   C50   A    
C17   C78   S    
C69   C82   A    
C23   C72   S    
Cr3   O7    S    
C53   C67   A    
C92   Cl7   S    
C22   C67   S    
Cr6   O4    S    
C75   C89   A    
C92   C105  A    
C89   Cl10  S    
C24   C71   S    
C3    H8    S    
C56   C69   A    
C31   C45   A    
C26   C69   S    
C62   H21   S    
C49   C62   A    
C34   C47   A    
C5    O26   D    
Cr2   O18   S    
C80   C93   A    
C93   Cl23  S    
C42   C108  S    
C8    C49   S    
Cr3   O23   S    
C36   C49   A    
C61   C74   A    
C65   O33   A    
Cr6   O38   S    
