data_mof_unit_55271.cif
_audit_creation_date              2012-12-11T14:33:55-0500
_audit_creation_method            fapswitch 2.2
_symmetry_space_group_name_H-M    P1
_symmetry_Int_Tables_number       1
_space_group_crystal_system       triclinic
_cell_length_a                    14.073722
_cell_length_b                    14.094495
_cell_length_c                    27.424396
_cell_angle_alpha                 89.905289
_cell_angle_beta                  90.112544
_cell_angle_gamma                 119.934543
_cell_volume                      4714.23578397

loop_
_atom_site_label
_atom_site_type_symbol
_atom_type_description
_atom_site_fract_x
_atom_site_fract_y
_atom_site_fract_z
_atom_type_partial_charge
C1    C     C_R   0.236171 0.785585 0.569668 0.545949
C2    C     C_R   0.214355 0.450435 0.569446 0.541170
C3    C     C_R   0.550021 0.763803 0.569523 0.540211
C4    C     C_3   0.645098 0.709732 0.792208 0.468515
C5    C     C_3   0.279368 0.925109 0.792633 0.467722
C6    C     C_3   0.054360 0.331709 0.788089 0.467139
C7    C     C_3   0.623176 0.704756 0.735008 0.248464
C8    C     C_3   0.286672 0.908186 0.735769 0.249435
C9    C     C_3   0.078308 0.363748 0.732108 0.246899
C10   C     C_1   0.701302 0.850844 0.861607 0.077453
C11   C     C_1   0.140328 0.841984 0.861713 0.084498
C12   C     C_1   0.127724 0.260314 0.856139 0.084915
C13   C     C_1   0.613713 0.803164 0.661132 0.117377
C14   C     C_1   0.192609 0.803089 0.661493 0.118625
C15   C     C_1   0.193556 0.386256 0.660424 0.113137
C16   C     C_1   0.591130 0.789985 0.618358 0.091007
C17   C     C_1   0.208801 0.797758 0.618689 0.091196
C18   C     C_1   0.201532 0.410150 0.618017 0.094775
C19   C     C_R   0.105066 0.220112 0.088774 0.570421
C20   C     C_R   0.777317 0.883741 0.087661 0.546292
C21   C     C_R   0.088053 0.931500 0.096251 0.557231
C22   C     C_R   0.074072 0.168134 0.942977 0.573914
C23   C     C_R   0.780548 0.886863 0.950857 0.540548
C24   C     C_R   0.112538 0.893549 0.950764 0.551207
C25   C     C_R   0.619137 0.902054 0.360401 0.196140
C26   C     C_R   0.108800 0.718978 0.359138 0.215880
C27   C     C_R   0.294521 0.404850 0.358135 0.207546
C28   C     C_R   0.638788 0.914247 0.309164 -0.018097
C29   C     C_R   0.102831 0.735136 0.308698 -0.030524
C30   C     C_R   0.282430 0.375267 0.308555 -0.021108
C31   C     C_R   0.671071 0.927700 0.206442 -0.004615
C32   C     C_R   0.081047 0.774805 0.209611 -0.007375
C33   C     C_R   0.252731 0.334671 0.207365 -0.008817
C34   C     C_R   0.232829 0.787026 0.431569 0.580802
C35   C     C_R   0.214638 0.448045 0.430925 0.585371
C36   C     C_R   0.554415 0.767655 0.431319 0.591303
C37   C     C_R   0.650713 0.003203 0.230575 0.367500
C38   C     C_R   0.046695 0.667703 0.225876 0.370825
C39   C     C_R   0.358622 0.389097 0.227280 0.370762
C40   C     C_R   0.639024 0.000352 0.281580 0.333652
C41   C     C_R   0.054557 0.646193 0.275527 0.282934
C42   C     C_R   0.373790 0.402764 0.277839 0.311633
C43   C     C_R   0.694061 0.936736 0.155890 0.262480
C44   C     C_R   0.072114 0.796947 0.160229 0.288602
C45   C     C_R   0.235570 0.317261 0.156707 0.267474
C46   C     C_R   0.719071 0.861623 0.134020 -0.025027
C47   C     C_R   0.100096 0.904251 0.146164 -0.007190
C48   C     C_R   0.128253 0.253918 0.139298 -0.012966
C49   C     C_R   0.649068 0.745244 0.360916 0.366334
C50   C     C_R   0.234432 0.914619 0.369222 0.320709
C51   C     C_R   0.095869 0.322024 0.366706 0.312331
C52   C     C_R   0.668166 0.755564 0.310948 0.033641
C53   C     C_R   0.204665 0.933383 0.323230 0.032873
C54   C     C_R   0.082556 0.280620 0.319518 0.028710
C55   C     C_R   0.658414 0.837072 0.284605 -0.151185
C56   C     C_R   0.145936 0.843600 0.291505 -0.134579
C57   C     C_R   0.175604 0.317015 0.289017 -0.125299
C58   C     C_R   0.693376 0.683004 0.286381 0.346158
C59   C     C_R   0.234394 0.040123 0.307885 0.310158
C60   C     C_R   0.978047 0.203455 0.301840 0.279575
C61   C     C_R   0.697275 0.684032 0.235890 -0.067109
C62   C     C_R   0.215160 0.058167 0.259914 -0.095397
C63   C     C_R   0.964122 0.180893 0.252186 -0.118984
C64   C     C_R   0.688859 0.764118 0.209734 -0.027161
C65   C     C_R   0.164185 0.970765 0.227345 -0.022190
C66   C     C_R   0.054206 0.229051 0.220750 -0.031150
C67   C     C_3   0.549566 0.835457 0.740332 0.140368
C68   C     C_3   0.158010 0.704202 0.740930 0.138888
C69   C     C_3   0.282131 0.439268 0.742482 0.148682
C70   C     C_R   0.672566 0.843146 0.233648 -0.064111
C71   C     C_R   0.129502 0.862758 0.242890 -0.063586
C72   C     C_R   0.161070 0.293454 0.239044 -0.059470
C73   C     C_R   0.705487 0.770475 0.160068 -0.161308
C74   C     C_R   0.146479 0.990079 0.179497 -0.177259
C75   C     C_R   0.038743 0.210016 0.171328 -0.163017
C76   C     C_R   0.613930 0.809721 0.384696 -0.013394
C77   C     C_R   0.188941 0.807694 0.386807 0.018838
C78   C     C_R   0.200849 0.388580 0.385225 -0.027644
C79   C     C_3   0.750927 0.909463 0.724710 0.374813
C80   C     C_3   0.081728 0.829539 0.724325 0.371199
C81   C     C_3   0.160704 0.241464 0.718866 0.365092
C82   C     C_3   0.777456 0.913056 0.779641 0.692655
C83   C     C_3   0.075004 0.850310 0.779269 0.693919
C84   C     C_3   0.131086 0.204465 0.772239 0.698885
C85   C     C_1   0.732699 0.869164 0.903268 0.019940
C86   C     C_1   0.127024 0.860255 0.903331 0.020144
C87   C     C_1   0.106842 0.219612 0.896183 0.050594
C88   C     C_3   0.634409 0.813313 0.714179 -0.141309
C89   C     C_3   0.179420 0.810840 0.714528 -0.140343
C90   C     C_3   0.179457 0.358357 0.712489 -0.144393
C91   C     C_3   0.568171 0.841065 0.796882 0.558341
C92   C     C_3   0.150135 0.716382 0.797560 0.559677
C93   C     C_3   0.261957 0.409547 0.798232 0.560715
C94   C     C_3   0.672771 0.829623 0.809389 -0.046964
C95   C     C_3   0.159680 0.831788 0.809574 -0.046648
C96   C     C_3   0.144979 0.301572 0.805578 -0.050401
Cr1   Cr    Cr6+3 0.164410 0.584450 0.499910 1.067470
Cr2   Cr    Cr6+3 0.415550 0.579960 0.499910 1.090666
Cr3   Cr    Cr6+3 0.420040 0.835590 0.499910 1.062625
Cr4   Cr    Cr6+3 0.155170 0.075460 0.019960 1.055020
Cr5   Cr    Cr6+3 0.924540 0.079710 0.019960 1.043924
Cr6   Cr    Cr6+3 0.920290 0.844830 0.019960 1.057918
H1    H     H_    0.466024 0.766323 0.731822 0.177440
H2    H     H_    0.228425 0.691283 0.733115 0.179230
H3    H     H_    0.295303 0.523325 0.736840 0.188593
H4    H     H_    0.720426 0.709962 0.142731 0.164476
H5    H     H_    0.170626 0.072617 0.167728 0.129432
H6    H     H_    0.956004 0.157675 0.157838 0.175232
H7    H     H_    0.711751 0.624491 0.217338 0.145645
H8    H     H_    0.239574 0.140657 0.248369 0.118400
H9    H     H_    0.882986 0.124974 0.238289 0.125241
H10   H     H_    0.755869 0.987758 0.713642 0.183192
H11   H     H_    0.004358 0.756116 0.712487 0.182904
H12   H     H_    0.236590 0.240409 0.708558 0.180947
H13   H     H_    0.538538 0.637363 0.727408 0.197511
H14   H     H_    0.354944 0.891631 0.729100 0.196964
H15   H     H_    0.094346 0.448775 0.727152 0.200634
O1    O     O_R   0.137150 0.468200 0.553200 -0.477481
O2    O     O_R   0.531800 0.668950 0.553200 -0.486246
O3    O     O_R   0.331050 0.862850 0.553200 -0.478486
O4    O     O_R   0.179100 0.982980 0.967000 -0.520117
O5    O     O_R   0.017020 0.196120 0.967000 -0.524113
O6    O     O_R   0.803880 0.820900 0.967000 -0.510327
O7    O     O_R   0.173970 0.688730 0.549930 -0.494991
O8    O     O_R   0.311270 0.485240 0.549930 -0.506750
O9    O     O_R   0.514760 0.826030 0.549930 -0.495022
O10   O     O_R   0.140110 0.470540 0.446010 -0.492015
O11   O     O_R   0.529460 0.669570 0.446010 -0.408262
O12   O     O_R   0.330430 0.859890 0.446010 -0.495849
O13   O     O_R   0.176710 0.690910 0.450560 -0.510592
O14   O     O_R   0.309090 0.485800 0.450560 -0.482573
O15   O     O_R   0.514200 0.823290 0.450560 -0.523327
O16   O     O_3   0.333333 0.666667 0.499990 -0.322774
O17   O     O_R   0.176750 0.985260 0.074180 -0.513061
O18   O     O_R   0.014740 0.191490 0.074180 -0.509441
O19   O     O_R   0.808510 0.823250 0.074180 -0.532587
O20   O     O_R   0.146100 0.172630 0.068980 -0.481672
O21   O     O_R   0.827370 0.973470 0.068980 -0.467086
O22   O     O_R   0.026530 0.853900 0.068980 -0.449284
O23   O     O_3   0.000000 0.000000 0.020040 -0.281074
O24   O     O_R   0.148270 0.170520 0.969620 -0.489272
O25   O     O_R   0.829480 0.977750 0.969620 -0.508472
O26   O     O_R   0.022250 0.851730 0.969620 -0.481257
O27   O     O_3   0.561158 0.926671 0.820954 -0.470562
C97   C     C_3   0.644037 0.034394 0.811729 -0.065392
H16   H     H_    0.679037 0.046656 0.774922 0.190970
H17   H     H_    0.706969 0.061104 0.840848 0.164928
H18   H     H_    0.608412 0.088632 0.814623 0.096848
O28   O     O_3   0.064498 0.622954 0.821450 -0.463382
C98   C     C_3   0.955988 0.594296 0.810373 -0.059384
H19   H     H_    0.944467 0.617717 0.773456 0.190517
H20   H     H_    0.924725 0.626984 0.839051 0.165214
H21   H     H_    0.904383 0.504076 0.812316 0.103728
O29   O     O_3   0.352128 0.413900 0.823849 -0.476215
C99   C     C_3   0.382660 0.336322 0.811695 -0.063553
H22   H     H_    0.365404 0.308393 0.773586 0.191675
H23   H     H_    0.344896 0.267588 0.838055 0.172104
H24   H     H_    0.472516 0.374372 0.816566 0.098810
F1    F     F_    0.476589 0.749217 0.814973 -0.520703
F2    F     F_    0.242464 0.718349 0.816427 -0.514747
F3    F     F_    0.257227 0.496465 0.819099 -0.520103
O30   O     O_3   0.735622 0.692911 0.801534 -0.435925
C100  C     C_3   0.711366 0.583972 0.791838 0.021491
H25   H     H_    0.628298 0.528976 0.776559 0.166732
H26   H     H_    0.720424 0.546748 0.825926 0.048990
H27   H     H_    0.770567 0.586380 0.764707 0.184771
O31   O     O_3   0.294577 0.031895 0.801031 -0.439856
C101  C     C_3   0.403676 0.116773 0.791368 0.016799
H28   H     H_    0.459247 0.089010 0.776599 0.168253
H29   H     H_    0.440652 0.163658 0.825286 0.042131
H30   H     H_    0.401375 0.172382 0.763535 0.186224
O32   O     O_3   0.946213 0.240311 0.793148 -0.435504
C102  C     C_3   0.863517 0.267518 0.782677 0.019830
H31   H     H_    0.893958 0.352172 0.768974 0.166041
H32   H     H_    0.814444 0.256387 0.815961 0.042580
H33   H     H_    0.809381 0.212483 0.753699 0.184533
O33   O     O_3   0.704274 0.025075 0.129450 -0.499531
C103  C     C_3   0.609496 0.989242 0.100474 -0.045890
H34   H     H_    0.615184 0.060976 0.081040 0.153505
H35   H     H_    0.533904 0.953303 0.123208 0.144002
H36   H     H_    0.602957 0.929351 0.072416 0.073642
O34   O     O_3   0.034940 0.714109 0.125844 -0.481126
C104  C     C_3   0.126499 0.712627 0.105682 -0.039026
H37   H     H_    0.096651 0.644221 0.079203 0.147026
H38   H     H_    0.174636 0.698387 0.134096 0.136631
H39   H     H_    0.180701 0.789609 0.085582 0.115284
O35   O     O_3   0.322723 0.355719 0.124554 -0.495995
C105  C     C_3   0.341826 0.456868 0.105599 -0.057732
H40   H     H_    0.413988 0.489733 0.081077 0.150765
H41   H     H_    0.360980 0.518099 0.135084 0.143603
H42   H     H_    0.270867 0.446927 0.083632 0.086333
O36   O     O_3   0.635136 0.991634 0.388121 -0.539829
C106  C     C_3   0.537443 0.995495 0.394387 0.056808
H43   H     H_    0.464929 0.929726 0.374819 0.140260
H44   H     H_    0.521339 0.994384 0.433900 0.181856
H45   H     H_    0.550131 0.076194 0.382585 0.186125
O37   O     O_3   0.012783 0.645299 0.382903 -0.590601
C107  C     C_3   0.005503 0.543184 0.390975 0.022408
H46   H     H_    0.077029 0.537546 0.377394 0.184932
H47   H     H_    0.929446 0.478464 0.373833 0.142807
H48   H     H_    0.995207 0.525289 0.430596 0.182275
O38   O     O_3   0.398942 0.462803 0.377872 -0.468535
C108  C     C_3   0.422887 0.388844 0.402375 0.002452
H49   H     H_    0.417723 0.324207 0.377643 0.150890
H50   H     H_    0.367781 0.349678 0.434061 0.102692
H51   H     H_    0.508123 0.434967 0.416393 0.189969
F4    F     F_    0.639055 0.079137 0.204742 -0.614098
F5    F     F_    0.008315 0.584238 0.193300 -0.623225
F6    F     F_    0.448419 0.428529 0.198160 -0.612013
O39   O     O_3   0.612722 0.072634 0.303511 -0.546045
C109  C     C_3   0.691656 0.183343 0.294249 -0.020436
H52   H     H_    0.654995 0.220284 0.270365 0.155758
H53   H     H_    0.768859 0.196053 0.277287 0.149595
H54   H     H_    0.713735 0.228578 0.329310 0.137316
O40   O     O_3   0.037069 0.544346 0.290602 -0.576557
C110  C     C_3   0.936996 0.456434 0.273353 -0.065907
H55   H     H_    0.950773 0.422577 0.239313 0.212816
H56   H     H_    0.871669 0.478233 0.268295 0.114615
H57   H     H_    0.906720 0.389251 0.300445 0.115708
O41   O     O_3   0.478721 0.448169 0.296879 -0.468690
C111  C     C_3   0.520835 0.376798 0.288801 -0.034328
H58   H     H_    0.566391 0.396894 0.253831 0.187490
H59   H     H_    0.456832 0.288384 0.289586 0.118819
H60   H     H_    0.580094 0.389321 0.318258 0.150685
O42   O     O_3   0.707124 0.605443 0.311224 -0.496249
C112  C     C_3   0.820142 0.643048 0.315031 -0.072579
H61   H     H_    0.862621 0.719974 0.336698 0.160044
H62   H     H_    0.858750 0.655404 0.278508 0.071779
H63   H     H_    0.830600 0.579716 0.334285 0.182996
O43   O     O_3   0.276473 0.126819 0.340150 -0.541245
C113  C     C_3   0.187757 0.120203 0.366845 -0.084675
H64   H     H_    0.147186 0.045370 0.389880 0.163587
H65   H     H_    0.126593 0.121980 0.341938 0.074656
H66   H     H_    0.218189 0.190926 0.391792 0.126861
O44   O     O_3   0.888986 0.148869 0.332566 -0.513910
C114  C     C_3   0.898728 0.065757 0.356956 -0.043693
H67   H     H_    0.973423 0.099567 0.379997 0.129308
H68   H     H_    0.896160 0.004164 0.330802 0.068007
H69   H     H_    0.829834 0.023418 0.382644 0.197909
F7    F     F_    0.551943 0.927933 0.721575 -0.667143
F8    F     F_    0.067072 0.613770 0.721536 -0.668750
F9    F     F_    0.375715 0.442557 0.724666 -0.668357
F10   F     F_    0.659917 0.668506 0.386594 -0.562396
F11   F     F_    0.306118 0.000165 0.397313 -0.611360
F12   F     F_    0.006959 0.300659 0.394177 -0.598885
F13   F     F_    0.828189 0.899596 0.697125 -0.428960
F14   F     F_    0.091714 0.917002 0.696923 -0.429428
F15   F     F_    0.078392 0.168710 0.687850 -0.441945
F16   F     F_    0.821566 0.018309 0.796788 -0.591122
F17   F     F_    0.969151 0.786315 0.795538 -0.585891
F18   F     F_    0.193180 0.160286 0.788438 -0.578476
F19   F     F_    0.860719 0.888998 0.785520 -0.361698
F20   F     F_    0.095591 0.955994 0.785456 -0.361602
F21   F     F_    0.024230 0.118937 0.773993 -0.356436
F22   F     F_    0.693176 0.680616 0.709159 -0.552801
F23   F     F_    0.311018 0.001764 0.709360 -0.553431
F24   F     F_    0.988423 0.297327 0.703020 -0.553197
O45   O     O_3   0.548087 0.625046 0.815173 -0.490897
C115  C     C_3   0.559972 0.613185 0.865939 -0.009136
H70   H     H_    0.645547 0.643899 0.878360 0.104839
H71   H     H_    0.514703 0.525355 0.875702 0.155425
H72   H     H_    0.522924 0.653781 0.886940 0.180053
O46   O     O_3   0.364205 0.914463 0.816665 -0.484157
C116  C     C_3   0.376622 0.941461 0.867124 -0.011655
H73   H     H_    0.345012 0.996078 0.878520 0.103827
H74   H     H_    0.464672 0.985835 0.876772 0.144375
H75   H     H_    0.337512 0.865242 0.889153 0.174733
O47   O     O_3   0.062806 0.424099 0.813900 -0.495866
C117  C     C_3   0.033578 0.403857 0.863952 -0.011801
H76   H     H_    0.974148 0.317161 0.872897 0.107977
H77   H     H_    0.994328 0.451661 0.875060 0.145577
H78   H     H_    0.108427 0.433026 0.886604 0.183488

loop_
_geom_bond_atom_site_label_1
_geom_bond_atom_site_label_2
_ccdc_geom_bond_type
C15   C18   T    
C108  H49   S    
C10   C85   T    
C99   H22   S    
C82   C94   S    
C9    F24   S    
C99   H23   S    
C27   O38   S    
C9    H15   S    
O42   C112  S    
C31   C43   A    
C82   F16   S    
C100  H25   S    
C14   C17   T    
C110  H57   S    
Cr1   O16   S    
Cr1   O10   S    
C115  H72   S    
C61   H7    S    
C97   H18   S    
C6    C9    S    
C97   H16   S    
C2    O1    A    
C3    O9    A    
C67   H1    S    
O46   C116  S    
C54   C60   A    
C102  H31   S    
C25   C28   A    
C106  H43   S    
C108  H50   S    
Cr2   O16   S    
Cr3   O16   S    
C67   C88   S    
C33   C39   A    
C38   F5    S    
C79   H10   S    
C83   F20   S    
C105  H42   S    
C82   F19   S    
C93   O29   S    
C51   F12   S    
C110  H56   S    
Cr1   O13   S    
C91   O27   S    
C37   C40   A    
C69   C93   S    
Cr4   O24   S    
C104  H38   S    
C34   C77   S    
C41   O40   S    
C64   C70   A    
C69   F9    S    
C45   C48   A    
C2    C18   S    
C10   C94   S    
C24   O26   A    
C7    H13   S    
C30   C57   A    
C40   O39   S    
C67   F7    S    
Cr1   O1    S    
C33   C45   A    
C114  H67   S    
C39   F6    S    
C105  H41   S    
Cr4   O4    S    
C84   C96   S    
C20   O21   A    
C80   C89   S    
C26   O37   S    
O34   C104  S    
O41   C111  S    
C36   C76   S    
C33   C72   A    
C49   F10   S    
C74   H5    S    
Cr5   O23   S    
C101  H30   S    
C66   C72   A    
C7    C88   S    
C34   O12   A    
C28   C40   A    
C116  H73   S    
C106  H44   S    
C98   H21   S    
C81   H12   S    
O44   C114  S    
C23   O25   A    
C107  H46   S    
C32   C38   A    
C39   C42   A    
Cr4   O23   S    
C91   F1    S    
C12   C87   T    
C44   C47   A    
C112  H62   S    
C29   C41   A    
C49   C52   A    
C58   C61   A    
C101  H29   S    
Cr3   O3    S    
C63   C66   A    
C75   H6    S    
C117  H76   S    
C84   F18   S    
C37   F4    S    
C81   F15   S    
C36   O11   A    
C60   O44   S    
C80   C83   S    
C79   C88   S    
C97   H17   S    
C28   C55   A    
Cr4   O17   S    
C22   O5    A    
C32   C71   A    
Cr6   O19   S    
Cr5   O18   S    
C53   C59   A    
C108  H51   S    
C49   C76   A    
C26   C77   A    
O38   C108  S    
Cr3   O12   S    
C55   C70   A    
C79   F13   S    
C103  H34   S    
Cr3   O9    S    
Cr2   O2    S    
C100  H27   S    
C110  H55   S    
C38   C41   A    
C104  H39   S    
C42   O41   S    
O31   C101  S    
C69   H3    S    
C19   C48   S    
C45   O35   S    
C6    O32   S    
C4    C7    S    
C65   C71   A    
C27   C78   A    
C8    F23   S    
C92   C95   S    
C65   C74   A    
C31   C37   A    
C22   O24   A    
C105  H40   S    
C1    O3    A    
Cr2   O14   S    
C61   C64   A    
C35   O10   A    
C104  H37   S    
Cr1   O7    S    
C14   C89   S    
C111  H58   S    
C5    C8    S    
Cr6   O6    S    
Cr5   O25   S    
C103  H35   S    
C109  H52   S    
C62   H8    S    
C93   F3    S    
C68   F8    S    
C19   O20   A    
C106  H45   S    
C83   C95   S    
C107  H48   S    
C67   C91   S    
C68   C89   S    
C32   C44   A    
C80   F14   S    
C113  H65   S    
Cr6   O23   S    
C22   C87   S    
C20   O19   A    
C48   C75   A    
C58   O42   S    
O29   C99   S    
C102  H32   S    
C52   C58   A    
C26   C29   A    
C4    C94   S    
C81   C90   S    
Cr3   O15   S    
C101  H28   S    
C109  H53   S    
C64   C73   A    
O33   C103  S    
C93   C96   S    
C6    C96   S    
C117  H77   S    
C83   F17   S    
C84   F21   S    
C4    O30   S    
C117  H78   S    
Cr6   O26   S    
C21   O22   A    
C69   C90   S    
C50   C77   A    
C44   O34   S    
C21   O17   A    
C92   O28   S    
C81   C84   S    
Cr2   O8    S    
O32   C102  S    
O30   C100  S    
C102  H33   S    
C11   C95   S    
C43   O33   S    
C59   C62   A    
C4    O45   S    
C62   C65   A    
C7    F22   S    
C98   H19   S    
C1    C17   S    
C30   C42   A    
C68   H2    S    
C47   C74   A    
O27   C97   S    
C115  H71   S    
C25   O36   S    
C9    C90   S    
C79   C82   S    
C23   O6    A    
C3    O2    A    
C52   C55   A    
C29   C56   A    
O37   C107  S    
C111  H60   S    
C112  H63   S    
C35   C78   S    
C50   F11   S    
Cr5   O5    S    
C114  H69   S    
C92   F2    S    
C51   C54   A    
O36   C106  S    
C31   C70   A    
O47   C117  S    
C36   O15   A    
O45   C115  S    
C51   C78   A    
O35   C105  S    
C111  H59   S    
Cr5   O21   S    
C91   C94   S    
C6    O47   S    
C35   O14   A    
C73   H4    S    
C5    C95   S    
C24   C86   S    
C116  H75   S    
C66   C75   A    
C13   C88   S    
Cr2   O11   S    
C24   O4    A    
C68   C92   S    
C114  H68   S    
C113  H66   S    
C98   H20   S    
Cr6   O22   S    
O39   C109  S    
C57   C72   A    
C63   H9    S    
O43   C113  S    
C43   C46   A    
C53   C56   A    
C1    O7    A    
C103  H36   S    
C60   C63   A    
Cr4   O20   S    
C8    H14   S    
C2    O8    A    
O40   C110  S    
C109  H54   S    
C80   H11   S    
C34   O13   A    
C25   C76   A    
C116  H74   S    
C112  H61   S    
C23   C85   S    
C13   C16   T    
C113  H64   S    
C5    O46   S    
C15   C90   S    
C27   C30   A    
C12   C96   S    
C100  H26   S    
C107  H47   S    
C8    C89   S    
C11   C86   T    
C21   C47   S    
C5    O31   S    
O28   C98   S    
C59   O43   S    
C19   O18   A    
C46   C73   A    
C20   C46   S    
C3    C16   S    
C115  H70   S    
C56   C71   A    
C50   C53   A    
C99   H24   S    
C54   C57   A    
