data_mof_unit_9735.cif
_audit_creation_date              2012-12-10T17:18:54-0500
_audit_creation_method            fapswitch 2.2
_symmetry_space_group_name_H-M    P1
_symmetry_Int_Tables_number       1
_space_group_crystal_system       triclinic
_cell_length_a                    9.583013
_cell_length_b                    10.860219
_cell_length_c                    13.33046
_cell_angle_alpha                 93.220548
_cell_angle_beta                  72.761878
_cell_angle_gamma                 90.935463
_cell_volume                      1322.93871838

loop_
_atom_site_label
_atom_site_type_symbol
_atom_type_description
_atom_site_fract_x
_atom_site_fract_y
_atom_site_fract_z
_atom_type_partial_charge
C1    C     C_R   0.503365 0.736974 0.493640 0.800958
C2    C     C_R   0.449961 0.493026 0.975641 0.062385
C3    C     C_R   0.467506 0.538403 0.875195 0.104337
C4    C     C_R   0.553642 0.526283 0.029485 0.042171
C5    C     C_R   0.647497 0.628022 0.995755 0.146801
C6    C     C_R   0.656147 0.679087 0.900370 -0.244474
C7    C     C_R   0.570650 0.632369 0.839204 -0.211974
C8    C     C_R   0.565629 0.464793 0.117424 0.032237
C9    C     C_R   0.709970 0.635345 0.158603 -0.229235
C10   C     C_R   0.377396 0.491810 0.814863 -0.104075
C11   C     C_R   0.306881 0.874493 0.405742 -0.146373
C12   C     C_R   0.421849 0.501689 0.700374 0.771183
C13   C     C_R   0.177792 0.929217 0.403086 -0.151592
C14   C     C_R   0.136237 0.042571 0.456132 -0.153615
C15   C     C_R   0.231482 0.107276 0.501252 -0.160417
C16   C     C_R   0.370973 0.058838 0.494273 0.064044
C17   C     C_R   0.396251 0.933759 0.461582 0.088521
C18   C     C_R   0.505584 0.870964 0.489780 -0.146223
C19   C     C_R   0.602221 0.936255 0.533379 -0.245987
C20   C     C_R   0.595529 0.064171 0.548228 0.089362
C21   C     C_R   0.484170 0.128075 0.521159 -0.153296
C22   C     C_R   0.910902 0.338349 0.357382 -0.157289
C23   C     C_R   0.494670 0.262691 0.508837 0.784480
C24   C     C_R   0.010257 0.259260 0.287491 -0.230029
C25   C     C_R   0.153384 0.257747 0.288772 -0.225020
C26   C     C_R   0.197918 0.335849 0.359588 -0.156340
C27   C     C_R   0.101445 0.419691 0.430611 0.198749
C28   C     C_R   0.952168 0.420282 0.430101 0.203287
C29   C     C_R   0.900204 0.576442 0.566254 -0.073249
C30   C     C_R   0.048264 0.576501 0.566155 -0.063438
C31   C     C_R   0.578523 0.502732 0.300129 0.776639
C32   C     C_R   0.728482 0.679529 0.059531 -0.201061
C33   C     C_R   0.624438 0.530403 0.189199 -0.044437
C34   C     C_R   0.254885 0.420082 0.862011 -0.201849
C35   C     C_R   0.225369 0.390406 0.966430 -0.141014
C36   C     C_R   0.322510 0.425153 0.022620 -0.203357
Cu1   Cu    Cu3+1 0.359340 0.500010 0.500010 0.917897
Cu2   Cu    Cu3+1 0.640660 0.499990 0.499990 0.917814
H1    H     H_    0.759360 0.684701 0.212353 0.155494
H2    H     H_    0.335115 0.785492 0.364549 0.158116
H3    H     H_    0.107297 0.881421 0.363579 0.138920
H4    H     H_    0.031223 0.081661 0.460711 0.143878
H5    H     H_    0.189817 0.191547 0.546000 0.167059
H6    H     H_    0.823812 0.639212 0.620384 0.133140
H7    H     H_    0.803342 0.330486 0.351189 0.200363
H8    H     H_    0.975275 0.197636 0.232864 0.150989
H9    H     H_    0.230032 0.194026 0.235714 0.155687
H10   H     H_    0.308288 0.325195 0.357134 0.202305
H11   H     H_    0.728888 0.755690 0.873093 0.137973
H12   H     H_    0.082514 0.639224 0.620279 0.142791
H13   H     H_    0.797494 0.759295 0.036079 0.139525
H14   H     H_    0.183815 0.384510 0.817335 0.149960
H15   H     H_    0.294895 0.401587 0.103907 0.156939
H16   H     H_    0.129005 0.337207 0.003136 0.140742
H17   H     H_    0.579260 0.676400 0.766802 0.148584
H18   H     H_    0.681999 0.886392 0.558496 0.155149
N1    N     N_R   0.852480 0.498790 0.499000 -0.199289
N2    N     N_R   0.148360 0.498710 0.498970 -0.202534
O1    O     O_R   0.381190 0.680360 0.500010 -0.579821
O2    O     O_R   0.618760 0.680340 0.500000 -0.584236
O3    O     O_R   0.323240 0.499990 0.650990 -0.576739
O4    O     O_R   0.560820 0.499960 0.650980 -0.573849
O5    O     O_R   0.381240 0.319660 0.500000 -0.612492
O6    O     O_R   0.618810 0.319640 0.499990 -0.593026
O7    O     O_R   0.439180 0.500040 0.349020 -0.592940
O8    O     O_R   0.676760 0.500010 0.349010 -0.597492
C37   C     C_3   0.702387 0.125876 0.600357 -0.385730
C38   C     C_3   0.622806 0.187796 0.708322 -0.310935
C39   C     C_3   0.728703 0.260458 0.754903 -0.821032
H19   H     H_    0.815093 0.198720 0.763757 0.237450
H20   H     H_    0.780329 0.335776 0.703349 0.268515
H21   H     H_    0.668501 0.301923 0.833623 0.243518
H22   H     H_    0.536943 0.251617 0.702211 0.220844
H23   H     H_    0.568668 0.115865 0.762923 0.205092
H24   H     H_    0.778822 0.056747 0.613338 0.170528
H25   H     H_    0.774835 0.191226 0.548005 0.222410
C40   C     C_3   0.545314 0.325744 0.124480 -0.448558
C41   C     C_3   0.688161 0.260626 0.120729 -0.343899
C42   C     C_3   0.665140 0.121941 0.131242 -0.864405
H26   H     H_    0.583335 0.103349 0.207555 0.257528
H27   H     H_    0.626858 0.080885 0.065837 0.256595
H28   H     H_    0.769909 0.077498 0.128312 0.235682
H29   H     H_    0.772244 0.277106 0.044861 0.223307
H30   H     H_    0.730051 0.297365 0.185655 0.208854
H31   H     H_    0.460792 0.305677 0.197892 0.191097
H32   H     H_    0.510652 0.284241 0.057780 0.211420

loop_
_geom_bond_atom_site_label_1
_geom_bond_atom_site_label_2
_ccdc_geom_bond_type
C19   H18   S    
C31   O8    A    
C16   C21   A    
C20   C37   S    
C35   C36   A    
C7    H17   S    
C4    C8    A    
C13   H3    S    
C40   C41   S    
C1    C18   S    
Cu1   Cu2   S    
C34   C35   A    
C3    C7    A    
C1    O1    A    
C5    C6    A    
C38   H23   S    
C15   C16   A    
C9    H1    S    
C18   C19   A    
C39   H20   S    
C36   H15   S    
C9    C32   A    
C41   H29   S    
Cu2   O8    S    
C16   C17   A    
Cu1   O7    S    
C31   C33   S    
C25   H9    S    
Cu1   N2    S    
C26   H10   S    
C14   H4    S    
C5    C32   A    
C23   O5    A    
C30   H12   S    
C40   H31   S    
C22   C28   A    
C13   C14   A    
C35   H16   S    
C9    C33   A    
C39   H19   S    
Cu1   O5    S    
Cu2   O6    S    
C37   C38   S    
C24   C25   A    
C1    O2    A    
C42   H27   S    
C41   C42   S    
C38   C39   S    
C25   C26   A    
C28   N1    A    
C39   H21   S    
C2    C4    A    
C32   H13   S    
C29   C30   A    
Cu2   N1    S    
C12   O4    A    
C17   C18   A    
C26   C27   A    
C10   C34   A    
Cu1   O1    S    
C10   C12   S    
Cu2   O2    S    
C23   O6    A    
C29   N1    A    
C40   H32   S    
C21   C23   S    
C29   H6    S    
C8    C40   S    
C22   C24   A    
C37   H24   S    
C2    C36   A    
C31   O7    A    
C11   C17   A    
C4    C5    A    
C27   N2    A    
C42   H28   S    
Cu1   O3    S    
C6    C7    A    
C34   H14   S    
C24   H8    S    
C19   C20   A    
C2    C3    A    
C38   H22   S    
C15   H5    S    
C3    C10   A    
C12   O3    A    
C11   C13   A    
C30   N2    A    
C8    C33   A    
C6    H11   S    
C11   H2    S    
C42   H26   S    
C41   H30   S    
C22   H7    S    
C20   C21   A    
C27   C28   A    
C14   C15   A    
C37   H25   S    
Cu2   O4    S    
