data_mof_unit_45716.cif
_audit_creation_date              2012-10-26T17:11:03-0400
_audit_creation_method            fapswitch 2.2
_symmetry_space_group_name_H-M    P1
_symmetry_Int_Tables_number       1
_space_group_crystal_system       triclinic
_cell_length_a                    27.933602
_cell_length_b                    18.735297
_cell_length_c                    16.850883
_cell_angle_alpha                 90.001339
_cell_angle_beta                  62.60182
_cell_angle_gamma                 90.000682
_cell_volume                      7829.60771888

loop_
_atom_site_label
_atom_site_type_symbol
_atom_type_description
_atom_site_fract_x
_atom_site_fract_y
_atom_site_fract_z
_atom_type_partial_charge
C1    C     C_R   0.295075 0.728411 0.329576 0.563788
C2    C     C_R   0.423166 0.127874 0.580751 -0.138892
C3    C     C_R   0.926523 0.096908 0.066564 0.557225
C4    C     C_R   0.426679 0.402885 0.066450 0.553370
C5    C     C_R   0.573551 0.596810 0.933382 0.556778
C6    C     C_R   0.573389 0.402976 0.933498 0.552938
C7    C     C_R   0.426522 0.596907 0.066564 0.557224
C8    C     C_R   0.027926 0.500003 0.577766 0.036010
C9    C     C_R   0.930611 0.500003 0.563476 0.036499
C10   C     C_R   0.527926 0.000003 0.577766 0.036010
C11   C     C_R   0.430611 0.000003 0.563476 0.036498
C12   C     C_R   0.001389 0.565336 0.581669 0.015738
C13   C     C_R   0.423174 0.872130 0.580728 -0.137646
C14   C     C_R   0.952270 0.434784 0.574948 0.016069
C15   C     C_R   0.952267 0.565222 0.574959 0.016100
C16   C     C_R   0.001391 0.434669 0.581660 0.015818
C17   C     C_R   0.501389 0.065336 0.581669 0.015737
C18   C     C_R   0.452270 0.934784 0.574948 0.016068
C19   C     C_R   0.452267 0.065222 0.574959 0.016099
C20   C     C_R   0.501391 0.934669 0.581660 0.015817
C21   C     C_R   0.107343 0.434655 0.568061 0.008859
C22   C     C_R   0.862919 0.565159 0.535154 0.008286
C23   C     C_R   0.862921 0.434845 0.535146 0.008429
C24   C     C_R   0.525308 0.128476 0.592002 -0.135154
C25   C     C_R   0.107343 0.565349 0.568066 0.008530
C26   C     C_R   0.607343 0.934655 0.568062 0.008859
C27   C     C_R   0.362919 0.065159 0.535154 0.008285
C28   C     C_R   0.362922 0.934845 0.535146 0.008429
C29   C     C_R   0.607343 0.065349 0.568066 0.008530
C30   C     C_R   0.163103 0.434623 0.547735 -0.024213
C31   C     C_R   0.823272 0.564961 0.503002 -0.024088
C32   C     C_R   0.823274 0.435041 0.502997 -0.023465
C33   C     C_R   0.163103 0.565380 0.547737 -0.025428
C34   C     C_R   0.663103 0.934623 0.547735 -0.024213
C35   C     C_R   0.025310 0.371528 0.591989 -0.133689
C36   C     C_R   0.323272 0.064961 0.503002 -0.024089
C37   C     C_R   0.323274 0.935041 0.502997 -0.023465
C38   C     C_R   0.663103 0.065380 0.547737 -0.025428
C39   C     C_R   0.189489 0.500001 0.538115 -0.159206
C40   C     C_R   0.805438 0.500000 0.485960 -0.164403
C41   C     C_R   0.689489 0.000001 0.538115 -0.159206
C42   C     C_R   0.305438 0.000001 0.485960 -0.164403
C43   C     C_R   0.081065 0.500002 0.570884 0.038009
C44   C     C_R   0.886051 0.500002 0.542949 0.036290
C45   C     C_R   0.581065 0.000002 0.570884 0.038009
C46   C     C_R   0.923166 0.627874 0.580751 -0.138890
C47   C     C_R   0.386051 0.000002 0.542949 0.036288
C48   C     C_R   0.576020 0.872034 0.588333 -0.113946
C49   C     C_R   0.378610 0.127223 0.564843 -0.118416
C50   C     C_R   0.378617 0.872780 0.564824 -0.116654
C51   C     C_R   0.576019 0.127970 0.588343 -0.115827
C52   C     C_R   0.076020 0.372034 0.588333 -0.113945
C53   C     C_R   0.878609 0.627223 0.564843 -0.118415
C54   C     C_R   0.878617 0.372780 0.564824 -0.116651
C55   C     C_R   0.076019 0.627970 0.588343 -0.115826
C56   C     C_R   0.923174 0.372130 0.580728 -0.137642
C57   C     C_R   0.025308 0.628476 0.592002 -0.135153
C58   C     C_R   0.218730 0.764123 0.955491 -0.015357
C59   C     C_R   0.779339 0.232811 0.046482 0.014879
C60   C     C_R   0.782213 0.762675 0.043636 -0.015038
C61   C     C_R   0.705021 0.271786 0.670371 0.544787
C62   C     C_R   0.221635 0.231327 0.952596 0.014407
C63   C     C_R   0.718730 0.264124 0.955493 -0.015352
C64   C     C_R   0.279333 0.732804 0.046488 0.014867
C65   C     C_R   0.282213 0.262675 0.043635 -0.015038
C66   C     C_R   0.721634 0.731328 0.952596 0.014406
C67   C     C_R   0.231790 0.692338 0.964134 0.245070
C68   C     C_R   0.765840 0.303990 0.039317 0.243567
C69   C     C_R   0.769160 0.690880 0.035000 0.245228
C70   C     C_R   0.235156 0.302501 0.959720 0.243454
C71   C     C_R   0.731813 0.192344 0.964101 0.245056
C72   C     C_R   0.704979 0.728308 0.670389 0.544110
C73   C     C_R   0.265864 0.803988 0.039278 0.243572
C74   C     C_R   0.269164 0.190879 0.034993 0.245227
C75   C     C_R   0.735162 0.802502 0.959709 0.243455
C76   C     C_R   0.262611 0.677929 0.008155 -0.099423
C77   C     C_R   0.735772 0.319008 0.993508 -0.140774
C78   C     C_R   0.738355 0.676450 0.990931 -0.099759
C79   C     C_R   0.265210 0.317528 0.005530 -0.140267
C80   C     C_R   0.762638 0.177939 0.008115 -0.099420
C81   C     C_R   0.235796 0.819009 0.993470 -0.140781
C82   C     C_R   0.238359 0.176449 0.990923 -0.099763
C83   C     C_R   0.295029 0.271688 0.329594 0.564433
C84   C     C_R   0.765215 0.817528 0.005522 -0.140264
C85   C     C_R   0.143483 0.827693 0.944784 -0.118897
C86   C     C_R   0.855537 0.170730 0.055953 -0.124049
C87   C     C_R   0.857157 0.826688 0.054731 -0.120219
C88   C     C_R   0.145128 0.169676 0.943521 -0.122505
C89   C     C_R   0.643481 0.327690 0.944785 -0.118904
C90   C     C_R   0.355530 0.670721 0.055958 -0.124036
C91   C     C_R   0.357157 0.326689 0.054731 -0.120222
C92   C     C_R   0.645128 0.669678 0.943522 -0.122508
C93   C     C_R   0.117471 0.851278 0.895417 -0.012157
C94   C     C_R   0.795075 0.228410 0.329576 0.563788
C95   C     C_R   0.882269 0.148360 0.104713 -0.013195
C96   C     C_R   0.882797 0.850889 0.104403 -0.011750
C97   C     C_R   0.118017 0.147945 0.895094 -0.013450
C98   C     C_R   0.617470 0.351277 0.895418 -0.012155
C99   C     C_R   0.382266 0.648357 0.104715 -0.013195
C100  C     C_R   0.382797 0.350889 0.104403 -0.011751
C101  C     C_R   0.618017 0.647945 0.895095 -0.013450
C102  C     C_R   0.136441 0.829618 0.806920 -0.136953
C103  C     C_R   0.863757 0.170789 0.192841 -0.136630
C104  C     C_R   0.863650 0.829515 0.193042 -0.134974
C105  C     C_R   0.205021 0.771785 0.670371 0.544788
C106  C     C_R   0.136349 0.170672 0.807124 -0.138545
C107  C     C_R   0.636440 0.329617 0.806920 -0.136951
C108  C     C_R   0.363757 0.670789 0.192840 -0.136629
C109  C     C_R   0.363650 0.329515 0.193042 -0.134977
C110  C     C_R   0.636349 0.670672 0.807124 -0.138545
C111  C     C_R   0.182360 0.787149 0.766054 -0.015946
C112  C     C_R   0.817775 0.213134 0.233829 -0.022425
C113  C     C_R   0.817898 0.786716 0.233753 -0.016967
C114  C     C_R   0.182498 0.212678 0.765970 -0.021055
C115  C     C_R   0.682360 0.287149 0.766053 -0.015950
C116  C     C_R   0.204978 0.228308 0.670389 0.544110
C117  C     C_R   0.317775 0.713134 0.233829 -0.022419
C118  C     C_R   0.317898 0.286715 0.233753 -0.016968
C119  C     C_R   0.682499 0.712678 0.765970 -0.021056
C120  C     C_R   0.208668 0.764159 0.815392 -0.118382
C121  C     C_R   0.791181 0.235646 0.184758 -0.061569
C122  C     C_R   0.791971 0.763070 0.184066 -0.114597
C123  C     C_R   0.209484 0.234509 0.814666 -0.064856
C124  C     C_R   0.708668 0.264161 0.815392 -0.118371
C125  C     C_R   0.291180 0.735645 0.184759 -0.061574
C126  C     C_R   0.291971 0.263069 0.184066 -0.114591
C127  C     C_R   0.795029 0.771688 0.329594 0.564434
C128  C     C_R   0.709484 0.734508 0.814666 -0.064854
C129  C     C_R   0.189120 0.784024 0.905098 -0.022169
C130  C     C_R   0.809895 0.214381 0.095710 0.030864
C131  C     C_R   0.811679 0.782719 0.094235 -0.022089
C132  C     C_R   0.190935 0.213019 0.903575 0.030644
C133  C     C_R   0.689119 0.284025 0.905099 -0.022160
C134  C     C_R   0.309890 0.714374 0.095714 0.030868
C135  C     C_R   0.311679 0.282719 0.094235 -0.022090
C136  C     C_R   0.690935 0.713020 0.903575 0.030641
C137  C     C_R   0.196339 0.631754 0.528493 0.549999
C138  C     C_R   0.525310 0.871528 0.591989 -0.133690
C139  C     C_R   0.799068 0.368857 0.488112 0.558363
C140  C     C_R   0.799066 0.631144 0.488117 0.556061
C141  C     C_R   0.196339 0.368247 0.528492 0.552418
C142  C     C_R   0.696339 0.131754 0.528493 0.549998
C143  C     C_R   0.299068 0.868857 0.488112 0.558363
C144  C     C_R   0.299066 0.131143 0.488117 0.556061
C145  C     C_R   0.696339 0.868247 0.528492 0.552418
C146  C     C_R   0.926679 0.902885 0.066450 0.553371
C147  C     C_R   0.073551 0.096809 0.933381 0.556775
C148  C     C_R   0.073389 0.902976 0.933498 0.552937
Cu1   Cu    Cu3+1 0.209920 0.785290 0.495070 0.934602
Cu2   Cu    Cu3+1 0.504760 0.500000 0.075850 0.937322
Cu3   Cu    Cu3+1 0.995240 0.000000 0.924150 0.928396
Cu4   Cu    Cu3+1 0.004760 0.000000 0.075850 0.937332
Cu5   Cu    Cu3+1 0.790080 0.214710 0.504930 0.929363
Cu6   Cu    Cu3+1 0.790080 0.785290 0.504930 0.928470
Cu7   Cu    Cu3+1 0.209920 0.214710 0.495070 0.935568
Cu8   Cu    Cu3+1 0.709920 0.285290 0.495070 0.934600
Cu9   Cu    Cu3+1 0.290080 0.714710 0.504930 0.929354
Cu10  Cu    Cu3+1 0.290080 0.285290 0.504930 0.928466
Cu11  Cu    Cu3+1 0.709920 0.714710 0.495070 0.935566
Cu12  Cu    Cu3+1 0.495240 0.500000 0.924150 0.928395
H1    H     H_    0.232033 0.500001 0.520247 0.161777
H2    H     H_    0.856433 0.676448 0.580103 0.157396
H3    H     H_    0.856443 0.323554 0.580082 0.158692
H4    H     H_    0.088970 0.677793 0.603925 0.152623
H5    H     H_    0.505997 0.820181 0.603001 0.105730
H6    H     H_    0.433073 0.178710 0.599187 0.103658
H7    H     H_    0.433083 0.821293 0.599153 0.104885
H8    H     H_    0.505995 0.179824 0.603017 0.104656
H9    H     H_    0.005997 0.320181 0.603001 0.105731
H10   H     H_    0.933073 0.678710 0.599188 0.103659
H11   H     H_    0.933083 0.321293 0.599154 0.104887
H12   H     H_    0.776080 0.500000 0.460705 0.160952
H13   H     H_    0.005995 0.679824 0.603017 0.104656
H14   H     H_    0.226339 0.873947 0.986090 0.110466
H15   H     H_    0.772260 0.122937 0.014831 0.140457
H16   H     H_    0.774670 0.872473 0.012872 0.111007
H17   H     H_    0.228722 0.121451 0.984219 0.139721
H18   H     H_    0.726299 0.373944 0.986153 0.110464
H19   H     H_    0.272216 0.622923 0.014899 0.140461
H20   H     H_    0.274662 0.372474 0.012884 0.111004
H21   H     H_    0.728714 0.621452 0.984231 0.139723
H22   H     H_    0.129142 0.844418 0.013558 0.136705
H23   H     H_    0.732033 0.000001 0.520247 0.161778
H24   H     H_    0.869328 0.153081 0.987650 0.131996
H25   H     H_    0.871623 0.843234 0.985864 0.134483
H26   H     H_    0.131460 0.151841 0.011721 0.134105
H27   H     H_    0.629138 0.344413 0.013560 0.136691
H28   H     H_    0.369318 0.653067 0.987657 0.132000
H29   H     H_    0.371622 0.343235 0.985865 0.134485
H30   H     H_    0.631458 0.651844 0.011722 0.134102
H31   H     H_    0.116699 0.848329 0.768533 0.154245
H32   H     H_    0.883855 0.152685 0.230927 0.157920
H33   H     H_    0.883097 0.848737 0.231664 0.156424
H34   H     H_    0.276080 1.000000 0.460705 0.160952
H35   H     H_    0.115949 0.153099 0.769293 0.155518
H36   H     H_    0.616698 0.348328 0.768532 0.154244
H37   H     H_    0.383857 0.652688 0.230926 0.157918
H38   H     H_    0.383097 0.348737 0.231664 0.156424
H39   H     H_    0.615949 0.653099 0.769293 0.155518
H40   H     H_    0.245144 0.732493 0.783818 0.155043
H41   H     H_    0.754658 0.267186 0.216568 0.165041
H42   H     H_    0.755619 0.731153 0.215494 0.159266
H43   H     H_    0.246137 0.265780 0.782692 0.160701
H44   H     H_    0.745146 0.232498 0.783816 0.155068
H45   H     H_    0.588970 0.822210 0.603912 0.153642
H46   H     H_    0.254658 0.767189 0.216567 0.165010
H47   H     H_    0.255620 0.231151 0.215493 0.159266
H48   H     H_    0.746138 0.765779 0.782691 0.160709
H49   H     H_    0.184797 0.649713 0.920268 0.336876
H50   H     H_    0.770641 0.404384 0.064503 0.334954
H51   H     H_    0.815991 0.648354 0.079249 0.336416
H52   H     H_    0.230349 0.402904 0.934548 0.334270
H53   H     H_    0.684821 0.149707 0.920243 0.336872
H54   H     H_    0.270754 0.904394 0.064316 0.334962
H55   H     H_    0.316000 0.148355 0.079233 0.336415
H56   H     H_    0.356433 0.176448 0.580103 0.157397
H57   H     H_    0.730379 0.902902 0.934496 0.334267
H58   H     H_    0.356443 0.823554 0.580082 0.158692
H59   H     H_    0.588970 0.177793 0.603925 0.152623
H60   H     H_    0.088970 0.322211 0.603912 0.153642
O1    O     O_R   0.255040 0.869590 0.478480 -0.501954
O2    O     O_R   0.817950 0.203450 0.375560 -0.505388
O3    O     O_R   0.817950 0.796550 0.375560 -0.506821
O4    O     O_R   0.182050 0.203450 0.624440 -0.519425
O5    O     O_R   0.682050 0.296550 0.624440 -0.520644
O6    O     O_R   0.317950 0.703450 0.375560 -0.505388
O7    O     O_R   0.317950 0.296550 0.375560 -0.506822
O8    O     O_R   0.682050 0.703450 0.624440 -0.519425
O9    O     O_R   0.250530 0.763330 0.367210 -0.503960
O10   O     O_R   0.749470 0.236670 0.632790 -0.522101
O11   O     O_R   0.749470 0.763330 0.632790 -0.522567
O12   O     O_R   0.744960 0.130410 0.521520 -0.504225
O13   O     O_R   0.250530 0.236670 0.367210 -0.503127
O14   O     O_R   0.750530 0.263330 0.367210 -0.503960
O15   O     O_R   0.249470 0.736670 0.632790 -0.522104
O16   O     O_R   0.249470 0.263330 0.632790 -0.522567
O17   O     O_R   0.750530 0.736670 0.367210 -0.503128
O18   O     O_R   0.177260 0.690030 0.513710 -0.519162
O19   O     O_R   0.822740 0.309970 0.486290 -0.520716
O20   O     O_R   0.822740 0.690030 0.486290 -0.521701
O21   O     O_R   0.177260 0.309970 0.513710 -0.518341
O22   O     O_R   0.677260 0.190030 0.513710 -0.519163
O23   O     O_R   0.744960 0.869590 0.521520 -0.503165
O24   O     O_R   0.322740 0.809970 0.486290 -0.520717
O25   O     O_R   0.322740 0.190030 0.486290 -0.521702
O26   O     O_R   0.677260 0.809970 0.513710 -0.518342
O27   O     O_R   0.051640 0.926880 0.885090 -0.513163
O28   O     O_R   0.948360 0.073120 0.114910 -0.510154
O29   O     O_R   0.948360 0.926880 0.114910 -0.511499
O30   O     O_R   0.051640 0.073120 0.885090 -0.511869
O31   O     O_R   0.551640 0.426880 0.885090 -0.513163
O32   O     O_R   0.448360 0.573120 0.114910 -0.510154
O33   O     O_R   0.448360 0.426880 0.114910 -0.511501
O34   O     O_R   0.255040 0.130410 0.478480 -0.503185
O35   O     O_R   0.551640 0.573120 0.885090 -0.511867
O36   O     O_R   0.940620 0.926560 0.986760 -0.514468
O37   O     O_R   0.059380 0.073440 0.013240 -0.511255
O38   O     O_R   0.059380 0.926560 0.013240 -0.513225
O39   O     O_R   0.940620 0.073440 0.986760 -0.512593
O40   O     O_R   0.440620 0.426560 0.986760 -0.514469
O41   O     O_R   0.559380 0.573440 0.013240 -0.511255
O42   O     O_R   0.559380 0.426560 0.013240 -0.513228
O43   O     O_R   0.440620 0.573440 0.986760 -0.512593
O44   O     O_3   0.214584 0.634730 0.932825 -0.697295
O45   O     O_R   0.755040 0.369590 0.478480 -0.501954
O46   O     O_3   0.783523 0.357867 0.075392 -0.688070
O47   O     O_3   0.786327 0.633299 0.066409 -0.696883
O48   O     O_3   0.217465 0.356385 0.923665 -0.688369
O49   O     O_3   0.714624 0.134736 0.932764 -0.697306
O50   O     O_3   0.283577 0.857867 0.075303 -0.688049
O51   O     O_3   0.286335 0.133299 0.066396 -0.696889
O52   O     O_3   0.717479 0.856385 0.923641 -0.688377
O53   O     O_R   0.244960 0.630410 0.521520 -0.504226
O54   O     O_R   0.244960 0.369590 0.521520 -0.503165
O55   O     O_R   0.755040 0.630410 0.478480 -0.503186
O56   O     O_R   0.182050 0.796550 0.624440 -0.520644

loop_
_geom_bond_atom_site_label_1
_geom_bond_atom_site_label_2
_ccdc_geom_bond_type
Cu8   O5    S    
C1    O6    A    
C79   H20   S    
C86   H24   S    
C123  H43   S    
C141  O21   A    
C11   C18   A    
C116  O4    A    
C85   H22   S    
C65   C79   A    
C72   O11   A    
Cu6   O11   S    
C89   H27   S    
C105  O15   A    
C11   C47   A    
H49   O44   S    
C120  H40   S    
C8    C43   A    
Cu12  O40   S    
C121  C130  A    
C76   H19   S    
C112  C121  A    
C25   C43   A    
C61   O10   A    
C67   O44   S    
C69   C78   A    
Cu3   O39   S    
C28   C47   A    
C83   O7    A    
C59   C130  S    
C99   C108  A    
C91   H29   S    
C49   H56   S    
C11   C19   A    
C33   C39   A    
C30   C141  S    
Cu2   Cu12  S    
C145  O26   A    
C106  C114  A    
C138  H5    S    
C60   C84   A    
C6    C98   S    
C140  O55   A    
C71   O49   S    
C24   H8    S    
Cu9   O24   S    
C29   C51   A    
C55   H4    S    
C41   H23   S    
C73   O50   S    
C128  C136  A    
C16   C35   A    
Cu9   O53   S    
C90   C134  A    
C34   C145  S    
C3    O39   A    
C53   H2    S    
C13   H7    S    
C75   O52   S    
Cu7   O13   S    
C58   C129  S    
C87   C131  A    
Cu6   O20   S    
C125  H46   S    
C140  O20   A    
C31   C40   A    
C145  O23   A    
C93   C148  S    
C13   C18   A    
C20   C138  A    
C37   C42   A    
C42   H34   S    
C107  H36   S    
C108  H37   S    
C110  H39   S    
C26   C45   A    
Cu10  O16   S    
C21   C43   A    
C85   C93   A    
Cu4   O37   S    
C26   C34   A    
C22   C44   A    
C113  C122  A    
C83   O13   A    
C10   C20   A    
C6    O31   A    
C48   H45   S    
C61   C115  S    
Cu12  O43   S    
C64   C73   A    
Cu5   O12   S    
C7    O43   A    
Cu8   O22   S    
Cu10  O25   S    
C54   H3    S    
Cu3   O30   S    
C2    H6    S    
C21   C30   A    
C68   O46   S    
C88   C97   A    
C127  O3    A    
C85   C129  A    
C119  C128  A    
C24   C51   A    
C88   H26   S    
C105  C111  S    
Cu3   Cu4   S    
C100  C109  A    
C8    C16   A    
C103  H32   S    
C83   C118  S    
C144  O25   A    
Cu1   Cu9   S    
Cu7   Cu10  S    
C5    O41   A    
C97   C147  S    
Cu12  O31   S    
C12   C57   A    
C109  H38   S    
C92   C136  A    
C34   C41   A    
Cu1   O1    S    
C141  O54   A    
C74   C82   A    
C1    O9    A    
C8    C12   A    
C60   C131  S    
C73   C81   A    
Cu4   O29   S    
H54   O50   S    
C95   C103  A    
C109  C118  A    
Cu10  O54   S    
C22   C53   A    
C5    C101  S    
Cu11  O17   S    
C66   C78   A    
C54   C56   A    
C52   H60   S    
C17   C24   A    
C89   C133  A    
C22   C31   A    
Cu8   O45   S    
C146  O29   A    
C139  O19   A    
C120  C129  A    
C139  O45   A    
Cu1   O56   S    
C62   C132  S    
C96   C104  A    
C29   C38   A    
C128  H48   S    
C38   C41   A    
C87   H25   S    
C82   H17   S    
C58   C81   A    
C33   C137  S    
C4    O40   A    
Cu5   O19   S    
C94   O14   A    
Cu2   O33   S    
C51   H59   S    
C101  C110  A    
C142  O22   A    
C144  O34   A    
C50   H58   S    
C148  O27   A    
C61   O5    A    
C65   C74   A    
C46   H10   S    
C29   C45   A    
C103  C112  A    
C75   C84   A    
C147  O37   A    
C137  O53   A    
C9    C14   A    
Cu11  O26   S    
C69   O47   S    
C2    C49   A    
C36   C42   A    
C59   C68   A    
C92   H30   S    
C59   C80   A    
C142  O12   A    
Cu7   O34   S    
C105  O56   A    
C12   C15   A    
C126  H47   S    
C104  H33   S    
C87   C96   A    
C116  O16   A    
C10   C45   A    
H51   O47   S    
C102  H31   S    
C64   C76   A    
C91   C135  A    
C70   O48   S    
C6    O42   A    
C1    C117  S    
Cu11  O8    S    
C28   C37   A    
Cu5   Cu8   S    
C102  C111  A    
C107  C115  A    
C65   C135  S    
C7    C99   S    
Cu9   O6    S    
Cu2   O42   S    
C57   H13   S    
C114  C123  A    
C124  C133  A    
C63   C71   A    
C126  C135  A    
C127  O17   A    
C55   C57   A    
C56   H11   S    
Cu8   O14   S    
C91   C100  A    
C66   C136  S    
Cu5   O10   S    
Cu6   O3    S    
C39   H1    S    
C3    O28   A    
C97   C106  A    
C32   C139  S    
Cu7   O21   S    
C90   C99   A    
C40   H12   S    
Cu7   O4    S    
Cu12  O35   S    
C23   C54   A    
C63   C77   A    
C27   C47   A    
C68   C77   A    
C114  C116  S    
Cu6   O23   S    
C35   C52   A    
C9    C44   A    
C115  C124  A    
C37   C143  S    
C146  O36   A    
C2    C19   A    
C137  O18   A    
C93   C102  A    
C108  C117  A    
C86   C130  A    
C25   C55   A    
C80   H15   S    
C148  O38   A    
C123  C132  A    
C110  C119  A    
C143  O1    A    
C18   C20   A    
C71   C80   A    
C74   O51   S    
C62   C70   A    
C64   C134  S    
Cu2   O32   S    
C92   C101  A    
C113  C127  S    
C26   C48   A    
C27   C36   A    
H57   O52   S    
C118  C126  A    
C63   C133  S    
C7    O32   A    
C77   H18   S    
C48   C138  A    
C89   C98   A    
C78   H21   S    
Cu11  O55   S    
C23   C32   A    
C5    O35   A    
C4    C100  S    
C36   C144  S    
C106  H35   S    
Cu1   O9    S    
Cu6   Cu11  S    
C125  C134  A    
C81   H14   S    
C14   C56   A    
Cu3   O27   S    
C124  H44   S    
C122  H42   S    
C122  C131  A    
C70   C79   A    
C46   C53   A    
C90   H28   S    
C60   C69   A    
C35   H9    S    
C66   C75   A    
Cu1   O18   S    
C94   C112  S    
C104  C113  A    
C17   C19   A    
C30   C39   A    
C38   C142  S    
C147  O30   A    
C14   C16   A    
C32   C40   A    
C62   C82   A    
C4    O33   A    
C28   C50   A    
Cu4   O28   S    
C72   C119  S    
C86   C95   A    
C23   C44   A    
Cu2   O41   S    
C121  H41   S    
C13   C50   A    
Cu4   O38   S    
C58   C67   A    
Cu5   O2    S    
Cu9   O15   S    
H52   O48   S    
H50   O46   S    
C72   O8    A    
H53   O49   S    
C96   C146  S    
C94   O2    A    
C88   C132  A    
C143  O24   A    
C111  C120  A    
C3    C95   S    
C67   C76   A    
C10   C17   A    
C15   C46   A    
H55   O51   S    
C31   C140  S    
C84   H16   S    
C117  C125  A    
Cu10  O7    S    
C21   C52   A    
C27   C49   A    
C9    C15   A    
C25   C33   A    
Cu3   O36   S    
C98   C107  A    
