data_mof_unit_49374.cif
_audit_creation_date              2012-12-11T15:53:35-0500
_audit_creation_method            fapswitch 2.2
_symmetry_space_group_name_H-M    P1
_symmetry_Int_Tables_number       1
_space_group_crystal_system       triclinic
_cell_length_a                    7.004824
_cell_length_b                    14.541781
_cell_length_c                    16.038175
_cell_angle_alpha                 90.674469
_cell_angle_beta                  90.412053
_cell_angle_gamma                 89.985318
_cell_volume                      1633.53501039

loop_
_atom_site_label
_atom_site_type_symbol
_atom_type_description
_atom_site_fract_x
_atom_site_fract_y
_atom_site_fract_z
_atom_type_partial_charge
O1    O     O_R   0.361600 0.167310 0.164620 -0.545035
O2    O     O_R   0.638400 0.832690 0.835380 -0.544977
O3    O     O_R   0.691080 0.157570 0.338750 -0.549053
O4    O     O_R   0.308920 0.842430 0.661250 -0.549867
O5    O     O_R   0.861410 0.336420 0.339360 -0.542505
O6    O     O_R   0.138590 0.663580 0.660640 -0.537678
C1    C     C_R   0.521494 0.135993 0.368133 0.732632
C2    C     C_R   0.477681 0.865162 0.633470 0.752950
O7    O     O_R   0.691320 0.156280 0.165240 -0.547614
O8    O     O_R   0.308680 0.843720 0.834760 -0.547940
O9    O     O_R   0.861640 0.335130 0.164600 -0.550023
O10   O     O_R   0.138360 0.664870 0.835400 -0.543199
C3    C     C_R   0.522068 0.133945 0.136260 0.657179
C4    C     C_R   0.477975 0.866319 0.863522 0.657676
O11   O     O_R   0.361370 0.168600 0.339370 -0.512706
O12   O     O_R   0.638630 0.831400 0.660630 -0.504665
O13   O     O_3   0.527990 0.310540 0.251980 -0.358361
O14   O     O_3   0.472010 0.689460 0.748020 -0.371454
V1    V     V_3+5 0.802830 0.240980 0.251990 1.422705
V2    V     V_3+5 0.197170 0.759020 0.748010 1.430094
O15   O     O_R   0.191360 0.346160 0.165220 -0.513966
O16   O     O_R   0.808640 0.653840 0.834780 -0.548530
C5    C     C_R   0.022833 0.366299 0.134938 0.710754
C6    C     C_R   0.977296 0.630834 0.862930 0.697138
O17   O     O_R   0.191130 0.347440 0.338740 -0.519898
O18   O     O_R   0.808870 0.652560 0.661260 -0.529042
C7    C     C_R   0.023130 0.369971 0.366838 0.739344
C8    C     C_R   0.976828 0.631785 0.631847 0.780126
V3    V     V_3+5 0.302840 0.262750 0.251990 1.494723
V4    V     V_3+5 0.697160 0.737250 0.748010 1.457144
O19   O     O_3   0.027820 0.193180 0.251990 -0.371740
O20   O     O_3   0.972180 0.806820 0.748010 -0.367021
C9    C     C_3   0.827385 0.464027 0.483147 -0.252544
C10   C     C_3   0.172679 0.540942 0.513214 -0.199101
C11   C     C_3   0.940855 0.461095 0.566011 0.273770
C12   C     C_3   0.059282 0.543270 0.430400 0.275168
H1    H     H_    0.685414 0.432401 0.471541 0.204581
H2    H     H_    0.314629 0.572737 0.524755 0.193243
C13   C     C_3   0.985661 0.563989 0.560557 -0.202620
C14   C     C_3   0.015112 0.440101 0.436362 -0.193411
C15   C     C_3   0.874666 0.568023 0.476895 0.241447
C16   C     C_3   0.126452 0.436800 0.520192 0.260343
C17   C     C_R   0.826124 0.507433 0.954980 0.289458
C18   C     C_R   0.177943 0.472606 0.030092 0.307838
C19   C     C_R   0.842836 0.446699 0.021912 -0.254124
C20   C     C_R   0.161805 0.541176 0.969256 -0.246120
H3    H     H_    0.724863 0.405980 0.039705 0.165713
H4    H     H_    0.288550 0.576005 0.949128 0.138806
C21   C     C_R   0.014330 0.431468 0.063116 -0.135981
C22   C     C_R   0.986198 0.560468 0.930575 -0.131540
C23   C     C_R   0.663593 0.049340 0.488016 -0.294029
C24   C     C_R   0.326884 0.955909 0.518757 -0.277739
H5    H     H_    0.787298 0.089445 0.479907 0.144682
H6    H     H_    0.194396 0.920166 0.529953 0.138318
C25   C     C_R   0.655902 0.987926 0.554706 0.314285
C26   C     C_R   0.330867 0.026243 0.459350 0.300942
C27   C     C_R   0.488337 0.936081 0.567508 -0.090554
C28   C     C_R   0.506069 0.067720 0.437589 -0.100867
C29   C     C_R   0.677653 0.027012 0.032098 -0.154565
C30   C     C_R   0.322539 0.974490 0.966691 -0.155834
H7    H     H_    0.817081 0.046223 0.056113 0.117131
H8    H     H_    0.183112 0.955336 0.942631 0.115840
C31   C     C_R   0.666922 0.963033 0.966223 -0.156036
C32   C     C_R   0.333282 0.038523 0.032523 -0.154686
H9    H     H_    0.798523 0.934883 0.941758 0.118194
H10   H     H_    0.201705 0.066820 0.056873 0.116998
C33   C     C_R   0.489180 0.935628 0.932697 -0.040744
C34   C     C_R   0.510969 0.065497 0.066390 -0.040608
N1    N     N_2   0.865086 0.417528 0.639231 -0.506193
H11   H     H_    0.737431 0.447356 0.655946 0.271809
C35   C     C_3   0.849878 0.318411 0.634256 -0.486709
H12   H     H_    0.777564 0.292755 0.690813 0.189453
H13   H     H_    0.993382 0.286624 0.631725 0.230525
H14   H     H_    0.765391 0.296880 0.578453 0.211832
N2    N     N_2   0.125822 0.585947 0.354882 -0.493401
H15   H     H_    0.042067 0.570646 0.303456 0.253637
C36   C     C_3   0.173774 0.682431 0.362188 -0.437462
H16   H     H_    0.250654 0.704009 0.305394 0.199885
H17   H     H_    0.267837 0.695407 0.417024 0.225526
H18   H     H_    0.042457 0.724556 0.368255 0.209639
Br1   Br    Br    0.689923 0.661234 0.446912 -0.625400
Br2   Br    Br    0.330248 0.357220 0.557714 -0.680470
N3    N     N_2   0.649240 0.509583 0.911507 -0.544210
H19   H     H_    0.586028 0.573249 0.909152 0.263446
C37   C     C_3   0.646664 0.458931 0.833463 -0.483109
H20   H     H_    0.500605 0.460339 0.806132 0.203383
H21   H     H_    0.688871 0.386219 0.843494 0.188247
H22   H     H_    0.747382 0.490242 0.789290 0.200882
N4    N     N_2   0.358835 0.435570 0.048928 -0.496709
H23   H     H_    0.467360 0.482793 0.046405 0.260241
C38   C     C_3   0.393133 0.346351 0.009373 -0.457670
H24   H     H_    0.451291 0.355126 0.946099 0.197950
H25   H     H_    0.260577 0.304689 0.003389 0.165535
H26   H     H_    0.493764 0.305772 0.047831 0.175873
N5    N     N_2   0.813711 0.982638 0.610859 -0.497618
H27   H     H_    0.943038 0.995823 0.583639 0.247279
C39   C     C_3   0.790031 0.035351 0.687186 -0.509452
H28   H     H_    0.914628 0.023734 0.728957 0.191835
H29   H     H_    0.659212 0.013724 0.720419 0.181590
H30   H     H_    0.780692 0.109896 0.673202 0.176965
N6    N     N_2   0.156148 0.065151 0.432304 -0.508498
H31   H     H_    0.044020 0.019428 0.429175 0.243954
C40   C     C_3   0.113138 0.150992 0.475628 -0.468602
H32   H     H_    0.002498 0.189582 0.440856 0.193770
H33   H     H_    0.240061 0.195719 0.479809 0.235494
H34   H     H_    0.066025 0.137838 0.540329 0.163913

loop_
_geom_bond_atom_site_label_1
_geom_bond_atom_site_label_2
_ccdc_geom_bond_type
C18   C21   A    
C31   H9    S    
N6    H31   S    
C17   N3    S    
N5    H27   S    
C16   Br2   S    
O4    C2    A    
V1    O19   S    
C39   H28   S    
C13   C15   S    
C36   H16   S    
O9    V1    S    
C32   C34   A    
C26   N6    S    
O3    C1    A    
C29   C34   A    
C5    C21   S    
O12   V4    S    
O13   V3    S    
C30   H8    S    
N1    C35   S    
C11   C16   S    
O7    C3    A    
C9    C11   S    
O5    C7    A    
O7    V1    S    
O6    C8    A    
C30   C33   A    
O8    V2    S    
C10   C16   S    
C4    C33   S    
O3    V1    S    
O14   V4    S    
N4    C38   S    
C1    C28   S    
C23   C25   A    
C24   H6    S    
C19   H3    S    
C2    O12   A    
O17   V3    S    
C12   C15   S    
C39   H29   S    
C18   C20   A    
O11   V3    S    
C20   H4    S    
C36   H17   S    
C6    C22   S    
C31   C33   A    
C29   H7    S    
C9    C14   S    
C37   H21   S    
C10   C13   S    
C12   C14   S    
C25   N5    S    
O8    C4    A    
C38   H24   S    
C35   H13   S    
C1    O11   A    
C8    C13   S    
C37   H20   S    
O15   V3    S    
C9    H1    S    
C23   H5    S    
C32   H10   S    
C11   C13   S    
N2    H15   S    
C12   N2    S    
C2    C27   S    
C38   H25   S    
N2    C36   S    
N3    H19   S    
C19   C21   A    
C7    C14   S    
C15   Br1   S    
O10   V2    S    
O1    V3    S    
C40   H33   S    
C23   C28   A    
C17   C19   A    
N3    C37   S    
O18   V4    S    
C25   C27   A    
O16   C6    A    
O1    C3    A    
C39   H30   S    
V2    O20   S    
C37   H22   S    
O10   C6    A    
O16   V4    S    
C10   H2    S    
C29   C31   A    
C14   C16   S    
C35   H14   S    
N5    C39   S    
C17   C22   A    
O5    V1    S    
O17   C7    A    
O6    V2    S    
C20   C22   A    
O18   C8    A    
O2    V4    S    
C30   C32   A    
C9    C15   S    
O15   C5    A    
C35   H12   S    
V3    O19   S    
C38   H26   S    
V4    O20   S    
C36   H18   S    
O9    C5    A    
O13   V1    S    
C10   C12   S    
C26   C28   A    
C40   H34   S    
O14   V2    S    
N1    H11   S    
O2    C4    A    
C24   C27   A    
O4    V2    S    
C11   N1    S    
N6    C40   S    
C40   H32   S    
N4    H23   S    
C18   N4    S    
C24   C26   A    
C3    C34   S    
