data_mof_unit_7530.cif
_audit_creation_date              2012-12-11T14:30:49-0500
_audit_creation_method            fapswitch 2.2
_symmetry_space_group_name_H-M    P1
_symmetry_Int_Tables_number       1
_space_group_crystal_system       triclinic
_cell_length_a                    17.441803
_cell_length_b                    24.539732
_cell_length_c                    15.009544
_cell_angle_alpha                 90.440419
_cell_angle_beta                  125.685593
_cell_angle_gamma                 89.701231
_cell_volume                      5217.88898649

loop_
_atom_site_label
_atom_site_type_symbol
_atom_type_description
_atom_site_fract_x
_atom_site_fract_y
_atom_site_fract_z
_atom_type_partial_charge
C1    C     C_R   0.814028 0.632159 0.905898 -0.279266
C2    C     C_R   0.052569 0.504722 0.729878 -0.052028
C3    C     C_3   0.343308 0.806773 0.642380 -0.914041
C4    C     C_3   0.958585 0.397296 0.337796 0.348082
C5    C     C_3   0.976560 0.346358 0.404802 -0.880978
C6    C     C_3   0.165666 0.407737 0.850342 0.250486
C7    C     C_3   0.207097 0.354144 0.844466 -0.860963
C8    C     C_3   0.458585 0.897296 0.337796 0.348081
C9    C     C_3   0.476560 0.846358 0.404802 -0.880977
C10   C     C_3   0.665666 0.907737 0.850342 0.250486
C11   C     C_3   0.707097 0.854144 0.844466 -0.860964
C12   C     C_3   0.034514 0.684695 0.220680 -0.307652
C13   C     C_R   0.539572 0.005869 0.352868 -0.068459
C14   C     C_3   0.907442 0.674771 0.770480 -0.328597
C15   C     C_3   0.534514 0.184695 0.220680 -0.307649
C16   C     C_3   0.407442 0.174771 0.770481 -0.328595
C17   C     C_R   0.552569 0.004722 0.729878 -0.052028
C18   C     C_R   0.685138 0.500700 0.650397 0.129257
C19   C     C_R   0.324280 0.500125 0.277905 0.100543
C20   C     C_R   0.185139 0.000700 0.650397 0.129257
C21   C     C_R   0.824280 0.000125 0.277905 0.100543
C22   C     C_3   0.516055 0.460500 0.520693 0.544115
C23   C     C_3   0.493367 0.452017 0.406901 0.539752
C24   C     C_3   0.016055 0.960500 0.520693 0.544116
C25   C     C_R   0.150706 0.651917 0.094629 -0.296219
C26   C     C_3   0.993367 0.952017 0.406901 0.539752
C27   C     C_3   0.447148 0.508301 0.481810 -0.346655
C28   C     C_3   0.571547 0.492111 0.431596 -0.350486
C29   C     C_3   0.947148 0.008301 0.481810 -0.346655
C30   C     C_3   0.071547 0.992111 0.431596 -0.350487
C31   C     C_3   0.423587 0.499581 0.366198 0.000526
C32   C     C_3   0.593722 0.500318 0.546393 -0.010698
C33   C     C_3   0.923587 0.999581 0.366198 0.000526
C34   C     C_3   0.093722 0.000318 0.546393 -0.010698
C35   C     C_3   0.500082 0.540292 0.390094 -0.140017
C36   C     C_R   0.314028 0.132160 0.905898 -0.279266
C37   C     C_3   0.524955 0.548608 0.506679 -0.145138
C38   C     C_3   0.000082 0.040292 0.390094 -0.140017
C39   C     C_3   0.024955 0.048608 0.506679 -0.145139
C40   C     C_2   0.113478 0.771901 0.924167 -0.100555
C41   C     C_2   0.748166 0.688475 0.081436 -0.076730
C42   C     C_2   0.613478 0.271901 0.924167 -0.100555
C43   C     C_2   0.248166 0.188475 0.081436 -0.076730
C44   C     C_2   0.143092 0.741618 0.012570 -0.187437
C45   C     C_2   0.754642 0.686155 0.996628 -0.154786
C46   C     C_2   0.643092 0.241618 0.012570 -0.187437
C47   C     C_R   0.650706 0.151917 0.094629 -0.296219
C48   C     C_2   0.254642 0.186155 0.996628 -0.154786
C49   C     C_2   0.674986 0.313734 0.929153 -0.167844
C50   C     C_2   0.199659 0.234106 0.091605 -0.140156
C51   C     C_2   0.174986 0.813734 0.929153 -0.167844
C52   C     C_2   0.699659 0.734106 0.091605 -0.140156
C53   C     C_R   0.918230 0.361359 0.089676 0.486508
C54   C     C_R   0.048203 0.346998 0.911852 0.573622
C55   C     C_R   0.418230 0.861359 0.089676 0.486508
C56   C     C_R   0.548203 0.846998 0.911852 0.573622
C57   C     C_2   0.768797 0.307949 0.998010 -0.135740
C58   C     C_R   0.831062 0.346267 0.998750 0.016247
C59   C     C_2   0.129401 0.259404 0.001913 -0.175517
C60   C     C_2   0.268797 0.807949 0.998010 -0.135740
C61   C     C_2   0.629401 0.759404 0.001913 -0.175517
C62   C     C_2   0.119875 0.473732 0.539491 -0.121389
C63   C     C_2   0.111101 0.466528 0.629081 -0.155768
C64   C     C_2   0.619875 0.973732 0.539491 -0.121389
C65   C     C_2   0.611101 0.966528 0.629081 -0.155768
C66   C     C_2   0.065629 0.510994 0.463360 -0.180233
C67   C     C_2   0.101247 0.509282 0.677420 -0.180752
C68   C     C_2   0.565629 0.010994 0.463360 -0.180232
C69   C     C_R   0.112755 0.317319 0.002504 -0.012291
C70   C     C_2   0.601247 0.009282 0.677420 -0.180752
C71   C     C_R   0.035926 0.548925 0.294477 -0.184484
C72   C     C_R   0.016897 0.548320 0.751575 -0.235053
C73   C     C_R   0.535926 0.048925 0.294477 -0.184484
C74   C     C_R   0.516897 0.048320 0.751575 -0.235052
C75   C     C_R   0.738003 0.455400 0.705092 -0.107507
C76   C     C_R   0.267817 0.455009 0.250965 -0.128031
C77   C     C_R   0.238003 0.955400 0.705092 -0.107507
C78   C     C_R   0.767817 0.955009 0.250965 -0.128031
C79   C     C_R   0.030355 0.458791 0.295121 0.498999
C80   C     C_R   0.331062 0.846267 0.998750 0.016247
C81   C     C_R   0.028194 0.458357 0.761284 0.533716
C82   C     C_R   0.530355 0.958791 0.295121 0.498999
C83   C     C_R   0.528194 0.958357 0.761284 0.533716
C84   C     C_R   0.736608 0.546504 0.704426 -0.146047
C85   C     C_R   0.269413 0.546312 0.250979 -0.132782
C86   C     C_R   0.236609 0.046504 0.704426 -0.146047
C87   C     C_R   0.769413 0.046312 0.250979 -0.132782
C88   C     C_R   0.819220 0.369429 0.908394 -0.266123
C89   C     C_R   0.149207 0.351376 0.091186 -0.274540
C90   C     C_R   0.319220 0.869429 0.908394 -0.266122
C91   C     C_R   0.612755 0.817319 0.002504 -0.012291
C92   C     C_R   0.649208 0.851375 0.091186 -0.274540
C93   C     C_R   0.908351 0.634613 0.089028 0.611486
C94   C     C_R   0.057876 0.652948 0.913221 0.609842
C95   C     C_R   0.408351 0.134612 0.089028 0.611485
C96   C     C_R   0.557875 0.152947 0.913221 0.609842
C97   C     C_R   0.821210 0.650501 0.997765 -0.009208
C98   C     C_R   0.119283 0.684273 0.005106 0.004203
C99   C     C_R   0.321210 0.150501 0.997765 -0.009208
C100  C     C_R   0.619283 0.184274 0.005106 0.004203
C101  C     C_3   0.445641 0.393134 0.555617 -0.265127
C102  C     C_R   0.039572 0.505869 0.352868 -0.068459
C103  C     C_3   0.550293 0.368795 0.398390 -0.263483
C104  C     C_3   0.945641 0.893133 0.555617 -0.265128
C105  C     C_3   0.050293 0.868794 0.398390 -0.263484
C106  C     C_3   0.055999 0.315642 0.210968 0.350102
C107  C     C_3   0.103788 0.276122 0.306600 -0.938873
C108  C     C_3   0.898299 0.333457 0.755232 0.294652
C109  C     C_3   0.843308 0.306773 0.642380 -0.914040
C110  C     C_3   0.555999 0.815642 0.210968 0.350102
C111  C     C_3   0.603788 0.776122 0.306600 -0.938873
C112  C     C_3   0.398299 0.833457 0.755232 0.294652
H1    H     H_    0.757462 0.640405 0.821406 0.139668
H2    H     H_    0.790185 0.661779 0.151467 0.162385
H3    H     H_    0.685446 0.913188 0.934762 0.103217
H4    H     H_    0.701204 0.940929 0.837754 0.096764
H5    H     H_    0.692118 0.849039 0.762130 0.237929
H6    H     H_    0.784747 0.854042 0.907204 0.209306
H7    H     H_    0.676426 0.819187 0.859927 0.269301
H8    H     H_    0.019473 0.714317 0.156371 0.152678
H9    H     H_    0.089771 0.655249 0.236858 0.142654
H10   H     H_    0.062919 0.708087 0.297485 0.174014
H11   H     H_    0.867032 0.698199 0.692977 0.177246
H12   H     H_    0.900010 0.696781 0.830244 0.150493
H13   H     H_    0.551543 0.261921 0.843546 0.191286
H14   H     H_    0.875777 0.633577 0.751608 0.170229
H15   H     H_    0.519473 0.214317 0.156371 0.152677
H16   H     H_    0.589770 0.155249 0.236858 0.142654
H17   H     H_    0.562919 0.208087 0.297485 0.174014
H18   H     H_    0.400010 0.196781 0.830244 0.150492
H19   H     H_    0.375777 0.133577 0.751608 0.170229
H20   H     H_    0.367032 0.198200 0.692978 0.177246
H21   H     H_    0.290185 0.161779 0.151467 0.162385
H22   H     H_    0.199355 0.756449 0.093735 0.139186
H23   H     H_    0.714993 0.713242 0.926894 0.134633
H24   H     H_    0.699355 0.256449 0.093735 0.139186
H25   H     H_    0.214993 0.213242 0.926894 0.134633
H26   H     H_    0.643739 0.346089 0.868661 0.158167
H27   H     H_    0.233244 0.251865 0.172652 0.138051
H28   H     H_    0.143739 0.846089 0.868661 0.158167
H29   H     H_    0.190287 0.665700 0.178946 0.130277
H30   H     H_    0.733244 0.751865 0.172652 0.138051
H31   H     H_    0.801716 0.274969 0.056777 0.157747
H32   H     H_    0.092303 0.239271 0.922407 0.163693
H33   H     H_    0.301716 0.774969 0.056777 0.157747
H34   H     H_    0.592303 0.739271 0.922407 0.163693
H35   H     H_    0.152093 0.441035 0.522840 0.167068
H36   H     H_    0.095651 0.425421 0.639075 0.187536
H37   H     H_    0.652093 0.941035 0.522840 0.167068
H38   H     H_    0.595651 0.925421 0.639075 0.187536
H39   H     H_    0.031231 0.543326 0.477756 0.149307
H40   H     H_    0.257462 0.140405 0.821406 0.139668
H41   H     H_    0.116859 0.550079 0.664455 0.149260
H42   H     H_    0.531231 0.043326 0.477756 0.149307
H43   H     H_    0.616859 0.050079 0.664455 0.149260
H44   H     H_    0.056094 0.589888 0.325704 0.184846
H45   H     H_    0.025079 0.590377 0.739230 0.197145
H46   H     H_    0.556094 0.089888 0.325704 0.184846
H47   H     H_    0.525079 0.090377 0.739230 0.197145
H48   H     H_    0.722443 0.413798 0.675531 0.098578
H49   H     H_    0.289878 0.413006 0.269784 0.140101
H50   H     H_    0.222443 0.913798 0.675531 0.098578
H51   H     H_    0.690287 0.165700 0.178946 0.130277
H52   H     H_    0.789878 0.913006 0.269784 0.140101
H53   H     H_    0.720395 0.587861 0.674464 0.086421
H54   H     H_    0.292999 0.588171 0.268953 0.110321
H55   H     H_    0.220395 0.087861 0.674464 0.086421
H56   H     H_    0.792999 0.088171 0.268953 0.110321
H57   H     H_    0.762027 0.362254 0.823518 0.148782
H58   H     H_    0.193732 0.339532 0.176206 0.121302
H59   H     H_    0.262027 0.862254 0.823518 0.148781
H60   H     H_    0.693732 0.839532 0.176206 0.121302
H61   H     H_    0.394635 0.515333 0.500049 0.152639
H62   H     H_    0.490270 0.572975 0.333570 0.131661
H63   H     H_    0.625337 0.486007 0.415147 0.148880
H64   H     H_    0.894635 0.015333 0.500049 0.152639
H65   H     H_    0.125337 0.986007 0.415147 0.148880
H66   H     H_    0.413676 0.374961 0.472959 0.161060
H67   H     H_    0.394951 0.421352 0.554335 0.142293
H68   H     H_    0.459918 0.359371 0.612143 0.170735
H69   H     H_    0.580319 0.360988 0.485900 0.158886
H70   H     H_    0.604852 0.386480 0.390950 0.138202
H71   H     H_    0.529370 0.328852 0.355326 0.176768
H72   H     H_    0.913676 0.874961 0.472959 0.161060
H73   H     H_    0.539869 0.588307 0.549811 0.129438
H74   H     H_    0.894951 0.921352 0.554335 0.142293
H75   H     H_    0.959918 0.859370 0.612143 0.170735
H76   H     H_    0.080320 0.860988 0.485900 0.158886
H77   H     H_    0.104852 0.886480 0.390950 0.138202
H78   H     H_    0.029370 0.828852 0.355326 0.176768
H79   H     H_    0.102061 0.352050 0.236355 0.119245
H80   H     H_    0.047605 0.294290 0.140033 0.076782
H81   H     H_    0.056634 0.240985 0.287998 0.254614
H82   H     H_    0.170237 0.260816 0.321143 0.205644
H83   H     H_    0.121440 0.296990 0.382264 0.274277
H84   H     H_    0.990270 0.072975 0.333570 0.131661
H85   H     H_    0.880306 0.377287 0.742984 0.100217
H86   H     H_    0.876383 0.313822 0.803520 0.080177
H87   H     H_    0.858512 0.262377 0.650184 0.256798
H88   H     H_    0.766425 0.312869 0.601003 0.196094
H89   H     H_    0.863487 0.325294 0.591496 0.265667
H90   H     H_    0.602061 0.852050 0.236355 0.119245
H91   H     H_    0.547605 0.794290 0.140033 0.076782
H92   H     H_    0.556634 0.740985 0.287998 0.254614
H93   H     H_    0.670237 0.760816 0.321143 0.205644
H94   H     H_    0.621440 0.796990 0.382264 0.274277
H95   H     H_    0.039869 0.088307 0.549811 0.129438
H96   H     H_    0.380306 0.877287 0.742984 0.100217
H97   H     H_    0.376383 0.813822 0.803519 0.080177
H98   H     H_    0.358512 0.762377 0.650184 0.256798
H99   H     H_    0.266426 0.812869 0.601003 0.196094
H100  H     H_    0.363487 0.825294 0.591496 0.265667
H101  H     H_    0.891813 0.391935 0.254542 0.101643
H102  H     H_    0.946775 0.431191 0.377938 0.070575
H103  H     H_    0.046928 0.348795 0.484885 0.242420
H104  H     H_    0.921738 0.342778 0.420166 0.202717
H105  H     H_    0.973229 0.309371 0.359829 0.279787
H106  H     H_    0.051543 0.761921 0.843546 0.191286
H107  H     H_    0.185446 0.413188 0.934762 0.103217
H108  H     H_    0.201204 0.440929 0.837754 0.096764
H109  H     H_    0.192118 0.349039 0.762129 0.237929
H110  H     H_    0.284747 0.354042 0.907204 0.209306
H111  H     H_    0.176426 0.319187 0.859927 0.269301
H112  H     H_    0.391813 0.891935 0.254542 0.101643
H113  H     H_    0.446775 0.931191 0.377938 0.070575
H114  H     H_    0.546928 0.848795 0.484885 0.242420
H115  H     H_    0.421738 0.842778 0.420166 0.202716
H116  H     H_    0.473229 0.809371 0.359829 0.279787
N1    N     N_R   0.892320 0.603520 0.941090 -0.072203
N2    N     N_R   0.973240 0.529450 0.794410 -0.068306
N3    N     N_R   0.526760 0.029450 0.205590 -0.074658
N4    N     N_R   0.473240 0.029450 0.794410 -0.068306
N5    N     N_R   0.819350 0.473090 0.793940 -0.050339
N6    N     N_R   0.180650 0.473090 0.206060 -0.050560
N7    N     N_R   0.319350 0.973090 0.793940 -0.050339
N8    N     N_R   0.680650 0.973090 0.206060 -0.050560
N9    N     N_R   0.027860 0.473090 0.206590 -0.099520
N10   N     N_R   0.972140 0.473090 0.793410 -0.108331
N11   N     N_R   0.527860 0.973090 0.206590 -0.099520
N12   N     N_R   0.107680 0.603520 0.058910 -0.062760
N13   N     N_R   0.472140 0.973090 0.793410 -0.108331
N14   N     N_R   0.818250 0.529450 0.792940 -0.035277
N15   N     N_R   0.181750 0.529450 0.207060 -0.040288
N16   N     N_R   0.318250 0.029450 0.792940 -0.035277
N17   N     N_R   0.681750 0.029450 0.207060 -0.040288
N18   N     N_R   0.896320 0.399020 0.944720 -0.088277
N19   N     N_R   0.103680 0.399020 0.055280 -0.079586
N20   N     N_R   0.396320 0.899020 0.944720 -0.088277
N21   N     N_R   0.603680 0.899020 0.055280 -0.079586
N22   N     N_R   0.949790 0.603520 0.054810 -0.101659
N23   N     N_R   0.392320 0.103520 0.941090 -0.072203
N24   N     N_R   0.050210 0.603520 0.945190 -0.096948
N25   N     N_R   0.449790 0.103520 0.054810 -0.101659
N26   N     N_R   0.550210 0.103520 0.945190 -0.096948
N27   N     N_R   0.607680 0.103520 0.058910 -0.062760
N28   N     N_R   0.953790 0.399020 0.058440 -0.114016
N29   N     N_R   0.046210 0.399020 0.941560 -0.112193
N30   N     N_R   0.453790 0.899020 0.058440 -0.114016
N31   N     N_R   0.546210 0.899020 0.941560 -0.112193
N32   N     N_R   0.026760 0.529450 0.205590 -0.074658
Ni1   Ni    Ni4+2 0.934100 0.565890 0.869590 0.196060
Ni2   Ni    Ni4+2 0.065900 0.565890 0.130410 0.189477
Ni3   Ni    Ni4+2 0.434100 0.065890 0.869590 0.196060
Ni4   Ni    Ni4+2 0.565900 0.065890 0.130410 0.189477
Ni5   Ni    Ni4+2 0.068420 0.436630 0.132700 0.194150
Ni6   Ni    Ni4+2 0.931580 0.436630 0.867300 0.193613
Ni7   Ni    Ni4+2 0.568420 0.936630 0.132700 0.194151
Ni8   Ni    Ni4+2 0.431580 0.936630 0.867300 0.193613
O1    O     O_3   0.531519 0.419548 0.595101 -0.631253
O2    O     O_3   0.065612 0.407010 0.771887 -0.620339
O3    O     O_3   0.535204 0.906222 0.330195 -0.634838
O4    O     O_3   0.565612 0.907010 0.771887 -0.620339
O5    O     O_3   0.952217 0.657283 0.192398 -0.646151
O6    O     O_3   0.002082 0.671902 0.806748 -0.659493
O7    O     O_3   0.452217 0.157283 0.192398 -0.646151
O8    O     O_3   0.502082 0.171902 0.806748 -0.659493
O9    O     O_3   0.469779 0.402433 0.348254 -0.629165
O10   O     O_3   0.031519 0.919548 0.595101 -0.631253
O11   O     O_3   0.969779 0.902432 0.348254 -0.629165
O12   O     O_3   0.967299 0.330958 0.184955 -0.633590
O13   O     O_3   0.995242 0.325422 0.806362 -0.610845
O14   O     O_3   0.467299 0.830958 0.184955 -0.633590
O15   O     O_3   0.495242 0.825422 0.806362 -0.610845
O16   O     O_3   0.035204 0.406222 0.330195 -0.634838

loop_
_geom_bond_atom_site_label_1
_geom_bond_atom_site_label_2
_ccdc_geom_bond_type
C75   H48   S    
C53   O12   S    
N3    Ni4   S    
C21   C87   A    
C78   H52   S    
C18   C75   A    
N4    Ni3   S    
C20   C86   A    
C6    O2    S    
C103  H70   S    
C66   C102  S    
C3    H100  S    
C80   C90   A    
C106  H80   S    
C41   H2    S    
C16   O8    S    
C11   H7    S    
C27   H61   S    
C107  H83   S    
C23   O9    S    
C49   C57   D    
C40   C44   D    
C92   N21   A    
C81   N10   A    
C47   N27   A    
N26   N27   A    
C72   N2    A    
C20   C77   A    
C56   O15   S    
C103  H71   S    
C50   C59   D    
C64   C68   D    
C105  H76   S    
N3    N11   A    
C19   C76   A    
C35   C37   S    
C24   C26   S    
C89   H58   S    
C8    O3    S    
C68   H42   S    
C52   C61   D    
C38   C39   S    
C7    H109  S    
C111  H93   S    
C95   C99   A    
N23   N25   A    
C21   C33   S    
C106  C107  S    
C94   C98   A    
C65   C70   D    
C5    H103  S    
C29   C33   S    
C85   N15   A    
C36   N23   A    
C95   O7    S    
C108  C109  S    
C30   C38   S    
N9    Ni5   S    
C42   C46   D    
N20   Ni8   S    
C108  H85   S    
C43   H21   S    
C16   H19   S    
C110  C111  S    
N22   Ni2   S    
C101  H66   S    
C42   H13   S    
N5    Ni6   S    
C24   C29   S    
C44   C98   S    
C30   H65   S    
C56   C91   A    
C5    H105  S    
C12   H9    S    
C28   C35   S    
C8    C9    S    
C90   N20   A    
C90   H59   S    
N8    Ni7   S    
C18   C84   A    
C79   C102  A    
C9    H114  S    
N31   Ni8   S    
N15   Ni2   S    
C36   C99   A    
C16   H18   S    
C43   C48   D    
C95   N25   A    
C41   C52   S    
N1    N22   A    
C8    H112  S    
N6    N15   A    
C47   H51   S    
C51   H28   S    
C3    H98   S    
C67   H41   S    
N2    Ni1   S    
C19   C31   S    
C17   C70   S    
C15   H15   S    
C49   H26   S    
C14   H11   S    
C44   H22   S    
C76   H49   S    
N7    Ni8   S    
C1    H1    S    
C106  H79   S    
N21   N31   A    
C20   C34   S    
C2    C72   A    
N30   Ni7   S    
N8    N17   A    
C65   H38   S    
C26   O11   S    
N19   N29   A    
C86   H55   S    
C87   N17   A    
C63   C67   D    
C3    H99   S    
C37   H73   S    
N18   N28   A    
C45   H23   S    
C4    H102  S    
C30   C34   S    
C27   C31   S    
C34   C39   S    
C105  H77   S    
C28   C32   S    
C14   H12   S    
C112  H96   S    
C12   H10   S    
N32   Ni2   S    
C2    C67   S    
C104  O10   S    
C91   C92   A    
C85   H54   S    
C7    H110  S    
C62   C66   D    
C50   H27   S    
C36   H40   S    
N6    Ni5   S    
C12   H8    S    
C25   N12   A    
C71   N32   A    
C23   C28   S    
C5    H104  S    
C101  O1    S    
C13   C82   A    
C24   C34   S    
C47   C100  A    
C70   H43   S    
C39   H95   S    
C82   O3    S    
C17   C83   A    
C112  O15   S    
C23   C31   S    
C2    C81   A    
C21   C78   A    
C61   H34   S    
C93   O5    S    
C62   C63   S    
C101  H67   S    
C1    N1    A    
C55   O14   S    
C88   N18   A    
C7    H111  S    
C14   O6    S    
C26   C33   S    
C87   H56   S    
C15   H17   S    
N10   Ni6   S    
C3    C112  S    
C53   C58   A    
C82   N11   A    
C29   C39   S    
N9    N32   A    
N13   Ni8   S    
N11   Ni7   S    
C9    H115  S    
N16   Ni3   S    
C32   C37   S    
C15   O7    S    
C111  H94   S    
C22   C32   S    
N24   Ni1   S    
C59   C69   S    
C77   N7    A    
C6    H108  S    
C74   H47   S    
C22   O1    S    
C74   N4    A    
C53   N28   A    
C71   C102  A    
C13   C73   A    
N26   Ni3   S    
N12   N24   A    
C40   H106  S    
C15   H16   S    
C17   C74   A    
C105  O11   S    
C31   C35   S    
C109  H87   S    
C56   N31   A    
C18   C32   S    
C60   H33   S    
C103  O9    S    
C29   H64   S    
C1    C97   A    
C10   H3    S    
C11   H5    S    
C93   C97   A    
C63   H36   S    
C73   N3    A    
C10   H4    S    
C93   N22   A    
N25   Ni4   S    
C77   H50   S    
C48   C99   S    
C104  H75   S    
C46   C100  S    
C60   C80   S    
C41   C45   D    
C4    H101  S    
C107  H81   S    
C104  H72   S    
C103  H69   S    
C35   H62   S    
C84   N14   A    
C105  H78   S    
C25   H29   S    
N29   Ni6   S    
C88   H57   S    
N12   Ni2   S    
C4    C5    S    
C19   C85   A    
C94   N24   A    
C111  H92   S    
C59   H32   S    
C78   N8    A    
C8    H113  S    
C43   C50   S    
C12   O5    S    
C6    C7    S    
C110  O14   S    
N1    Ni1   S    
C69   C89   A    
C40   C51   S    
C48   H25   S    
N20   N30   A    
C22   C27   S    
C104  H74   S    
C14   H14   S    
C110  H90   S    
C64   H37   S    
C62   H35   S    
C55   N30   A    
C94   O6    S    
C64   C65   S    
N21   Ni7   S    
C109  H89   S    
C79   O16   S    
C96   N26   A    
N4    N13   A    
C101  H68   S    
C45   C97   S    
C112  H97   S    
C55   C80   A    
C11   H6    S    
C57   C58   S    
C54   C69   A    
C24   O10   S    
C27   C37   S    
C96   O8    S    
C71   H44   S    
C73   H46   S    
C81   O2    S    
C4    O16   S    
N14   Ni1   S    
C38   H84   S    
C75   N5    A    
C9    H116  S    
C28   H63   S    
C108  H86   S    
C83   O4    S    
C16   H20   S    
C52   H30   S    
N7    N16   A    
N2    N10   A    
C10   C11   S    
C72   H45   S    
C42   C49   S    
C46   H24   S    
C6    H107  S    
N19   Ni5   S    
C89   N19   A    
N5    N14   A    
C66   H39   S    
C96   C100  A    
C106  O12   S    
N27   Ni4   S    
C92   H60   S    
C86   N16   A    
C25   C98   A    
C84   H53   S    
C54   N29   A    
C79   N9    A    
C22   C23   S    
C110  H91   S    
C33   C38   S    
C76   N6    A    
C51   C60   D    
C54   O13   S    
C83   N13   A    
N18   Ni6   S    
N17   Ni4   S    
C58   C88   A    
C13   C68   S    
C107  H82   S    
C108  O13   S    
C61   C91   S    
C57   H31   S    
N23   Ni3   S    
N28   Ni5   S    
C10   O4    S    
C26   C30   S    
C109  H88   S    
