data_mof_unit_45121.cif
_audit_creation_date              2012-12-10T16:58:29-0500
_audit_creation_method            fapswitch 2.2
_symmetry_space_group_name_H-M    P1
_symmetry_Int_Tables_number       1
_space_group_crystal_system       triclinic
_cell_length_a                    7.828635
_cell_length_b                    8.736488
_cell_length_c                    23.423652
_cell_angle_alpha                 92.340723
_cell_angle_beta                  85.142617
_cell_angle_gamma                 94.058791
_cell_volume                      1591.31907268

loop_
_atom_site_label
_atom_site_type_symbol
_atom_type_description
_atom_site_fract_x
_atom_site_fract_y
_atom_site_fract_z
_atom_type_partial_charge
C1    C     C_R   0.545334 0.793827 0.499047 0.951888
C2    C     C_R   0.468361 0.357548 0.298145 -0.100114
C3    C     C_R   0.522667 0.648826 0.761897 0.016567
C4    C     C_R   0.477332 0.351172 0.238103 0.016567
C5    C     C_R   0.490138 0.512199 0.791714 0.212614
C6    C     C_R   0.509860 0.487799 0.208286 0.212614
C7    C     C_2   0.568815 0.956384 0.501419 -0.253901
C8    C     C_2   0.431185 0.043616 0.498581 -0.253901
C9    C     C_R   0.500339 0.498578 0.610162 0.941198
C10   C     C_R   0.499661 0.501422 0.389838 0.941199
C11   C     C_R   0.358374 0.447756 0.123035 0.536766
C12   C     C_R   0.454666 0.206173 0.500953 0.951889
C13   C     C_R   0.641625 0.552240 0.876965 0.536766
C14   C     C_R   0.655392 0.534640 0.115242 0.544912
C15   C     C_R   0.344607 0.465356 0.884758 0.544912
C16   C     C_R   0.652247 0.555313 0.056091 -0.073379
C17   C     C_R   0.347753 0.444683 0.943909 -0.073379
C18   C     C_R   0.502003 0.499757 0.029930 -0.011432
C19   C     C_R   0.497996 0.500239 0.970070 -0.011432
C20   C     C_R   0.354968 0.444425 0.063644 -0.031965
C21   C     C_R   0.645031 0.555571 0.936356 -0.031965
C22   C     C_R   0.793791 0.623947 0.021862 -0.028242
C23   C     C_R   0.456209 0.372765 0.762321 -0.114093
C24   C     C_R   0.206208 0.376049 0.978138 -0.028242
C25   C     C_R   0.790681 0.616797 0.962300 -0.144725
C26   C     C_R   0.209319 0.383199 0.037700 -0.144724
C27   C     C_2   0.939114 0.717544 0.045584 0.987234
C28   C     C_2   0.060885 0.282452 0.954416 0.987235
C29   C     C_2   0.403956 0.214536 0.675190 0.953086
C30   C     C_2   0.596044 0.785463 0.324809 0.953089
C31   C     C_1   0.568759 0.782112 0.670661 0.175963
C32   C     C_1   0.431241 0.217887 0.329340 0.175963
C33   C     C_1   0.542303 0.794885 0.793142 0.272846
C34   C     C_R   0.543790 0.627233 0.237679 -0.114094
C35   C     C_1   0.457696 0.205112 0.206859 0.272847
C36   C     C_2   0.746165 0.017816 0.510754 1.011580
C37   C     C_2   0.253835 0.982184 0.489245 1.011578
C38   C     C_1   0.026392 0.355880 0.445206 0.447317
C39   C     C_1   0.973608 0.644120 0.554794 0.447317
C40   C     C_R   0.455976 0.364979 0.702872 -0.090545
C41   C     C_R   0.544023 0.635019 0.297128 -0.090546
C42   C     C_R   0.500617 0.500519 0.672276 -0.149410
C43   C     C_R   0.499383 0.499480 0.327724 -0.149409
C44   C     C_R   0.531639 0.642451 0.701855 -0.100114
H1    H     H_    0.899932 0.666450 0.936129 0.222343
H2    H     H_    0.100084 0.854948 0.437696 0.368481
H3    H     H_    0.100068 0.333545 0.063871 0.222343
H4    H     H_    0.429471 0.269636 0.786647 0.201226
H5    H     H_    0.570528 0.730362 0.213353 0.201227
H6    H     H_    0.191720 0.785074 0.037200 0.352173
H7    H     H_    0.808280 0.214922 0.962800 0.352174
H8    H     H_    0.274767 0.007078 0.683720 0.358057
H9    H     H_    0.725230 0.992922 0.316279 0.358057
H10   H     H_    0.899915 0.145052 0.562304 0.368481
N1    N     N_R   0.508304 0.487934 0.147320 -0.359619
N2    N     N_1   0.912518 0.730142 0.587979 -0.179031
N3    N     N_R   0.491696 0.512062 0.852680 -0.359619
N4    N     N_2   0.950330 0.457950 0.484560 -0.176994
N5    N     N_2   0.049670 0.542050 0.515440 -0.176994
N6    N     N_1   0.598685 0.893711 0.645835 -0.111098
N7    N     N_1   0.401316 0.106289 0.354165 -0.111099
N8    N     N_1   0.557836 0.911509 0.818065 -0.149198
N9    N     N_1   0.442164 0.088489 0.181936 -0.149197
N10   N     N_1   0.087482 0.269858 0.412021 -0.179032
O1    O     O_R   0.389250 0.738570 0.503790 -0.613473
O2    O     O_2   0.786503 0.589692 0.843558 -0.508493
O3    O     O_2   0.804210 0.555005 0.140542 -0.481624
O4    O     O_2   0.195789 0.444992 0.859458 -0.481624
O5    O     O_2   0.913251 0.804028 0.087331 -0.558619
O6    O     O_R   0.103904 0.715267 0.017543 -0.813098
O7    O     O_2   0.086748 0.195969 0.912669 -0.558620
O8    O     O_R   0.896096 0.284729 0.982457 -0.813098
O9    O     O_2   0.446553 0.186511 0.624782 -0.617633
O10   O     O_R   0.305536 0.103401 0.707337 -0.772941
O11   O     O_2   0.553450 0.813488 0.375218 -0.617634
O12   O     O_R   0.610750 0.261430 0.496210 -0.613473
O13   O     O_R   0.694461 0.896599 0.292662 -0.772943
O14   O     O_2   0.857372 0.012837 0.471113 -0.620805
O15   O     O_R   0.781121 0.090868 0.563144 -0.727050
O16   O     O_2   0.142628 0.987163 0.528887 -0.620805
O17   O     O_R   0.218879 0.909131 0.436856 -0.727052
O18   O     O_R   0.678390 0.711620 0.493890 -0.629661
O19   O     O_R   0.321610 0.288380 0.506110 -0.629662
O20   O     O_R   0.355400 0.513520 0.588790 -0.624378
O21   O     O_R   0.644600 0.486480 0.411210 -0.624377
O22   O     O_R   0.644550 0.486570 0.578900 -0.614601
O23   O     O_R   0.355450 0.513430 0.421100 -0.614602
O24   O     O_2   0.213497 0.410304 0.156441 -0.508493
Zn1   Zn    Zn3+2 0.306930 0.518000 0.506610 1.001872
Zn2   Zn    Zn3+2 0.693070 0.482000 0.493390 1.001872

loop_
_geom_bond_atom_site_label_1
_geom_bond_atom_site_label_2
_ccdc_geom_bond_type
C10   O21   A    
C41   C43   A    
C7    C36   S    
C2    C4    A    
C6    N1    S    
C7    C8    D    
O1    Zn1   S    
C9    C42   S    
C19   C21   A    
C24   C26   A    
C32   N7    T    
H8    O10   S    
C13   N3    A    
C3    C33   S    
C23   C40   A    
C2    C32   S    
C18   C19   A    
N5    Zn1   S    
C38   N4    S    
C30   O13   S    
C33   N8    T    
C22   C25   A    
C1    O1    A    
C14   O3    S    
C30   C41   S    
C11   O24   S    
C27   O5    D    
C40   C42   A    
C14   N1    A    
C4    C35   S    
C15   N3    A    
C37   O17   S    
C28   O8    S    
C34   C41   A    
C42   C44   A    
C38   N10   T    
C13   O2    S    
O19   Zn1   S    
C37   O16   D    
C10   O23   A    
C17   C24   A    
C31   C44   S    
C4    C6    A    
O22   Zn2   S    
C29   O10   S    
N4    N5    D    
C11   C20   A    
C6    C34   A    
C12   O19   A    
C31   N6    T    
H9    O13   S    
C9    O22   A    
H2    O17   S    
C39   N2    T    
C5    C23   A    
C2    C43   A    
C8    C12   S    
C39   N5    S    
C13   C21   A    
N4    Zn2   S    
C27   O6    S    
C26   H3    S    
C22   C27   S    
C12   O12   A    
C14   C16   A    
C28   O7    D    
H7    O8    S    
C25   H1    S    
C11   N1    A    
H10   O15   S    
C15   C17   A    
C21   C25   A    
C34   H5    S    
C16   C22   A    
C23   H4    S    
C3    C44   A    
C10   C43   S    
C1    C7    S    
C24   C28   S    
C3    C5    A    
C36   O15   S    
O21   Zn2   S    
C8    C37   S    
O18   Zn2   S    
C5    N3    S    
O23   Zn1   S    
C1    O18   A    
C36   O14   D    
C30   O11   D    
C20   C26   A    
C15   O4    S    
C29   C40   S    
C17   C19   A    
C18   C20   A    
H6    O6    S    
C9    O20   A    
C29   O9    D    
C16   C18   A    
O20   Zn1   S    
C35   N9    T    
O12   Zn2   S    
