data_mof_unit_11314.cif
_audit_creation_date              2013-03-05T16:05:19-0500
_audit_creation_method            fapswitch 2.2
_symmetry_space_group_name_H-M    P1
_symmetry_Int_Tables_number       1
_space_group_crystal_system       triclinic
_cell_length_a                    10.895686
_cell_length_b                    9.561341
_cell_length_c                    15.86384
_cell_angle_alpha                 90.631665
_cell_angle_beta                  91.570643
_cell_angle_gamma                 90.228104
_cell_volume                      1651.91663753

loop_
_atom_site_label
_atom_site_type_symbol
_atom_site_description
_atom_site_fract_x
_atom_site_fract_y
_atom_site_fract_z
_atom_type_partial_charge
O1    O     O_R   0.319660 0.618740 0.500000 -0.508104
O2    O     O_R   0.319660 0.381260 0.500000 -0.520754
C1    C     C_R   0.262408 0.499346 0.506375 0.847353
O3    O     O_R   0.500020 0.618840 0.379440 -0.542727
O4    O     O_R   0.500020 0.381160 0.379440 -0.547360
C2    C     C_R   0.495466 0.499617 0.340329 0.813896
Cu1   Cu    Cu3+1 0.500020 0.640660 0.500000 1.044039
Cu2   Cu    Cu3+1 0.500020 0.359340 0.500000 1.031540
O5    O     O_R   0.680370 0.618830 0.500010 -0.594996
O6    O     O_R   0.680370 0.381170 0.500010 -0.597128
O7    O     O_R   0.500010 0.618730 0.620560 -0.570062
O8    O     O_R   0.500010 0.381270 0.620560 -0.580154
C3    C     C_R   0.737661 0.500355 0.500755 0.813621
C4    C     C_R   0.501875 0.500710 0.659798 0.817212
C5    C     C_3   0.494607 0.657419 0.049165 0.308386
C6    C     C_3   0.384226 0.419676 0.042524 0.278045
C7    C     C_3   0.405141 0.402334 0.946607 -0.386669
C8    C     C_3   0.478790 0.654016 0.950597 -0.487765
H1    H     H_    0.386864 0.682937 0.925677 0.201733
H2    H     H_    0.317985 0.420380 0.909990 0.211309
H3    H     H_    0.379754 0.312613 0.068745 0.131489
H4    H     H_    0.588392 0.700905 0.060861 0.159956
H5    H     H_    0.432132 0.292753 0.932277 0.142206
H6    H     H_    0.544116 0.729831 0.923438 0.152060
C9    C     C_1   0.505616 0.502425 0.749551 -0.150960
C10   C     C_3   0.497506 0.502846 0.082813 0.037870
C11   C     C_3   0.505972 0.504345 0.917476 0.120809
C12   C     C_3   0.630315 0.454701 0.955835 -0.500409
C13   C     C_3   0.622302 0.430792 0.054199 0.744592
C14   C     C_1   0.507677 0.503625 0.825182 -0.015548
C15   C     C_1   0.494189 0.501010 0.175130 0.033815
C16   C     C_1   0.492367 0.499856 0.250692 -0.117793
H7    H     H_    0.702140 0.534434 0.943445 0.183033
H8    H     H_    0.657006 0.359676 0.920426 0.170043
C17   C     C_R   0.060541 0.369830 0.507778 0.294830
C18   C     C_R   0.063678 0.623546 0.530827 0.325327
C19   C     C_R   0.933506 0.374190 0.500207 -0.257077
C20   C     C_R   0.936050 0.624498 0.521914 -0.230990
H9    H     H_    0.883057 0.276812 0.492320 0.202890
H10   H     H_    0.887133 0.721483 0.531824 0.194634
C21   C     C_R   0.871190 0.500587 0.505340 -0.145874
C22   C     C_R   0.128150 0.497032 0.516734 -0.266428
C23   C     C_R   0.444716 0.072237 0.435318 0.405301
C24   C     C_R   0.440979 0.924151 0.436748 0.396752
N1    N     N_R   0.500030 0.852070 0.500020 -0.235057
N2    N     N_R   0.500030 0.147930 0.500020 -0.233054
C25   C     C_R   0.558928 0.927196 0.562995 -0.073544
C26   C     C_R   0.557875 0.075616 0.563443 -0.075319
H11   H     H_    0.606668 0.872837 0.613441 0.152250
H12   H     H_    0.604754 0.132132 0.614297 0.154931
O9    O     O_3   0.419578 0.747623 0.098754 -0.575802
C27   C     C_3   0.313894 0.807453 0.059978 0.146873
H13   H     H_    0.249240 0.829711 0.111349 0.179721
H14   H     H_    0.261987 0.735831 0.016929 0.160802
C28   C     C_3   0.343687 0.947421 0.018987 -0.400164
H15   H     H_    0.389049 0.017732 0.066725 0.256225
H16   H     H_    0.406721 0.931100 0.966107 0.210473
C29   C     C_3   0.227581 0.018605 0.985188 -0.898590
H17   H     H_    0.180333 0.951015 0.936913 0.267728
H18   H     H_    0.252193 0.119267 0.955666 0.260895
H19   H     H_    0.164116 0.040521 0.037310 0.255822
O10   O     O_3   0.268242 0.487067 0.048903 -0.615939
C30   C     C_3   0.221807 0.502926 0.130935 0.045685
H20   H     H_    0.132783 0.558188 0.122955 0.155067
H21   H     H_    0.277744 0.575293 0.170833 0.200239
C31   C     C_3   0.195056 0.365602 0.175898 -0.396277
H22   H     H_    0.126462 0.303644 0.137964 0.215966
H23   H     H_    0.279244 0.302343 0.185225 0.257514
C32   C     C_3   0.144921 0.397424 0.262770 -0.791371
H24   H     H_    0.069473 0.474826 0.258362 0.225571
H25   H     H_    0.218739 0.440794 0.305243 0.261506
H26   H     H_    0.109316 0.299853 0.290167 0.301626
O11   O     O_3   0.721993 0.505661 0.096701 -0.661207
C33   C     C_3   0.807269 0.432865 0.149837 0.107166
H27   H     H_    0.878226 0.510865 0.170007 0.156409
H28   H     H_    0.861334 0.354840 0.115388 0.113832
C34   C     C_3   0.752758 0.376833 0.231543 -0.357429
H29   H     H_    0.726849 0.467280 0.271503 0.202891
H30   H     H_    0.671093 0.310473 0.218303 0.277204
C35   C     C_3   0.843100 0.288983 0.283001 -0.868478
H31   H     H_    0.893014 0.214706 0.242093 0.260238
H32   H     H_    0.792594 0.228096 0.330291 0.275556
H33   H     H_    0.908272 0.358473 0.318132 0.255829
O12   O     O_3   0.614659 0.284595 0.074417 -0.648674
C36   C     C_3   0.708104 0.196966 0.042121 0.060824
H34   H     H_    0.757809 0.148712 0.096482 0.171830
H35   H     H_    0.777918 0.252459 0.005005 0.131215
C37   C     C_3   0.651300 0.077328 0.989489 -0.374920
H36   H     H_    0.599015 0.008465 0.031499 0.236786
H37   H     H_    0.587809 0.119225 0.940153 0.215871
C38   C     C_3   0.749896 0.990168 0.947323 -0.907532
H38   H     H_    0.803722 0.056039 0.904341 0.262151
H39   H     H_    0.706030 0.904156 0.909724 0.251274
H40   H     H_    0.812773 0.943926 0.995678 0.261187
N3    N     N_R   0.116847 0.234511 0.511101 0.171334
O13   O     O_R   0.182616 0.200699 0.577462 -0.306956
O14   O     O_R   0.074770 0.135051 0.461523 -0.280542
N4    N     N_R   0.124686 0.748774 0.560753 0.158059
O15   O     O_R   0.201512 0.742964 0.624907 -0.348142
O16   O     O_R   0.084671 0.870311 0.536727 -0.261944
N5    N     N_R   0.390497 0.141162 0.364504 0.148433
O17   O     O_R   0.274350 0.169756 0.364574 -0.315720
O18   O     O_R   0.446819 0.139907 0.293205 -0.367349
N6    N     N_R   0.371321 0.851282 0.372233 0.147722
O19   O     O_R   0.410824 0.848170 0.295570 -0.319520
O20   O     O_R   0.256901 0.820931 0.384762 -0.303112

loop_
_geom_bond_atom_site_label_1
_geom_bond_atom_site_label_2
_geom_bond_distance
_ccdc_geom_bond_type
C5    C8    1.568406 S    
C31   H23   1.108191 S    
C28   H15   1.111463 S    
C30   H21   1.103029 S    
C1    C22   1.476609 S    
N5    O17   1.295792 A    
O11   C33   1.425988 S    
C18   C22   1.419890 A    
N3    O13   1.301637 A    
C3    C21   1.454701 S    
C24   N6    1.430531 S    
Cu1   Cu2   2.689796 S    
C25   H11   1.081491 S    
C34   H29   1.108641 S    
C24   N1    1.371061 A    
Cu1   O7    1.926302 S    
C7    H5    1.112107 S    
C33   H28   1.101997 S    
C8    H6    1.112341 S    
Cu1   N1    2.021359 S    
C12   C13   1.584299 S    
C17   C19   1.386876 A    
O3    Cu1   1.921602 S    
O4    C2    1.297875 A    
O7    C4    1.294686 A    
C36   C37   1.527638 S    
C31   C32   1.524315 S    
C13   O11   1.445644 S    
C29   H18   1.110114 S    
C7    H2    1.114582 S    
C8    H1    1.104015 S    
C32   H25   1.110994 S    
C17   C22   1.423158 A    
O5    C3    1.295574 A    
C5    H4    1.111763 S    
C25   C26   1.419124 A    
C6    C7    1.551924 S    
C33   C34   1.541034 S    
C5    O9    1.434193 S    
C27   C28   1.531838 S    
C29   H19   1.111058 S    
C26   H12   1.081355 S    
C31   H22   1.111583 S    
C30   C31   1.531896 S    
C12   H8    1.106982 S    
C10   C15   1.466236 S    
N5    O18   1.301491 A    
C11   C14   1.464716 S    
C6    O10   1.426356 S    
C35   H33   1.105740 S    
N6    O20   1.299972 A    
N6    O19   1.301235 A    
C27   H14   1.104822 S    
N1    C25   1.367926 A    
C6    C10   1.581770 S    
N2    C26   1.368073 A    
C33   H27   1.110361 S    
C36   H35   1.111333 S    
O9    C27   1.416255 S    
C7    C11   1.549541 S    
O12   C36   1.423744 S    
C13   O12   1.440202 S    
C35   H32   1.110971 S    
C38   H38   1.110863 S    
C5    C10   1.577033 S    
C29   H17   1.110836 S    
C36   H34   1.111309 S    
O1    C1    1.304941 A    
C32   H26   1.106802 S    
C23   C24   1.416775 A    
C23   N5    1.424186 S    
O10   C30   1.415915 S    
C38   H39   1.109487 S    
C15   C16   1.199580 T    
C37   C38   1.526503 S    
Cu2   O8    1.921706 S    
C34   H30   1.104872 S    
C20   C21   1.395877 A    
O3    C2    1.291943 A    
C37   H37   1.109509 S    
C12   H7    1.113217 S    
N4    O15   1.301718 A    
N4    O16   1.300165 A    
C28   H16   1.108735 S    
C27   H13   1.111089 S    
C34   C35   1.522663 S    
C9    C14   1.199311 T    
Cu1   O5    1.976914 S    
O1    Cu1   1.975461 S    
O2    Cu2   1.977120 S    
C8    C11   1.551466 S    
O8    C4    1.294411 A    
C35   H31   1.110646 S    
O6    C3    1.296937 A    
O4    Cu2   1.926175 S    
N3    O14   1.301310 A    
C6    H3    1.110583 S    
C17   N3    1.434993 S    
C18   C20   1.393979 A    
O2    C1    1.296406 A    
C19   H9    1.083637 S    
C38   H40   1.111008 S    
C20   H10   1.083506 S    
C4    C9    1.423208 S    
C19   C21   1.391252 A    
C32   H24   1.109598 S    
C23   N2    1.373608 A    
Cu2   N2    2.021368 S    
C30   H20   1.111257 S    
C37   H36   1.108920 S    
C10   C13   1.601239 S    
Cu2   O6    1.975261 S    
C2    C16   1.421493 S    
C28   C29   1.526043 S    
C11   C12   1.548352 S    
C18   N4    1.436910 S    
