data_mof_unit_24725.cif
_audit_creation_date              2012-12-10T18:59:12-0500
_audit_creation_method            fapswitch 2.2
_symmetry_space_group_name_H-M    P1
_symmetry_Int_Tables_number       1
_space_group_crystal_system       triclinic
_cell_length_a                    9.848264
_cell_length_b                    10.711277
_cell_length_c                    16.659516
_cell_angle_alpha                 89.881632
_cell_angle_beta                  95.869044
_cell_angle_gamma                 89.771367
_cell_volume                      1748.13932928

loop_
_atom_site_label
_atom_site_type_symbol
_atom_type_description
_atom_site_fract_x
_atom_site_fract_y
_atom_site_fract_z
_atom_type_partial_charge
C1    C     C_R   0.500231 0.260137 0.500145 1.080065
C2    C     C_R   0.499769 0.739863 0.499855 1.080071
C3    C     C_R   0.413603 0.935036 0.548407 0.271750
C4    C     C_R   0.586395 0.064964 0.451591 0.271746
C5    C     C_R   0.498854 0.872429 0.499197 -0.235487
C6    C     C_R   0.501145 0.127571 0.500802 -0.235487
C7    C     C_R   0.064485 0.586973 0.456090 0.546735
C8    C     C_R   0.935515 0.413028 0.543910 0.546734
C9    C     C_R   0.919789 0.586355 0.456307 -0.259488
C10   C     C_R   0.080211 0.413645 0.543693 -0.259489
C11   C     C_R   0.519514 0.497435 0.653744 1.007697
C12   C     C_R   0.480486 0.502565 0.346255 1.007692
C13   C     C_R   0.535822 0.502545 0.741452 -0.196723
C14   C     C_R   0.464180 0.497463 0.258548 -0.196736
C15   C     C_R   0.472465 0.601410 0.778610 0.300987
C16   C     C_R   0.527547 0.398605 0.221387 0.300991
C17   C     C_R   0.484590 0.608541 0.863271 0.356528
C18   C     C_R   0.515433 0.391486 0.136727 0.356525
C19   C     C_R   0.566175 0.520996 0.908787 0.187508
C20   C     C_R   0.433849 0.479034 0.091211 0.187510
C21   C     C_R   0.639884 0.428474 0.871806 -0.198538
C22   C     C_R   0.360129 0.571548 0.128194 -0.198552
C23   C     C_R   0.622746 0.417283 0.787094 -0.228467
C24   C     C_R   0.377255 0.582727 0.212907 -0.228467
C25   C     C_R   0.412455 0.065097 0.547783 0.287272
C26   C     C_R   0.587543 0.934903 0.452215 0.287277
H1    H     H_    0.857578 0.654746 0.421495 0.193608
H2    H     H_    0.142422 0.345254 0.578505 0.193608
N1    N     N_2   0.558560 0.514453 0.992375 -0.068967
N2    N     N_2   0.441467 0.485579 0.007624 -0.068951
N3    N     N_R   0.857210 0.499970 0.500020 -0.107392
N4    N     N_R   0.142790 0.500030 0.499980 -0.107393
O1    O     O_R   0.614620 0.316750 0.500010 -0.527497
O2    O     O_R   0.385380 0.683250 0.499990 -0.527494
O3    O     O_R   0.385290 0.316780 0.500000 -0.614808
O4    O     O_R   0.614710 0.683220 0.500000 -0.614809
O5    O     O_R   0.627460 0.498830 0.616130 -0.620421
O6    O     O_R   0.372540 0.501170 0.383870 -0.620421
O7    O     O_R   0.398130 0.498850 0.616130 -0.563495
O8    O     O_R   0.601870 0.501150 0.383870 -0.563495
Zn1   Zn    Zn3+2 0.653130 0.499980 0.500000 1.079367
Zn2   Zn    Zn3+2 0.346870 0.500020 0.500000 1.079367
O9    O     O_3   0.597426 0.309322 0.269459 -0.722355
H3    H     H_    0.592895 0.228723 0.240315 0.350589
O10   O     O_3   0.402584 0.690688 0.730535 -0.722352
H4    H     H_    0.407105 0.771287 0.759678 0.350592
O11   O     O_3   0.585246 0.303685 0.096037 -0.724255
H5    H     H_    0.670467 0.280544 0.129625 0.362254
O12   O     O_3   0.414788 0.696350 0.903959 -0.724243
H6    H     H_    0.329560 0.719483 0.870376 0.362255
C27   C     C_2   0.724186 0.337656 0.923219 1.069680
O13   O     O_2   0.800912 0.374890 0.980461 -0.568311
O14   O     O_R   0.713983 0.209743 0.907205 -0.759197
H7    H     H_    0.775765 0.157837 0.946786 0.362372
C28   C     C_2   0.275827 0.662367 0.076780 1.069659
O15   O     O_2   0.199145 0.625140 0.019517 -0.568314
O16   O     O_R   0.285980 0.790277 0.092816 -0.759207
H8    H     H_    0.224207 0.842183 0.053229 0.362372
C29   C     C_2   0.693719 0.316474 0.746308 1.066515
O17   O     O_2   0.816088 0.298921 0.763254 -0.589455
O18   O     O_R   0.620160 0.241421 0.688845 -0.780844
H9    H     H_    0.679259 0.175512 0.665817 0.351061
C30   C     C_2   0.306275 0.683529 0.253697 1.066547
O19   O     O_2   0.183906 0.701079 0.236751 -0.589440
O20   O     O_R   0.379833 0.758580 0.311163 -0.780851
H10   H     H_    0.320733 0.824488 0.334191 0.351062
O21   O     O_3   0.327851 0.133232 0.592728 -0.729334
H11   H     H_    0.240807 0.087526 0.593931 0.342369
O22   O     O_3   0.672147 0.866767 0.407270 -0.729337
H12   H     H_    0.759189 0.912475 0.406064 0.342371
O23   O     O_3   0.338015 0.866674 0.598437 -0.699620
H13   H     H_    0.322183 0.917391 0.646228 0.359633
O24   O     O_3   0.661982 0.133326 0.401561 -0.699623
H14   H     H_    0.677809 0.082610 0.353768 0.359632
O25   O     O_3   0.128401 0.674108 0.412280 -0.713651
H15   H     H_    0.058483 0.730912 0.384931 0.332308
O26   O     O_3   0.871599 0.325893 0.587721 -0.713649
H16   H     H_    0.941517 0.269090 0.615071 0.332308

loop_
_geom_bond_atom_site_label_1
_geom_bond_atom_site_label_2
_ccdc_geom_bond_type
C28   O15   D    
C30   O20   S    
O24   H14   S    
C25   O21   S    
O9    H3    S    
C18   O11   S    
C1    O1    A    
C20   N2    S    
O10   H4    S    
C23   C29   S    
C1    O3    A    
C19   C21   A    
O6    Zn2   S    
C6    C25   A    
C10   H2    S    
C13   C23   A    
C7    C9    A    
C14   C24   A    
C11   O5    A    
O3    Zn2   S    
O2    Zn2   S    
C18   C20   A    
C2    O2    A    
C29   O17   D    
C12   O6    A    
O4    Zn1   S    
O18   H9    S    
O7    Zn2   S    
C21   C23   A    
C29   O18   S    
O21   H11   S    
C3    C25   A    
C4    C6    A    
C17   O12   S    
C7    O25   S    
O26   H16   S    
C27   O13   D    
C27   O14   S    
C12   O8    A    
C3    O23   S    
O25   H15   S    
N1    N2    D    
O11   H5    S    
C11   O7    A    
C16   O9    S    
C4    O24   S    
C8    C10   A    
O8    Zn1   S    
C12   C14   S    
O12   H6    S    
C24   C30   S    
C28   O16   S    
C8    O26   S    
C14   C16   A    
C2    C5    S    
C15   O10   S    
C19   N1    S    
C21   C27   S    
C9    H1    S    
C2    O4    A    
C15   C17   A    
C7    N4    A    
N3    Zn1   S    
C8    N3    A    
C20   C22   A    
C30   O19   D    
C3    C5    A    
C4    C26   A    
O14   H7    S    
C22   C28   S    
O1    Zn1   S    
C13   C15   A    
O23   H13   S    
C11   C13   S    
O16   H8    S    
C17   C19   A    
C22   C24   A    
O5    Zn1   S    
O22   H12   S    
C9    N3    A    
C5    C26   A    
C10   N4    A    
C16   C18   A    
O20   H10   S    
C1    C6    S    
C26   O22   S    
N4    Zn2   S    
