data_mof_unit_66211.cif
_audit_creation_date              2012-12-10T21:15:54-0500
_audit_creation_method            fapswitch 2.2
_symmetry_space_group_name_H-M    P1
_symmetry_Int_Tables_number       1
_space_group_crystal_system       triclinic
_cell_length_a                    13.646982
_cell_length_b                    16.775366
_cell_length_c                    17.649399
_cell_angle_alpha                 89.849339
_cell_angle_beta                  90.65601
_cell_angle_gamma                 83.59977
_cell_volume                      4015.05500921

loop_
_atom_site_label
_atom_site_type_symbol
_atom_type_description
_atom_site_fract_x
_atom_site_fract_y
_atom_site_fract_z
_atom_type_partial_charge
C1    C     C_R   0.497549 0.499896 0.646792 0.887601
C2    C     C_R   0.436228 0.838051 0.451353 -0.254153
C3    C     C_R   0.565829 0.246465 0.545045 0.013824
C4    C     C_R   0.437572 0.753691 0.452564 0.004850
C5    C     C_R   0.434895 0.256533 0.455378 0.139856
C6    C     C_R   0.562502 0.743119 0.547212 0.137902
C7    C     C_R   0.435141 0.172436 0.455281 -0.289885
C8    C     C_R   0.563093 0.827149 0.547517 -0.290172
C9    C     C_R   0.502055 0.124027 0.500965 0.143291
C10   C     C_R   0.499651 0.875765 0.499358 0.144087
C11   C     C_1   0.501828 0.036317 0.500714 -0.027158
C12   C     C_R   0.502092 0.500104 0.353650 0.888124
C13   C     C_1   0.500463 0.963420 0.499770 -0.027801
C14   C     C_R   0.685984 0.486082 0.500015 0.911831
C15   C     C_R   0.314013 0.513921 0.499901 0.908526
C16   C     C_1   0.210612 0.524277 0.499644 -0.166592
C17   C     C_1   0.789374 0.475736 0.499720 -0.164616
C18   C     C_2   0.019437 0.534465 0.499226 -0.149435
C19   C     C_2   0.980530 0.465560 0.499126 -0.151432
C20   C     C_1   0.876886 0.468464 0.499424 0.017528
C21   C     C_1   0.123090 0.531556 0.499415 0.016203
C22   C     C_R   0.434982 0.456497 0.154628 0.016303
C23   C     C_R   0.554198 0.555281 0.152565 -0.031026
C24   C     C_R   0.507063 0.573650 0.846023 0.013269
C25   C     C_R   0.442347 0.453169 0.232887 -0.249596
C26   C     C_R   0.511833 0.569468 0.767800 -0.237192
C27   C     C_R   0.503230 0.501296 0.271593 -0.107056
C28   C     C_R   0.490637 0.500216 0.729476 -0.118905
C29   C     C_R   0.560614 0.552155 0.231813 -0.065313
C30   C     C_R   0.461654 0.434131 0.770647 -0.066802
C31   C     C_1   0.368867 0.407488 0.116763 0.184024
C32   C     C_1   0.530234 0.646090 0.883195 0.179916
C33   C     C_1   0.627849 0.599080 0.271760 0.194148
C34   C     C_R   0.457923 0.437928 0.849896 -0.034018
C35   C     C_1   0.433321 0.363208 0.732922 0.211952
C36   C     C_1   0.612890 0.606763 0.110276 0.185805
C37   C     C_1   0.431292 0.369981 0.893292 0.182209
C38   C     C_1   0.363676 0.303560 0.408250 0.216677
C39   C     C_1   0.629552 0.695622 0.597267 0.211436
C40   C     C_R   0.490552 0.507829 0.114619 0.031960
C41   C     C_R   0.481013 0.507640 0.886914 0.034469
C42   C     C_1   0.484657 0.509856 0.034399 -0.017250
C43   C     C_1   0.481767 0.509956 0.967205 -0.015761
C44   C     C_R   0.568066 0.162026 0.546398 -0.250410
H1    H     H_    0.025696 0.407900 0.499020 0.164399
H2    H     H_    0.613029 0.854444 0.585163 0.148302
H3    H     H_    0.974273 0.592125 0.499397 0.165303
H4    H     H_    0.620963 0.126804 0.582682 0.147618
H5    H     H_    0.386012 0.873449 0.413181 0.148094
H6    H     H_    0.398387 0.414548 0.263937 0.175857
H7    H     H_    0.532927 0.620620 0.736789 0.177683
H8    H     H_    0.616979 0.274983 0.580337 0.135016
H9    H     H_    0.388439 0.725374 0.415307 0.136022
H10   H     H_    0.383034 0.144910 0.419758 0.147988
N1    N     N_R   0.499970 0.292770 0.499970 -0.109408
N2    N     N_1   0.683939 0.657852 0.637602 -0.216496
N3    N     N_R   0.500030 0.707230 0.500030 -0.109243
N4    N     N_1   0.315734 0.368310 0.086673 -0.172481
N5    N     N_1   0.548714 0.704100 0.912864 -0.175174
N6    N     N_1   0.681444 0.636457 0.303654 -0.183642
N7    N     N_1   0.410626 0.306602 0.703048 -0.186098
N8    N     N_1   0.659744 0.647763 0.076624 -0.170983
N9    N     N_1   0.410226 0.315708 0.927666 -0.170777
N10   N     N_1   0.305555 0.340747 0.370432 -0.225960
O1    O     O_R   0.500000 0.433430 0.610870 -0.617029
O2    O     O_R   0.500000 0.566570 0.389130 -0.616977
O3    O     O_R   0.500010 0.566520 0.610900 -0.620120
O4    O     O_R   0.499990 0.433480 0.389100 -0.616793
O5    O     O_R   0.640340 0.423880 0.499970 -0.622008
O6    O     O_R   0.359660 0.576120 0.500030 -0.619725
O7    O     O_R   0.640350 0.556960 0.500000 -0.603263
O8    O     O_R   0.359650 0.443040 0.500000 -0.606942
Zn1   Zn    Zn3+2 0.500000 0.411140 0.499980 0.967920
Zn2   Zn    Zn3+2 0.500000 0.588860 0.500020 0.967698

loop_
_geom_bond_atom_site_label_1
_geom_bond_atom_site_label_2
_ccdc_geom_bond_type
C4    N3    A    
O6    Zn2   S    
O7    Zn2   S    
C2    C4    A    
C3    H8    S    
C19   H1    S    
O5    Zn1   S    
C16   C21   T    
C15   O8    A    
C2    H5    S    
C4    H9    S    
C1    C28   S    
C18   C21   S    
C9    C11   S    
C14   O7    A    
C1    O1    A    
C19   C20   S    
C6    N3    A    
C22   C40   A    
C18   H3    S    
C12   O4    A    
C40   C42   S    
C5    C7    A    
C44   H4    S    
C35   N7    T    
O3    Zn2   S    
C10   C13   S    
C5    C38   S    
C5    N1    A    
C24   C41   A    
C41   C43   S    
C14   C17   S    
C34   C41   A    
C12   O2    A    
C30   C35   S    
C36   N8    T    
C23   C29   A    
C31   N4    T    
C28   C30   A    
C26   C28   A    
C1    O3    A    
C24   C26   A    
C15   O6    A    
C23   C36   S    
C33   N6    T    
C38   N10   T    
C7    H10   S    
O2    Zn2   S    
C14   O5    A    
C8    H2    S    
C3    C44   A    
C26   H7    S    
C25   C27   A    
C42   C43   T    
C30   C34   A    
C12   C27   S    
C15   C16   S    
C34   C37   S    
C29   C33   S    
C11   C13   T    
C17   C20   T    
O1    Zn1   S    
C27   C29   A    
C8    C10   A    
C18   C19   D    
C22   C31   S    
C24   C32   S    
C7    C9    A    
C23   C40   A    
C6    C39   S    
C9    C44   A    
C6    C8    A    
C32   N5    T    
C37   N9    T    
O4    Zn1   S    
C25   H6    S    
C3    N1    A    
C22   C25   A    
C2    C10   A    
C39   N2    T    
O8    Zn1   S    
N3    Zn2   S    
N1    Zn1   S    
