data_mof_unit_17269.cif
_audit_creation_date              2012-10-26T20:02:34-0400
_audit_creation_method            fapswitch 2.2
_symmetry_space_group_name_H-M    P1
_symmetry_Int_Tables_number       1
_space_group_crystal_system       triclinic
_cell_length_a                    18.890548
_cell_length_b                    18.530009
_cell_length_c                    12.370886
_cell_angle_alpha                 89.970186
_cell_angle_beta                  129.196265
_cell_angle_gamma                 89.998563
_cell_volume                      3355.9429535

loop_
_atom_site_label
_atom_site_type_symbol
_atom_type_description
_atom_site_fract_x
_atom_site_fract_y
_atom_site_fract_z
_atom_type_partial_charge
C1    C     C_R   0.613180 0.898750 0.653693 0.532579
C2    C     C_R   0.657861 0.722253 0.008712 0.036531
C3    C     C_R   0.160036 0.773500 0.015498 0.036501
C4    C     C_R   0.157926 0.222377 0.008902 0.036544
C5    C     C_R   0.582746 0.240815 0.897844 -0.140801
C6    C     C_R   0.580807 0.754122 0.889140 -0.140171
C7    C     C_R   0.082704 0.740957 0.897602 -0.140779
C8    C     C_R   0.080862 0.254260 0.889368 -0.140173
C9    C     C_R   0.586552 0.208594 0.800987 -0.120370
C10   C     C_R   0.586746 0.789136 0.796580 -0.120180
C11   C     C_R   0.086576 0.708662 0.800867 -0.120350
C12   C     C_R   0.612501 0.101752 0.652809 0.533147
C13   C     C_R   0.086746 0.289193 0.796687 -0.120200
C14   C     C_R   0.315261 0.816107 0.148003 -0.150455
C15   C     C_R   0.315944 0.185333 0.150552 -0.149912
C16   C     C_R   0.815218 0.316163 0.147901 -0.150467
C17   C     C_R   0.815953 0.685371 0.150621 -0.149893
C18   C     C_R   0.229478 0.840583 0.229719 -0.009488
C19   C     C_R   0.224522 0.152091 0.218950 -0.008327
C20   C     C_R   0.729615 0.340398 0.230003 -0.009534
C21   C     C_R   0.724380 0.651864 0.218625 -0.008290
C22   C     C_R   0.678283 0.159684 0.739411 -0.004124
C23   C     C_R   0.113165 0.398739 0.653673 0.532586
C24   C     C_R   0.680693 0.842247 0.742725 -0.003712
C25   C     C_R   0.178380 0.659605 0.739542 -0.004110
C26   C     C_R   0.180639 0.342201 0.742641 -0.003715
C27   C     C_R   0.685673 0.000022 0.286748 -0.147227
C28   C     C_R   0.185673 0.500005 0.286749 -0.147223
C29   C     C_R   0.343089 0.000263 0.628195 0.036903
C30   C     C_R   0.843089 0.500287 0.628194 0.036922
C31   C     C_R   0.308350 0.000234 0.699463 -0.160074
C32   C     C_R   0.808350 0.500255 0.699462 -0.160071
C33   C     C_R   0.382668 0.098178 0.341020 0.544086
C34   C     C_R   0.112525 0.601734 0.652840 0.533130
C35   C     C_R   0.383178 0.901266 0.341797 0.543455
C36   C     C_R   0.882653 0.598161 0.340997 0.544098
C37   C     C_R   0.883192 0.401252 0.341816 0.543428
C38   C     C_R   0.367326 0.000051 0.844742 -0.134738
C39   C     C_R   0.867326 0.500054 0.844742 -0.134749
C40   C     C_R   0.462603 0.999963 0.921369 -0.006730
C41   C     C_R   0.962603 0.499955 0.921369 -0.006735
C42   C     C_R   0.495135 0.999932 0.843064 0.179853
C43   C     C_R   0.995135 0.499923 0.843064 0.179857
C44   C     C_R   0.526606 0.999961 0.072164 -0.015324
C45   C     C_R   0.241376 0.778310 0.032286 0.022839
C46   C     C_R   0.026606 0.499951 0.072163 -0.015325
C47   C     C_R   0.621320 0.999975 0.140578 0.036611
C48   C     C_R   0.121320 0.499958 0.140578 0.036613
C49   C     C_R   0.651611 0.999947 0.063089 -0.166454
C50   C     C_R   0.151611 0.499927 0.063089 -0.166453
C51   C     C_R   0.590197 0.999911 0.918246 -0.090459
C52   C     C_R   0.090197 0.499897 0.918246 -0.090454
C53   C     C_R   0.501470 0.999969 0.159379 0.038017
C54   C     C_R   0.001470 0.499967 0.159379 0.038016
C55   C     C_R   0.656636 0.000035 0.365824 0.040075
C56   C     C_R   0.241682 0.221565 0.032229 0.023192
C57   C     C_R   0.156636 0.500027 0.365824 0.040083
C58   C     C_R   0.655832 0.302274 0.115634 -0.108275
C59   C     C_R   0.650709 0.689530 0.103118 -0.107813
C60   C     C_R   0.155698 0.802479 0.115307 -0.108258
C61   C     C_R   0.150847 0.189767 0.103467 -0.107824
C62   C     C_R   0.309028 0.850438 0.242471 0.005495
C63   C     C_R   0.307417 0.147692 0.239862 0.006770
C64   C     C_R   0.809065 0.350396 0.242530 0.005474
C65   C     C_R   0.807366 0.647632 0.239781 0.006799
C66   C     C_R   0.756180 0.165480 0.749209 -0.133992
C67   C     C_R   0.741334 0.278335 0.032244 0.022829
C68   C     C_R   0.760757 0.839623 0.757940 -0.132803
C69   C     C_R   0.256367 0.665269 0.749553 -0.133969
C70   C     C_R   0.260653 0.339502 0.757721 -0.132814
C71   C     C_R   0.327200 0.710982 0.846814 -0.142842
C72   C     C_R   0.332660 0.295364 0.857893 -0.142698
C73   C     C_R   0.826945 0.211282 0.846321 -0.142852
C74   C     C_R   0.832791 0.795527 0.858189 -0.142683
C75   C     C_R   0.323422 0.749208 0.939738 -0.121268
C76   C     C_R   0.327697 0.255709 0.948400 -0.121654
C77   C     C_R   0.823208 0.249456 0.939331 -0.121283
C78   C     C_R   0.741681 0.721557 0.032224 0.023206
C79   C     C_R   0.827796 0.755836 0.948631 -0.121648
C80   C     C_R   0.745798 0.244693 0.933208 0.035592
C81   C     C_R   0.748081 0.757385 0.936833 0.035978
C82   C     C_R   0.245910 0.744589 0.933381 0.035595
C83   C     C_R   0.248034 0.257335 0.936741 0.035977
C84   C     C_R   0.669566 0.203974 0.823656 0.023586
C85   C     C_R   0.671252 0.796612 0.824628 0.023855
C86   C     C_R   0.169645 0.703938 0.823718 0.023581
C87   C     C_R   0.171217 0.296598 0.824601 0.023852
C88   C     C_3   0.218719 0.872059 0.330650 -0.382251
C89   C     C_R   0.660081 0.273396 0.015671 0.036511
C90   C     C_3   0.210179 0.114384 0.311375 -0.385526
C91   C     C_3   0.718970 0.371712 0.331165 -0.382165
C92   C     C_3   0.709944 0.613970 0.310791 -0.385628
Cu1   Cu    Cu3+1 0.526340 0.000000 0.421010 0.922351
Cu2   Cu    Cu3+1 0.026340 0.500000 0.421010 0.922350
Cu3   Cu    Cu3+1 0.473640 0.000000 0.578990 0.897972
Cu4   Cu    Cu3+1 0.973640 0.500000 0.578990 0.897979
H1    H     H_    0.724135 0.999958 0.115232 0.111630
H2    H     H_    0.836606 0.500062 0.894302 0.102500
H3    H     H_    0.235189 0.000412 0.641591 0.103615
H4    H     H_    0.735189 0.500449 0.641591 0.103616
H5    H     H_    0.620601 0.999912 0.869266 0.185088
H6    H     H_    0.120601 0.499906 0.869266 0.185085
H7    H     H_    0.518813 0.240155 0.880258 0.100160
H8    H     H_    0.515367 0.751938 0.866680 0.098040
H9    H     H_    0.018717 0.740392 0.879860 0.100187
H10   H     H_    0.015460 0.252153 0.867040 0.098000
H11   H     H_    0.593574 0.296445 0.102361 0.101873
H12   H     H_    0.224135 0.499934 0.115232 0.111632
H13   H     H_    0.586193 0.691519 0.083958 0.102570
H14   H     H_    0.093370 0.796758 0.101865 0.101833
H15   H     H_    0.086388 0.191863 0.084467 0.102632
H16   H     H_    0.378847 0.820726 0.166455 0.122160
H17   H     H_    0.381626 0.184313 0.174978 0.120020
H18   H     H_    0.878743 0.320869 0.166191 0.122193
H19   H     H_    0.881689 0.684458 0.175219 0.119967
H20   H     H_    0.763781 0.132861 0.684450 0.124742
H21   H     H_    0.768959 0.873529 0.695148 0.123818
H22   H     H_    0.263986 0.632603 0.684862 0.124695
H23   H     H_    0.758284 0.000045 0.339728 0.092100
H24   H     H_    0.268839 0.373379 0.694881 0.123850
H25   H     H_    0.382053 0.782193 0.013938 0.102231
H26   H     H_    0.387039 0.223837 0.024793 0.101507
H27   H     H_    0.881782 0.282523 0.013402 0.102205
H28   H     H_    0.887153 0.723991 0.025077 0.101549
H29   H     H_    0.387071 0.714805 0.853692 0.105192
H30   H     H_    0.394169 0.293840 0.868805 0.105941
H31   H     H_    0.886737 0.215219 0.853010 0.105231
H32   H     H_    0.894340 0.794061 0.869206 0.105907
H33   H     H_    0.523105 0.187936 0.707735 0.150642
H34   H     H_    0.258284 0.500022 0.339728 0.092100
H35   H     H_    0.523724 0.809489 0.701989 0.147977
H36   H     H_    0.023138 0.688029 0.707558 0.150606
H37   H     H_    0.023711 0.309549 0.702124 0.147984
H38   H     H_    0.706328 0.000068 0.478514 0.113310
H39   H     H_    0.206328 0.500059 0.478514 0.113301
H40   H     H_    0.274865 0.853402 0.438307 0.154994
H41   H     H_    0.218060 0.931487 0.323694 0.126084
H42   H     H_    0.153446 0.855587 0.306247 0.111461
H43   H     H_    0.216253 0.055548 0.304412 0.128101
H44   H     H_    0.260849 0.133523 0.420516 0.153729
H45   H     H_    0.430906 0.999944 0.115918 0.119686
H46   H     H_    0.141206 0.124817 0.278854 0.111222
H47   H     H_    0.775231 0.353044 0.438756 0.154974
H48   H     H_    0.718195 0.431146 0.324292 0.126085
H49   H     H_    0.653782 0.355117 0.306927 0.111479
H50   H     H_    0.716237 0.555162 0.303860 0.128187
H51   H     H_    0.760434 0.633123 0.419958 0.153662
H52   H     H_    0.640868 0.624214 0.278008 0.111207
H53   H     H_    0.930906 0.499946 0.115918 0.119680
H54   H     H_    0.296662 0.000612 0.516353 0.111897
H55   H     H_    0.796661 0.500663 0.516352 0.111881
H56   H     H_    0.336606 0.000060 0.894302 0.102503
N1    N     N_R   0.566260 0.000000 0.302220 -0.230626
N2    N     N_R   0.066260 0.500000 0.302220 -0.230622
N3    N     N_R   0.434410 0.000000 0.697680 -0.234441
N4    N     N_R   0.934410 0.500000 0.697680 -0.234433
O1    O     O_R   0.608610 0.924520 0.551740 -0.499279
O2    O     O_R   0.435880 0.924530 0.314850 -0.505938
O3    O     O_R   0.935880 0.575470 0.314850 -0.505419
O4    O     O_R   0.935880 0.424530 0.314850 -0.505971
O5    O     O_R   0.391380 0.075460 0.448260 -0.509030
O6    O     O_R   0.391380 0.924540 0.448260 -0.509487
O7    O     O_R   0.891380 0.575460 0.448260 -0.508993
O8    O     O_R   0.891380 0.424540 0.448260 -0.509516
O9    O     O_R   0.608610 0.075480 0.551740 -0.500307
O10   O     O_R   0.108610 0.424520 0.551740 -0.499309
O11   O     O_R   0.108610 0.575480 0.551740 -0.500280
O12   O     O_R   0.564110 0.924510 0.685150 -0.522282
O13   O     O_R   0.564110 0.075490 0.685150 -0.523182
O14   O     O_R   0.064110 0.424510 0.685150 -0.522325
O15   O     O_R   0.064110 0.575490 0.685150 -0.523130
O16   O     O_R   0.435880 0.075470 0.314850 -0.505457

loop_
_geom_bond_atom_site_label_1
_geom_bond_atom_site_label_2
_ccdc_geom_bond_type
C83   C87   A    
C5    H7    S    
Cu1   O16   S    
C53   N1    A    
C8    C13   A    
C92   H52   S    
C45   C82   A    
C34   O15   A    
C80   C84   A    
C11   H36   S    
Cu2   O10   S    
C90   H43   S    
C10   C85   A    
C28   C57   A    
C14   H16   S    
C52   H6    S    
Cu2   O3    S    
C66   H20   S    
C77   H27   S    
C37   O4    A    
C27   H23   S    
C38   C40   A    
C21   C59   A    
C3    C7    A    
Cu3   O5    S    
C27   C55   A    
C43   C52   A    
C32   C39   A    
Cu3   O12   S    
C11   C86   A    
C68   C74   A    
C14   C62   A    
C12   C22   S    
C69   H22   S    
C67   C89   A    
C58   H11   S    
C23   C26   S    
C69   C71   A    
C73   C77   A    
C10   H35   S    
C22   C66   A    
Cu2   Cu4   S    
C16   H18   S    
C36   O3    A    
C29   H54   S    
C44   C53   A    
C74   H32   S    
C19   C63   A    
C26   C87   A    
C49   C51   A    
Cu4   O15   S    
C36   O7    A    
C50   C52   A    
C41   C46   A    
C15   H17   S    
C31   H3    S    
C14   C45   A    
C24   C85   A    
C28   H34   S    
C44   C47   A    
C4    C8    A    
C42   C51   A    
C29   N3    A    
C3    C60   A    
Cu3   N3    S    
C30   N4    A    
Cu1   O9    S    
Cu1   Cu3   S    
Cu4   O14   S    
C4    C56   A    
C92   H51   S    
C50   H12   S    
C41   C43   A    
C13   C87   A    
C2    C6    A    
C76   C83   A    
C38   H56   S    
C7    C11   A    
C54   H53   S    
C91   H47   S    
C20   C91   S    
C46   C48   A    
C71   C75   A    
C35   O6    A    
C92   H50   S    
C88   H40   S    
C39   C41   A    
Cu3   O6    S    
C70   H24   S    
C12   O9    A    
C79   C81   A    
C2    C59   A    
C18   C62   A    
C39   H2    S    
C1    O12   A    
C82   C86   A    
C66   C73   A    
C4    C61   A    
C3    C45   A    
C18   C88   S    
Cu4   O8    S    
C72   H30   S    
Cu1   N1    S    
C22   C84   A    
C20   C64   A    
C33   O5    A    
C5    C9    A    
C2    C78   A    
C68   H21   S    
C23   O10   A    
C33   C63   S    
C46   C54   A    
C7    H9    S    
C72   C76   A    
C16   C67   A    
Cu1   O1    S    
C48   C50   A    
Cu3   O13   S    
C88   H42   S    
C90   H46   S    
C37   O8    A    
C18   C60   A    
C6    H8    S    
C74   C79   A    
C26   C70   A    
C25   C86   A    
C25   C69   A    
C20   C58   A    
C43   N4    A    
C61   H15   S    
C91   H49   S    
C37   C64   S    
C17   H19   S    
C56   C83   A    
C91   H48   S    
C57   N2    A    
C77   C80   A    
C27   C47   A    
C55   N1    A    
C28   C48   A    
Cu2   O4    S    
C21   C65   A    
C75   H25   S    
C13   H37   S    
C57   H39   S    
C67   C80   A    
C8    H10   S    
Cu2   O11   S    
C54   N2    A    
C90   H44   S    
C31   C38   A    
C75   C82   A    
C12   O13   A    
C9    H33   S    
C47   C49   A    
C55   H38   S    
C79   H28   S    
C25   C34   S    
C17   C65   A    
Cu4   O7    S    
C76   H26   S    
C15   C56   A    
C36   C65   S    
C1    O1    A    
C42   N3    A    
C35   O2    A    
C29   C31   A    
C19   C90   S    
C73   H31   S    
C30   C32   A    
Cu2   N2    S    
C78   C81   A    
C30   H55   S    
Cu4   N4    S    
C23   O14   A    
C19   C61   A    
C40   C42   A    
C17   C78   A    
C59   H13   S    
C35   C62   S    
C53   H45   S    
Cu1   O2    S    
C58   C89   A    
C5    C89   A    
C88   H41   S    
C60   H14   S    
C6    C10   A    
C24   C68   A    
C9    C84   A    
C49   H1    S    
C32   H4    S    
C40   C44   A    
C1    C24   S    
C15   C63   A    
C71   H29   S    
C70   C72   A    
C16   C64   A    
C33   O16   A    
C81   C85   A    
C51   H5    S    
C34   O11   A    
C21   C92   S    
