data_mof_unit_17412.cif
_audit_creation_date              2013-03-05T15:40:49-0500
_audit_creation_method            fapswitch 2.2
_symmetry_space_group_name_H-M    P1
_symmetry_Int_Tables_number       1
_space_group_crystal_system       triclinic
_cell_length_a                    7.771528
_cell_length_b                    8.562369
_cell_length_c                    14.877687
_cell_angle_alpha                 90.827091
_cell_angle_beta                  86.234509
_cell_angle_gamma                 93.687964
_cell_volume                      985.766564917

loop_
_atom_site_label
_atom_site_type_symbol
_atom_site_description
_atom_site_fract_x
_atom_site_fract_y
_atom_site_fract_z
_atom_type_partial_charge
O1    O     O_R   0.389250 0.738570 0.505970 -0.619464
O2    O     O_R   0.610750 0.261430 0.494030 -0.619463
O3    O     O_R   0.678390 0.711620 0.490370 -0.618887
O4    O     O_R   0.321610 0.288380 0.509630 -0.618890
C1    C     C_R   0.545772 0.794689 0.497562 0.994309
C2    C     C_R   0.454228 0.205311 0.502438 0.994305
O5    O     O_R   0.355420 0.513510 0.639950 -0.611852
O6    O     O_R   0.644580 0.486490 0.360050 -0.611850
O7    O     O_R   0.644560 0.486560 0.624350 -0.604863
O8    O     O_R   0.355440 0.513440 0.375650 -0.604864
C3    C     C_R   0.503027 0.501057 0.672603 0.955063
C4    C     C_R   0.496973 0.498943 0.327397 0.955055
Zn1   Zn    Zn3+2 0.306940 0.517990 0.510420 1.010435
Zn2   Zn    Zn3+2 0.693060 0.482010 0.489580 1.010436
C5    C     C_R   0.453544 0.355297 0.187035 0.266110
C6    C     C_R   0.546456 0.644705 0.812965 0.266107
C7    C     C_R   0.489879 0.496773 0.232455 -0.167894
C8    C     C_R   0.510121 0.503228 0.767545 -0.167895
C9    C     C_R   0.529647 0.636879 0.187698 -0.278519
C10   C     C_R   0.470355 0.363122 0.812302 -0.278521
C11   C     C_R   0.534425 0.639091 0.094821 0.134132
C12   C     C_R   0.465577 0.360910 0.905179 0.134132
C13   C     C_R   0.497761 0.498654 0.046955 0.038407
C14   C     C_R   0.502241 0.501348 0.953045 0.038407
C15   C     C_R   0.456755 0.355731 0.092966 0.007942
C16   C     C_R   0.543246 0.644270 0.907034 0.007942
C17   C     C_R   0.576840 0.779356 0.049360 -0.195818
C18   C     C_R   0.423163 0.220645 0.950640 -0.195818
C19   C     C_R   0.581959 0.782044 0.956064 -0.166856
C20   C     C_R   0.418044 0.217957 0.043936 -0.166857
H1    H     H_    0.558792 0.743619 0.225590 0.187357
H2    H     H_    0.441210 0.256382 0.774410 0.187358
H3    H     H_    0.606949 0.886916 0.085978 0.190411
H4    H     H_    0.393054 0.113084 0.914022 0.190415
H5    H     H_    0.617488 0.892197 0.922946 0.195887
H6    H     H_    0.382516 0.107804 0.077054 0.195886
C21   C     C_2   0.569852 0.958255 0.496297 -0.289960
C22   C     C_2   0.430148 0.041745 0.503703 -0.289964
H7    H     H_    0.701781 0.009403 0.489351 0.184338
H8    H     H_    0.298219 0.990597 0.510649 0.184337
N1    N     N_2   0.950330 0.457950 0.475660 -0.171363
N2    N     N_2   0.049670 0.542050 0.524340 -0.171363
H9    H     H_    0.013582 0.382884 0.432212 0.222190
H10   H     H_    0.986418 0.617116 0.567788 0.222190
N3    N     N_R   0.418234 0.212650 0.236502 0.182660
O9    O     O_R   0.285955 0.197953 0.294708 -0.407836
O10   O     O_R   0.525211 0.101790 0.228031 -0.435916
N4    N     N_R   0.581763 0.787352 0.763498 0.182662
O11   O     O_R   0.714029 0.802044 0.705282 -0.407841
O12   O     O_R   0.474792 0.898216 0.771976 -0.435920

loop_
_geom_bond_atom_site_label_1
_geom_bond_atom_site_label_2
_geom_bond_distance
_ccdc_geom_bond_type
C4    C7    1.417012 S    
O5    C3    1.285963 A    
O7    Zn2   2.015997 S    
C2    C22   1.401209 S    
C3    C8    1.417014 S    
C21   C22   1.335598 D    
C1    C21   1.401209 S    
C17   C19   1.386462 A    
N1    H9    1.029328 S    
N1    N2    1.275128 D    
C19   H5    1.081958 S    
O6    C4    1.285964 A    
C13   C14   1.395783 A    
C9    H1    1.086125 S    
C6    N4    1.437032 S    
C18   C20   1.386462 A    
C11   C17   1.397047 A    
C18   H4    1.083647 S    
C21   H7    1.087811 S    
C12   C18   1.397048 A    
N3    O9    1.300820 A    
C17   H3    1.083647 S    
C22   H8    1.087811 S    
O7    C3    1.285261 A    
O2    C2    1.277798 A    
O3    Zn2   1.976437 S    
N2    H10   1.029328 S    
Zn2   N1    2.019957 S    
O1    C1    1.277798 A    
O8    C4    1.285261 A    
N4    O12   1.300921 A    
Zn1   N2    2.019957 S    
C7    C9    1.387944 A    
C10   C12   1.380229 A    
C8    C10   1.387945 A    
C11   C13   1.411428 A    
C6    C16   1.398166 A    
O2    Zn2   1.955335 S    
C12   C14   1.411427 A    
C5    C15   1.398165 A    
O4    C2    1.287319 A    
O1    Zn1   1.955333 S    
C5    N3    1.437029 S    
O5    Zn1   1.989101 S    
C13   C15   1.418835 A    
C16   C19   1.404479 A    
C6    C8    1.400440 A    
C10   H2    1.086126 S    
N3    O10   1.300920 A    
C15   C20   1.404479 A    
C5    C7    1.400439 A    
N4    O11   1.300824 A    
O6    Zn2   1.989102 S    
C9    C11   1.380231 A    
O4    Zn1   1.976438 S    
C14   C16   1.418835 A    
O3    C1    1.287320 A    
O8    Zn1   2.015999 S    
C20   H6    1.081958 S    
