data_mof_unit_39995.cif
_audit_creation_date              2013-03-05T16:34:12-0500
_audit_creation_method            fapswitch 2.2
_symmetry_space_group_name_H-M    P1
_symmetry_Int_Tables_number       1
_space_group_crystal_system       triclinic
_cell_length_a                    10.903377
_cell_length_b                    10.847313
_cell_length_c                    9.578462
_cell_angle_alpha                 89.631273
_cell_angle_beta                  89.989872
_cell_angle_gamma                 90.818127
_cell_volume                      1132.72815792

loop_
_atom_site_label
_atom_site_type_symbol
_atom_site_description
_atom_site_fract_x
_atom_site_fract_y
_atom_site_fract_z
_atom_type_partial_charge
O1    O     O_R   0.500000 0.319640 0.618810 -0.529400
O2    O     O_R   0.500010 0.319680 0.381230 -0.600090
C1    C     C_R   0.495443 0.262358 0.499743 0.816938
O3    O     O_R   0.319640 0.499990 0.618790 -0.552455
O4    O     O_R   0.319650 0.500030 0.381210 -0.576710
C2    C     C_R   0.262779 0.505640 0.499394 0.809952
Cu1   Cu    Cu3+1 0.499990 0.499980 0.640670 0.993399
Cu2   Cu    Cu3+1 0.500010 0.500020 0.359330 0.953766
O5    O     O_R   0.499990 0.680320 0.618770 -0.582894
O6    O     O_R   0.500000 0.680360 0.381190 -0.581597
O7    O     O_R   0.680350 0.499970 0.618790 -0.582016
O8    O     O_R   0.680360 0.500010 0.381210 -0.585103
C3    C     C_R   0.494660 0.737505 0.499434 0.789199
C4    C     C_R   0.737893 0.496623 0.500784 0.781048
H1    H     H_    0.275591 0.761128 0.932598 0.136484
C5    C     C_R   0.213962 0.788322 0.143750 -0.128628
H2    H     H_    0.242095 0.884370 0.146048 0.142017
C6    C     C_R   0.158732 0.733860 0.261141 -0.142717
H3    H     H_    0.144850 0.788354 0.354037 0.121571
C7    C     C_R   0.121333 0.609559 0.258115 0.125451
C8    C     C_R   0.140963 0.540153 0.137185 -0.120946
H4    H     H_    0.115212 0.443472 0.134446 0.136591
C9    C     C_R   0.195896 0.595059 0.019947 -0.157840
H5    H     H_    0.210518 0.541435 0.926734 0.154154
C10   C     C_R   0.232555 0.718974 0.023252 -0.120384
C11   C     C_R   0.934391 0.545356 0.385654 -0.243391
H6    H     H_    0.883454 0.580757 0.297578 0.145363
C12   C     C_R   0.872374 0.497145 0.502821 -0.083747
C13   C     C_R   0.941105 0.457817 0.620556 -0.009617
C14   C     C_R   0.067812 0.467730 0.616637 -0.214162
H7    H     H_    0.118973 0.436574 0.706452 0.204678
C15   C     C_R   0.129259 0.510561 0.498338 -0.092120
C16   C     C_R   0.062045 0.552270 0.381780 -0.002859
C17   C     C_R   0.910507 0.449909 0.878448 -0.189842
H8    H     H_    0.947833 0.542772 0.886014 0.136833
C18   C     C_R   0.881801 0.384680 0.000716 -0.136100
H9    H     H_    0.893611 0.427777 0.101316 0.126725
C19   C     C_R   0.842183 0.262160 0.993452 -0.082344
H10   H     H_    0.823609 0.210391 0.088312 0.126555
C20   C     C_R   0.831014 0.205115 0.863866 -0.143597
H11   H     H_    0.808473 0.107807 0.859986 0.135537
C21   C     C_R   0.852867 0.272323 0.740566 -0.111089
H12   H     H_    0.847870 0.226286 0.640704 0.103032
C22   C     C_R   0.890692 0.396240 0.746876 0.144668
C23   C     C_R   0.488518 0.063076 0.622583 0.241786
C24   C     C_R   0.479821 0.129047 0.498422 -0.121402
C25   C     C_R   0.455527 0.064585 0.374053 -0.220465
H13   H     H_    0.443397 0.113211 0.276028 0.182421
C26   C     C_R   0.455431 0.935539 0.374072 -0.226217
H14   H     H_    0.444709 0.887598 0.275962 0.170076
C27   C     C_R   0.477714 0.870343 0.498772 -0.108530
C28   C     C_R   0.484533 0.935586 0.623606 0.131644
C29   C     C_3   0.582712 0.928556 0.730984 -0.512879
C30   C     C_3   0.592730 0.066674 0.722461 -0.466106
H15   H     H_    0.544798 0.896181 0.832714 0.210156
H16   H     H_    0.666393 0.881832 0.692955 0.195315
H17   H     H_    0.573025 0.112745 0.822373 0.256584
H18   H     H_    0.677709 0.098045 0.668930 0.172617
C31   C     C_R   0.543341 0.599750 0.072854 0.265463
N1    N     N_R   0.500790 0.500930 0.147930 -0.211963
C32   C     C_R   0.446416 0.407480 0.077334 -0.122648
H19   H     H_    0.403212 0.333259 0.136009 0.179894
C33   C     C_R   0.445673 0.405602 0.929344 0.381298
N2    N     N_R   0.500790 0.500890 0.852020 -0.243622
C34   C     C_R   0.542217 0.600622 0.925568 0.187100
C35   C     C_3   0.669096 0.653051 0.921039 -0.497345
C36   C     C_3   0.670103 0.651356 0.078972 -0.487611
H20   H     H_    0.732854 0.589355 0.871694 0.231011
H21   H     H_    0.675543 0.747182 0.878569 0.190540
H22   H     H_    0.736309 0.585101 0.122958 0.208918
H23   H     H_    0.673075 0.744884 0.125718 0.193126
N3    N     N_R   0.386561 0.300836 0.865942 0.122717
O9    O     O_R   0.296942 0.317004 0.779304 -0.373789
O10   O     O_R   0.392324 0.194158 0.928377 -0.442403

loop_
_geom_bond_atom_site_label_1
_geom_bond_atom_site_label_2
_geom_bond_distance
_ccdc_geom_bond_type
C2    C15   1.457589 S    
C35   H20   1.096294 S    
Cu1   Cu2   2.694801 S    
C25   C26   1.399789 A    
C29   C30   1.502321 S    
Cu1   O7    1.977634 S    
C11   H6    1.081530 S    
C12   C13   1.420766 A    
C19   C20   1.395051 A    
C6    H3    1.083208 S    
C14   H7    1.080416 S    
O7    C4    1.293638 A    
H1    C10   1.082535 S    
C35   H21   1.097998 S    
C6    C7    1.403542 A    
C17   H8    1.083884 S    
C32   C33   1.417818 A    
O5    C3    1.298707 A    
C31   C36   1.485074 S    
C3    C27   1.455327 S    
C5    H2    1.082232 S    
C26   C27   1.407118 A    
C9    H5    1.081761 S    
C17   C18   1.397517 A    
C20   C21   1.402473 A    
C35   C36   1.512785 S    
C31   N1    1.362781 A    
C8    H4    1.082273 S    
C21   C22   1.402047 A    
O3    Cu1   1.977598 S    
C29   H15   1.111318 S    
C19   H10   1.082612 S    
C27   C28   1.394827 A    
C17   C22   1.407053 A    
O3    C2    1.302483 A    
C23   C28   1.382962 A    
C23   C24   1.387977 A    
N1    C32   1.352065 A    
O1    C1    1.302879 A    
C13   C14   1.384661 A    
C11   C16   1.393280 A    
C25   H13   1.083033 S    
Cu2   O8    1.977599 S    
C33   N3    1.436586 S    
C7    C16   1.478490 S    
N3    O10   1.301466 A    
C20   H11   1.081210 S    
O8    C4    1.306534 A    
C23   C30   1.485749 S    
C34   C35   1.488740 S    
C8    C9    1.398378 A    
C13   C22   1.480249 S    
C21   H12   1.082898 S    
C28   C29   1.487043 S    
C30   H18   1.107153 S    
C29   H16   1.112434 S    
C5    C10   1.398051 A    
Cu1   O5    1.966075 S    
C24   C25   1.408460 A    
C18   H9    1.080628 S    
O1    Cu1   1.968719 S    
Cu2   O6    1.968719 S    
O2    Cu2   1.966078 S    
N3    O9    1.295203 A    
O6    C3    1.296321 A    
O4    Cu2   1.977634 S    
C1    C24   1.453781 S    
C11   C12   1.404395 A    
C36   H22   1.107316 S    
C15   C16   1.411204 A    
C18   C19   1.393752 A    
O2    C1    1.291407 A    
Cu2   N1    2.024864 S    
C14   C15   1.390237 A    
O4    C2    1.292823 A    
N2    C34   1.366246 A    
C36   H23   1.111632 S    
C9    C10   1.397394 A    
C32   H19   1.081291 S    
Cu1   N2    2.024516 S    
C33   N2    1.396544 A    
C7    C8    1.403595 A    
C5    C6    1.398934 A    
C26   H14   1.082497 S    
C4    C12   1.466365 S    
C31   C34   1.410799 A    
C30   H17   1.104958 S    
