data_mof_unit_63174.cif
_audit_creation_date              2012-12-10T17:06:02-0500
_audit_creation_method            fapswitch 2.2
_symmetry_space_group_name_H-M    P1
_symmetry_Int_Tables_number       1
_space_group_crystal_system       triclinic
_cell_length_a                    11.549796
_cell_length_b                    10.658072
_cell_length_c                    10.0308
_cell_angle_alpha                 88.192602
_cell_angle_beta                  89.985507
_cell_angle_gamma                 90.102922
_cell_volume                      1234.16065256

loop_
_atom_site_label
_atom_site_type_symbol
_atom_type_description
_atom_site_fract_x
_atom_site_fract_y
_atom_site_fract_z
_atom_type_partial_charge
C1    C     C_R   0.488321 0.262750 0.502221 0.913801
C2    C     C_2   0.497442 0.871461 0.488522 -0.344907
C3    C     C_2   0.442275 0.071106 0.395836 -0.179700
C4    C     C_2   0.446242 0.135111 0.508852 -0.008394
C5    C     C_2   0.557457 0.580836 0.922340 -0.115027
C6    C     C_2   0.551572 0.585379 0.072139 -0.134526
C7    C     C_R   0.281938 0.500132 0.499993 0.892277
C8    C     C_R   0.498481 0.737938 0.497363 0.925559
C9    C     C_R   0.718055 0.499977 0.499996 0.905072
C10   C     C_1   0.161487 0.500241 0.499976 -0.185692
C11   C     C_1   0.059333 0.500282 0.499962 0.001500
C12   C     C_1   0.940682 0.500232 0.499964 0.001576
C13   C     C_1   0.838523 0.500124 0.499979 -0.189082
C14   C     C_2   0.432475 0.935677 0.398168 0.207488
H1    H     H_    0.552465 0.919122 0.558808 0.138293
H2    H     H_    0.461399 0.115893 0.299475 0.152578
H3    H     H_    0.610933 0.650472 0.870505 0.160594
H4    H     H_    0.445541 0.439736 0.899900 0.161901
H5    H     H_    0.594234 0.663275 0.119029 0.159411
H6    H     H_    0.466295 0.423924 0.104730 0.164431
N1    N     N_2   0.501210 0.501330 0.852150 -0.188818
N2    N     N_2   0.501250 0.501360 0.147810 -0.188523
O1    O     O_R   0.499980 0.319060 0.613040 -0.604046
O2    O     O_R   0.500020 0.319100 0.386900 -0.633566
O3    O     O_R   0.334430 0.499990 0.613070 -0.609408
O4    O     O_R   0.334470 0.500030 0.386930 -0.608096
O5    O     O_R   0.499980 0.680900 0.613100 -0.614722
O6    O     O_R   0.500020 0.680940 0.386960 -0.604897
O7    O     O_R   0.665530 0.499970 0.613070 -0.604279
O8    O     O_R   0.665570 0.500010 0.386930 -0.600667
Zn1   Zn    Zn3+2 0.499980 0.499970 0.650990 0.946005
Zn2   Zn    Zn3+2 0.500020 0.500030 0.349010 0.940017
C15   C     C_3   0.354738 0.876071 0.296811 -0.823395
H7    H     H_    0.301649 0.948403 0.243282 0.223027
H8    H     H_    0.407275 0.827781 0.221329 0.248340
H9    H     H_    0.294693 0.808307 0.347275 0.234326
C16   C     C_3   0.397610 0.085074 0.641119 -0.871549
H10   H     H_    0.336670 0.154761 0.681743 0.241414
H11   H     H_    0.347476 0.996920 0.631623 0.253923
H12   H     H_    0.469017 0.069497 0.713814 0.237762

loop_
_geom_bond_atom_site_label_1
_geom_bond_atom_site_label_2
_ccdc_geom_bond_type
O3    Zn1   S    
C7    C10   S    
C11   C12   S    
O2    Zn2   S    
O4    Zn2   S    
C16   H10   S    
C6    H5    S    
C3    C14   S    
H4    N1    S    
C7    O3    A    
C9    O7    A    
C1    C4    S    
C14   C15   S    
C15   H7    S    
O7    Zn1   S    
C4    C16   S    
O8    Zn2   S    
C2    H1    S    
N1    Zn1   S    
C7    O4    A    
N2    Zn2   S    
C9    O8    A    
C2    C14   D    
C15   H8    S    
H6    N2    S    
C1    O1    A    
C16   H12   S    
C5    C6    S    
C8    O6    A    
C5    H3    S    
C10   C11   T    
O5    Zn1   S    
C3    C4    D    
C6    N2    D    
O6    Zn2   S    
C15   H9    S    
C5    N1    D    
C12   C13   T    
C1    O2    A    
C16   H11   S    
C8    O5    A    
C9    C13   S    
C2    C8    S    
C3    H2    S    
O1    Zn1   S    
