data_mof_unit_16398.cif
_audit_creation_date              2012-10-26T20:43:02-0400
_audit_creation_method            fapswitch 2.2
_symmetry_space_group_name_H-M    P1
_symmetry_Int_Tables_number       1
_space_group_crystal_system       triclinic
_cell_length_a                    10.889978
_cell_length_b                    9.525201
_cell_length_c                    15.090818
_cell_angle_alpha                 90.004973
_cell_angle_beta                  90.385213
_cell_angle_gamma                 89.755604
_cell_volume                      1565.30929987

loop_
_atom_site_label
_atom_site_type_symbol
_atom_type_description
_atom_site_fract_x
_atom_site_fract_y
_atom_site_fract_z
_atom_type_partial_charge
C1    C     C_R   0.262409 0.500211 0.500011 0.568272
C2    C     C_R   0.128390 0.500249 0.499946 -0.005998
C3    C     C_R   0.447747 0.074623 0.431727 0.037583
C4    C     C_R   0.552253 0.925376 0.568273 0.037583
C5    C     C_R   0.551706 0.074002 0.568442 0.041393
C6    C     C_R   0.448294 0.925998 0.431558 0.041393
C7    C     C_R   0.498893 0.499641 0.329126 0.573187
C8    C     C_R   0.501107 0.500359 0.670874 0.573187
C9    C     C_R   0.613448 0.503832 0.813544 0.048217
C10   C     C_R   0.386552 0.496168 0.186456 0.048216
C11   C     C_R   0.501177 0.502170 0.767318 -0.001921
C12   C     C_R   0.737590 0.499789 0.499989 0.568272
C13   C     C_R   0.498823 0.497830 0.232682 -0.001921
C14   C     C_R   0.389245 0.511122 0.812333 -0.040934
C15   C     C_R   0.610755 0.488877 0.187667 -0.040934
C16   C     C_R   0.389047 0.514776 0.905470 -0.008088
C17   C     C_R   0.610953 0.485223 0.094530 -0.008088
C18   C     C_R   0.500855 0.500339 0.953025 0.021755
C19   C     C_R   0.499145 0.499661 0.046975 0.021755
C20   C     C_R   0.614200 0.488157 0.906844 0.017042
C21   C     C_R   0.385799 0.511843 0.093156 0.017042
C22   C     C_R   0.279318 0.535976 0.951835 -0.114997
C23   C     C_R   0.277021 0.539100 0.043814 -0.000263
C24   C     C_R   0.720682 0.464024 0.048165 -0.114997
C25   C     C_1   0.275635 0.527130 0.762221 0.214170
C26   C     C_1   0.724364 0.472870 0.237779 0.214170
C27   C     C_1   0.163887 0.588522 0.082800 0.251168
C28   C     C_1   0.836113 0.411478 0.917200 0.251168
C29   C     C_1   0.130761 0.287447 0.597216 0.271019
C30   C     C_1   0.869239 0.712553 0.402784 0.271019
C31   C     C_1   0.874034 0.289477 0.599462 0.270439
C32   C     C_1   0.125966 0.710523 0.400538 0.270439
C33   C     C_R   0.722979 0.460900 0.956185 -0.000263
C34   C     C_R   0.065114 0.394458 0.546577 -0.029989
C35   C     C_R   0.934886 0.605542 0.453423 -0.029989
C36   C     C_R   0.936957 0.394574 0.546916 -0.030933
C37   C     C_R   0.063043 0.605426 0.453084 -0.030933
C38   C     C_R   0.871610 0.499751 0.500054 -0.005998
Cu1   Cu    Cu3+1 0.500000 0.640660 0.500000 1.020823
Cu2   Cu    Cu3+1 0.500000 0.359340 0.500000 1.020823
H1    H     H_    0.193850 0.554930 0.916457 0.153893
H2    H     H_    0.806150 0.445069 0.083543 0.153893
H3    H     H_    0.405316 0.130456 0.377085 0.143155
H4    H     H_    0.594684 0.869544 0.622915 0.143155
H5    H     H_    0.592327 0.129323 0.623686 0.150959
H6    H     H_    0.407673 0.870677 0.376314 0.150959
I1    I     I_    0.771778 0.573023 0.741250 -0.312777
I2    I     I_    0.228222 0.426977 0.258750 -0.312777
N1    N     N_R   0.500000 0.852070 0.500000 -0.236327
N2    N     N_1   0.174811 0.794405 0.358161 -0.272112
N3    N     N_R   0.500000 0.147930 0.500000 -0.236327
N4    N     N_1   0.184858 0.541466 0.722947 -0.267840
N5    N     N_1   0.815142 0.458534 0.277052 -0.267840
N6    N     N_1   0.072805 0.629117 0.112795 -0.233667
N7    N     N_1   0.927195 0.370883 0.887205 -0.233667
N8    N     N_1   0.182765 0.202311 0.637538 -0.245222
N9    N     N_1   0.817235 0.797689 0.362462 -0.245222
N10   N     N_1   0.825189 0.205595 0.641839 -0.272112
O1    O     O_R   0.319640 0.618740 0.499990 -0.491640
O2    O     O_R   0.680360 0.381260 0.500010 -0.491640
O3    O     O_R   0.680360 0.618740 0.500010 -0.490656
O4    O     O_R   0.319640 0.381260 0.499990 -0.490656
O5    O     O_R   0.499970 0.618800 0.370260 -0.499722
O6    O     O_R   0.500030 0.381200 0.629740 -0.499723
O7    O     O_R   0.500030 0.618800 0.629740 -0.499990
O8    O     O_R   0.499970 0.381200 0.370260 -0.499990

loop_
_geom_bond_atom_site_label_1
_geom_bond_atom_site_label_2
_ccdc_geom_bond_type
C26   N5    T    
C19   C21   A    
Cu2   O2    S    
C29   N8    T    
C23   C27   S    
Cu2   N3    S    
C24   H2    S    
C1    C2    S    
C9    C20   A    
C34   C36   A    
C24   C33   A    
Cu2   O6    S    
C6    H6    S    
C4    N1    A    
C9    C11   A    
C3    C6    A    
Cu1   O1    S    
C1    O4    A    
C2    C34   A    
C36   C38   A    
C27   N6    T    
Cu2   O4    S    
C8    O7    A    
C6    N1    A    
Cu2   O8    S    
C32   C37   S    
C7    O8    A    
C12   C38   S    
C12   O3    A    
Cu1   O7    S    
C2    C37   A    
C7    O5    A    
C30   C35   S    
C8    O6    A    
C8    C11   S    
C20   C33   A    
C3    H3    S    
C31   N10   T    
Cu1   N1    S    
C1    O1    A    
C28   C33   S    
C9    I1    S    
C18   C20   A    
C13   C15   A    
C10   C21   A    
C10   I2    S    
Cu1   O3    S    
C11   C14   A    
C14   C16   A    
C25   N4    T    
C17   C24   A    
C17   C19   A    
C22   H1    S    
C30   N9    T    
C7    C13   S    
C35   C38   A    
Cu1   O5    S    
C14   C25   S    
C16   C18   A    
C18   C19   A    
Cu1   Cu2   S    
C15   C17   A    
C3    N3    A    
C31   C36   S    
C5    N3    A    
C15   C26   S    
C16   C22   A    
C4    H4    S    
C35   C37   A    
C22   C23   A    
C5    H5    S    
C21   C23   A    
C28   N7    T    
C32   N2    T    
C4    C5    A    
C29   C34   S    
C10   C13   A    
C12   O2    A    
