data_mof_unit_40688.cif
_audit_creation_date              2013-03-05T15:42:34-0500
_audit_creation_method            fapswitch 2.2
_symmetry_space_group_name_H-M    P1
_symmetry_Int_Tables_number       1
_space_group_crystal_system       triclinic
_cell_length_a                    10.807882
_cell_length_b                    10.914983
_cell_length_c                    9.729231
_cell_angle_alpha                 91.462672
_cell_angle_beta                  90.201178
_cell_angle_gamma                 90.628078
_cell_volume                      1147.28528917

loop_
_atom_site_label
_atom_site_type_symbol
_atom_site_description
_atom_site_fract_x
_atom_site_fract_y
_atom_site_fract_z
_atom_type_partial_charge
O1    O     O_R   0.500020 0.321960 0.617040 -0.569894
O2    O     O_R   0.499980 0.321920 0.382900 -0.515088
C1    C     C_R   0.498328 0.265431 0.498462 0.815951
O3    O     O_R   0.319670 0.500020 0.617100 -0.598170
O4    O     O_R   0.319630 0.499980 0.382950 -0.538709
C2    C     C_R   0.262880 0.495063 0.499600 0.812139
Cu1   Cu    Cu3+1 0.500020 0.500020 0.638630 1.033726
Cu2   Cu    Cu3+1 0.499980 0.499980 0.361370 1.068789
O5    O     O_R   0.500020 0.678080 0.617100 -0.520438
O6    O     O_R   0.499980 0.678040 0.382960 -0.592673
O7    O     O_R   0.680370 0.500020 0.617050 -0.580190
O8    O     O_R   0.680330 0.499980 0.382900 -0.542241
C3    C     C_R   0.505899 0.734870 0.501956 0.795945
C4    C     C_R   0.737380 0.496312 0.500387 0.843623
H1    H     H_    0.117691 0.634134 0.357438 0.184961
C5    C     C_R   0.127664 0.309071 0.650819 -0.207936
H2    H     H_    0.226743 0.298140 0.644220 0.169874
C6    C     C_R   0.063286 0.228960 0.734173 -0.145274
H3    H     H_    0.113499 0.161583 0.791159 0.197120
C7    C     C_R   0.935238 0.235352 0.744463 0.468570
C8    C     C_R   0.870605 0.317900 0.664055 -0.227213
H4    H     H_    0.771064 0.313709 0.667850 0.191081
C9    C     C_R   0.934259 0.403381 0.581543 -0.013086
C10   C     C_R   0.064944 0.400149 0.577832 0.102467
C11   C     C_R   0.129333 0.486072 0.498171 -0.110176
C12   C     C_R   0.066329 0.568568 0.417508 -0.221277
C13   C     C_R   0.938428 0.573607 0.419633 0.337333
C14   C     C_R   0.871639 0.491277 0.501775 -0.180941
C15   C     C_2   0.526201 0.931837 0.393272 -0.222177
C16   C     C_2   0.531396 0.866391 0.508622 0.172953
H5    H     H_    0.508056 0.887339 0.294005 0.189078
C17   C     C_2   0.539157 0.065469 0.395352 -0.045876
C18   C     C_2   0.487881 0.133496 0.495697 -0.217014
H6    H     H_    0.588473 0.107769 0.311756 0.210661
H7    H     H_    0.437076 0.091733 0.578770 0.173894
C19   C     C_2   0.409581 0.459714 0.921491 -0.091665
N1    N     N_2   0.498640 0.498660 0.846910 -0.293604
H8    H     H_    0.324023 0.431714 0.870901 0.208222
H9    H     H_    0.582458 0.514234 0.895324 0.218882
C20   C     C_2   0.426442 0.432268 0.070753 0.484961
N2    N     N_2   0.498610 0.498630 0.153040 -0.333576
H10   H     H_    0.535099 0.576942 0.111500 0.187180
S1    S     S_3+6 0.356851 0.291209 0.117419 0.056400
O9    O     O_2   0.457336 0.198880 0.133313 -0.279379
O10   O     O_2   0.282830 0.300752 0.247171 -0.271041
O11   O     O_3   0.261768 0.240226 0.990890 -0.556619
H11   H     H_    0.233388 0.158231 0.019777 0.393191
S2    S     S_3+6 0.857884 0.142478 0.862957 0.065512
O12   O     O_2   0.720695 0.163703 0.859192 -0.228424
O13   O     O_2   0.884066 0.010150 0.829351 -0.215908
O14   O     O_3   0.912413 0.177288 0.021413 -0.510618
H12   H     H_    0.867216 0.121587 0.083018 0.388773
N3    N     N_R   0.878287 0.667442 0.343515 0.135003
O15   O     O_R   0.919784 0.696809 0.223164 -0.314244
O16   O     O_R   0.795605 0.736506 0.402531 -0.348229
N4    N     N_R   0.577989 0.919911 0.635757 0.142871
O17   O     O_R   0.525346 0.895575 0.752149 -0.300287
O18   O     O_R   0.680344 0.983700 0.636170 -0.257194

loop_
_geom_bond_atom_site_label_1
_geom_bond_atom_site_label_2
_geom_bond_distance
_ccdc_geom_bond_type
O4    Cu2   1.961210 S    
S1    O9    1.499911 D    
C13   N3    1.438700 S    
C15   C16   1.346955 D    
N2    H10   1.029989 S    
Cu2   O8    1.959693 S    
C4    C14   1.452719 S    
C17   C18   1.336930 D    
C20   S1    1.776255 S    
S2    O13   1.502883 D    
O2    C1    1.296107 A    
Cu1   N1    2.026944 S    
Cu1   Cu2   2.697514 S    
C5    C10   1.414024 A    
C5    C6    1.390396 A    
O1    Cu1   1.949502 S    
C9    C14   1.424542 A    
C10   C11   1.411077 A    
Cu1   O7    1.961208 S    
S1    O10   1.498898 D    
C12   C13   1.384236 A    
C7    S2    1.761677 S    
C19   N1    1.282731 D    
O3    Cu1   1.959693 S    
C8    H4    1.077106 S    
S2    O12   1.503686 D    
C18   H7    1.085805 S    
O8    C4    1.298573 A    
C15   C17   1.463392 S    
C6    C7    1.390283 A    
N3    O16   1.301063 A    
C8    C9    1.419976 A    
O4    C2    1.293981 A    
N1    H9    1.030027 S    
S1    O11   1.680704 S    
S2    O14   1.681427 S    
O3    C2    1.295264 A    
N4    O17   1.301225 A    
C1    C18   1.442816 S    
C9    C10   1.413815 A    
C19   H8    1.083354 S    
C2    C11   1.445611 S    
C3    C16   1.458553 S    
C19   C20   1.501125 S    
C7    C8    1.399185 A    
C15   H5    1.086157 S    
C6    H3    1.081754 S    
C13   C14   1.412020 A    
Cu1   O5    1.960086 S    
O5    C3    1.295511 A    
O11   H11   0.990690 S    
C20   N2    1.314386 D    
H1    C12   1.084802 S    
Cu2   N2    2.026570 S    
C11   C12   1.391454 A    
N3    O15   1.301791 A    
C16   N4    1.441215 S    
O7    C4    1.293342 A    
Cu2   O6    1.949501 S    
O2    Cu2   1.960087 S    
O14   H12   0.990777 S    
N4    O18   1.300577 A    
C5    H2    1.080712 S    
O1    C1    1.294317 A    
O6    C3    1.300454 A    
C17   H6    1.084238 S    
