data_mof_unit_5925.cif
_audit_creation_date              2012-12-10T17:19:26-0500
_audit_creation_method            fapswitch 2.2
_symmetry_space_group_name_H-M    P1
_symmetry_Int_Tables_number       1
_space_group_crystal_system       triclinic
_cell_length_a                    15.122096
_cell_length_b                    10.863516
_cell_length_c                    9.562424
_cell_angle_alpha                 90.544862
_cell_angle_beta                  90.617952
_cell_angle_gamma                 92.648436
_cell_volume                      1569.05874496

loop_
_atom_site_label
_atom_site_type_symbol
_atom_type_description
_atom_site_fract_x
_atom_site_fract_y
_atom_site_fract_z
_atom_type_partial_charge
C1    C     C_R   0.507346 0.263184 0.500196 0.805680
C2    C     C_R   0.905004 0.526126 0.376196 0.121441
C3    C     C_R   0.956295 0.454238 0.750234 0.394625
C4    C     C_R   0.048555 0.460110 0.746356 -0.199456
C5    C     C_R   0.093319 0.484780 0.621683 0.019061
C6    C     C_R   0.045686 0.507118 0.498023 0.049786
C7    C     C_R   0.090873 0.533913 0.372119 0.068475
C8    C     C_R   0.041370 0.555669 0.249670 -0.188954
C9    C     C_R   0.949586 0.551364 0.251910 -0.177945
C10   C     C_R   0.185296 0.485048 0.619189 -0.223827
C11   C     C_R   0.231444 0.509405 0.495425 -0.121728
C12   C     C_R   0.328639 0.503425 0.498826 0.815590
C13   C     C_R   0.184172 0.538086 0.371539 -0.073327
C14   C     C_R   0.564072 0.124926 0.752611 -0.142235
C15   C     C_R   0.556752 0.068010 0.882085 -0.146010
C16   C     C_R   0.513472 0.953020 0.891493 -0.145306
C17   C     C_R   0.485911 0.889654 0.770062 -0.161776
C18   C     C_R   0.501989 0.940590 0.635928 0.096458
C19   C     C_R   0.528184 0.066537 0.630029 0.098795
C20   C     C_R   0.515979 0.129596 0.502440 -0.119277
C21   C     C_R   0.499840 0.062698 0.378374 -0.206390
C22   C     C_R   0.492441 0.935507 0.380342 -0.205356
C23   C     C_R   0.495659 0.737772 0.501723 0.784399
C24   C     C_R   0.493076 0.872597 0.507565 -0.110570
C25   C     C_R   0.618147 0.664027 0.147732 -0.185383
C26   C     C_R   0.676311 0.743338 0.077137 -0.272524
C27   C     C_R   0.676800 0.742782 0.932792 -0.001860
C28   C     C_R   0.618630 0.662654 0.858856 -0.200483
C29   C     C_R   0.558302 0.580208 0.926836 0.176793
C30   C     C_R   0.558136 0.580516 0.076586 0.218587
C31   C     C_R   0.444908 0.423206 0.072248 -0.040860
C32   C     C_R   0.444858 0.423337 0.924100 -0.055208
C33   C     C_R   0.671200 0.500834 0.500714 0.788857
C34   C     C_R   0.813203 0.523511 0.377400 -0.235126
C35   C     C_R   0.767760 0.502043 0.501809 -0.063543
C36   C     C_R   0.814462 0.481910 0.626339 -0.234674
C37   C     C_R   0.907169 0.478684 0.626918 0.000329
C38   C     C_R   0.952612 0.503694 0.500512 0.029044
Cu1   Cu    Cu3+1 0.499990 0.499990 0.640660 0.926252
Cu2   Cu    Cu3+1 0.500010 0.500010 0.359340 0.947178
H1    H     H_    0.777202 0.540195 0.281239 0.160676
H2    H     H_    0.599284 0.213725 0.749764 0.158824
H3    H     H_    0.582221 0.114833 0.975576 0.138221
H4    H     H_    0.502851 0.911522 0.992809 0.142469
H5    H     H_    0.449086 0.803574 0.784966 0.176303
H6    H     H_    0.484384 0.886479 0.281488 0.167756
H7    H     H_    0.399771 0.360424 0.126364 0.137054
H8    H     H_    0.623635 0.672680 0.258021 0.208914
H9    H     H_    0.721047 0.805708 0.135995 0.162367
H10   H     H_    0.622763 0.669818 0.748648 0.206862
H11   H     H_    0.777586 0.469681 0.721777 0.162624
H12   H     H_    0.399718 0.360560 0.867090 0.141690
H13   H     H_    0.085439 0.442314 0.841378 0.166254
H14   H     H_    0.221087 0.464586 0.714457 0.163330
H15   H     H_    0.072892 0.575487 0.150807 0.164404
H16   H     H_    0.913355 0.568405 0.156090 0.178956
H17   H     H_    0.492558 0.108617 0.279097 0.161849
N1    N     N_R   0.500860 0.501210 0.147910 -0.195967
N2    N     N_R   0.500890 0.501290 0.852040 -0.201899
O1    O     O_R   0.499990 0.319640 0.618810 -0.589816
O2    O     O_R   0.500000 0.319660 0.381240 -0.582291
O3    O     O_R   0.370250 0.499960 0.618800 -0.582059
O4    O     O_R   0.370260 0.499980 0.381230 -0.567322
O5    O     O_R   0.500000 0.680340 0.618760 -0.614361
O6    O     O_R   0.500010 0.680360 0.381190 -0.596327
O7    O     O_R   0.629740 0.500020 0.618770 -0.610362
O8    O     O_R   0.629750 0.500040 0.381200 -0.601914
C39   C     C_1   0.736430 0.826265 0.859463 0.252292
N3    N     N_1   0.784180 0.893334 0.800417 -0.278403
O9    O     O_3   0.917686 0.424250 0.876218 -0.741496
H18   H     H_    0.862442 0.374277 0.857504 0.319599
C40   C     C_1   0.230250 0.575821 0.245270 0.253835
N4    N     N_1   0.266671 0.606106 0.144521 -0.291597

loop_
_geom_bond_atom_site_label_1
_geom_bond_atom_site_label_2
_ccdc_geom_bond_type
C4    H13   S    
C35   C36   A    
C7    C8    A    
Cu1   O5    S    
C26   C27   A    
C29   C30   A    
Cu2   O4    S    
C18   C24   A    
C31   N1    A    
C28   C29   A    
C17   H5    S    
C34   C35   A    
C5    C6    A    
C15   C16   A    
C18   C19   A    
C32   H12   S    
C27   C39   S    
C39   N3    T    
C28   H10   S    
C29   N2    A    
C8    C9    A    
Cu2   O8    S    
C23   C24   S    
C6    C38   A    
O9    H18   S    
C16   H4    S    
C14   H2    S    
C2    C34   A    
C31   H7    S    
C21   C22   A    
C34   H1    S    
C8    H15   S    
C33   O7    A    
Cu2   N1    S    
C3    O9    S    
C40   N4    T    
C26   H9    S    
Cu1   Cu2   S    
C12   O4    A    
C16   C17   A    
C25   C26   A    
Cu2   O2    S    
C21   H17   S    
C37   C38   A    
C12   O3    A    
C2    C38   A    
C31   C32   A    
Cu1   N2    S    
C17   C18   A    
C9    H16   S    
C25   H8    S    
C36   H11   S    
C23   O5    A    
C22   H6    S    
Cu2   O6    S    
Cu1   O7    S    
C22   C24   A    
C1    O1    A    
C3    C4    A    
C33   O8    A    
C25   C30   A    
Cu1   O3    S    
C36   C37   A    
C1    C20   S    
C14   C19   A    
C4    C5    A    
C1    O2    A    
C11   C12   S    
C6    C7    A    
C13   C40   S    
C23   O6    A    
C19   C20   A    
C15   H3    S    
C5    C10   A    
C11   C13   A    
Cu1   O1    S    
C30   N1    A    
C33   C35   S    
C10   H14   S    
C10   C11   A    
C7    C13   A    
C20   C21   A    
C3    C37   A    
C27   C28   A    
C14   C15   A    
C32   N2    A    
C2    C9    A    
