data_mof_unit_21004.cif
_audit_creation_date              2012-12-11T15:29:29-0500
_audit_creation_method            fapswitch 2.2
_symmetry_space_group_name_H-M    P1
_symmetry_Int_Tables_number       1
_space_group_crystal_system       triclinic
_cell_length_a                    8.25594
_cell_length_b                    15.20156
_cell_length_c                    18.908493
_cell_angle_alpha                 95.787636
_cell_angle_beta                  94.786678
_cell_angle_gamma                 98.9683
_cell_volume                      2320.21176727

loop_
_atom_site_label
_atom_site_type_symbol
_atom_type_description
_atom_site_fract_x
_atom_site_fract_y
_atom_site_fract_z
_atom_type_partial_charge
Ba1   Ba    Ba6+2 0.161760 0.544680 0.467770 1.783447
Ba2   Ba    Ba6+2 0.648420 0.455310 0.532170 1.769881
C1    C     C_3   0.324885 0.757049 0.177109 -0.248681
C2    C     C_3   0.391599 0.723422 0.245069 0.412498
C3    C     C_3   0.557133 0.730050 0.622082 0.332190
C4    C     C_3   0.571990 0.831504 0.633365 -0.356489
C5    C     C_3   0.867375 0.215515 0.679663 0.330930
C6    C     C_3   0.868593 0.121181 0.700320 -0.289440
C7    C     C_3   0.369957 0.184537 0.732668 0.622219
C8    C     C_3   0.461844 0.146497 0.794599 0.252242
C9    C     C_R   0.164634 0.172403 0.557956 0.011948
C10   C     C_R   0.096631 0.079686 0.550343 -0.053509
C11   C     C_R   0.965282 0.892037 0.531551 -0.024772
C12   C     C_3   0.903784 0.781702 0.266763 0.212398
C13   C     C_R   0.117408 0.925485 0.571292 0.063653
C14   C     C_R   0.182695 0.016736 0.579541 0.000577
C15   C     C_R   0.900848 0.798434 0.521435 0.019482
C16   C     C_R   0.752698 0.769374 0.481757 -0.248113
C17   C     C_R   0.917956 0.205751 0.488034 0.005309
C18   C     C_R   0.849848 0.111447 0.481710 -0.084960
C19   C     C_R   0.939550 0.048663 0.511387 0.002680
C20   C     C_R   0.691784 0.078131 0.448380 -0.036822
C21   C     C_R   0.621554 0.986900 0.439488 0.450037
C22   C     C_R   0.716271 0.921642 0.460764 -0.132086
C23   C     C_3   0.965921 0.865531 0.232215 0.210198
C24   C     C_R   0.873406 0.954128 0.501164 -0.045831
C25   C     C_R   0.663808 0.826084 0.447733 0.075828
C26   C     C_R   0.073245 0.233287 0.527379 -0.261066
C27   C     C_R   0.626859 0.523784 0.296604 -0.113659
C28   C     C_R   0.462821 0.487569 0.275242 0.004947
C29   C     C_R   0.398648 0.488938 0.204448 -0.156796
C30   C     C_R   0.499158 0.527302 0.154984 0.013261
C31   C     C_R   0.663905 0.566266 0.178300 -0.097044
C32   C     C_R   0.725948 0.565807 0.249397 0.100878
C33   C     C_R   0.472131 0.598999 0.041365 -0.092043
C34   C     C_3   0.678008 0.262884 0.299377 0.545240
C35   C     C_R   0.413173 0.595387 0.969393 -0.034172
C36   C     C_R   0.315126 0.517181 0.933346 0.057606
C37   C     C_R   0.275171 0.443225 0.971296 -0.022417
C38   C     C_R   0.333421 0.446977 0.043307 -0.018452
C39   C     C_R   0.433403 0.524684 0.079065 0.052150
C40   C     C_R   0.100531 0.467325 0.828252 0.069104
C41   C     C_R   0.050778 0.460148 0.754994 0.104291
C42   C     C_R   0.322634 0.537501 0.735150 0.006669
C43   C     C_R   0.369864 0.546615 0.808596 -0.042623
C44   C     C_R   0.259768 0.511663 0.855897 0.058694
C45   C     C_3   0.605294 0.161152 0.280618 0.274041
C46   C     C_R   0.160184 0.498558 0.709210 -0.254606
C47   C     C_3   0.987471 0.677695 0.700495 0.187852
C48   C     C_3   0.907517 0.727669 0.760212 0.629993
C49   C     C_3   0.230766 0.273508 0.374760 0.274389
C50   C     C_3   0.148416 0.178784 0.346030 -0.200227
H1    H     H_    0.709452 0.122283 0.274540 0.149485
H2    H     H_    0.904349 0.618381 0.672977 0.009091
H3    H     H_    0.784573 0.737595 0.739177 -0.015166
H4    H     H_    0.138265 0.310152 0.397443 0.030251
H5    H     H_    0.084322 0.146274 0.387475 0.039147
H6    H     H_    0.056764 0.179946 0.299872 0.208989
H7    H     H_    0.426935 0.795661 0.152643 0.158206
H8    H     H_    0.677820 0.711755 0.611384 -0.078256
H9    H     H_    0.614841 0.862117 0.586402 0.046476
H10   H     H_    0.449122 0.849051 0.641363 0.152017
H11   H     H_    0.234377 0.801532 0.188458 0.157365
H12   H     H_    0.766633 0.212393 0.636198 0.076712
H13   H     H_    0.986770 0.237667 0.659429 0.043307
H14   H     H_    0.960345 0.122703 0.748114 0.216655
H15   H     H_    0.742997 0.089536 0.711746 0.112471
H16   H     H_    0.473313 0.189553 0.846421 0.125979
H17   H     H_    0.589747 0.141964 0.784363 0.036101
H18   H     H_    0.189396 0.881261 0.595822 0.126734
H19   H     H_    0.303086 0.037146 0.608737 0.083919
H20   H     H_    0.615445 0.124281 0.432540 0.137647
H21   H     H_    0.706660 0.697914 0.475321 0.073708
H22   H     H_    0.126986 0.303401 0.531674 0.072654
H23   H     H_    0.493660 0.578560 0.828545 0.136224
H24   H     H_    0.443703 0.653995 0.941937 0.116583
H25   H     H_    0.546881 0.660254 0.067722 0.075771
H26   H     H_    0.781991 0.751563 0.238589 0.024642
H27   H     H_    0.303653 0.388095 0.070531 0.120031
H28   H     H_    0.016302 0.436922 0.863195 0.079220
H29   H     H_    0.743809 0.596279 0.141591 0.064002
H30   H     H_    0.123223 0.491828 0.652389 0.066595
H31   H     H_    0.677308 0.520559 0.350792 0.058277
H32   H     H_    0.968056 0.847209 0.173984 0.070002
H33   H     H_    0.588248 0.301179 0.323538 -0.068775
O1    O     O_2   0.165020 0.721890 0.541560 -0.476326
O2    O     O_3   0.295939 0.313918 0.317992 -0.598589
O3    O     O_3   0.016742 0.722506 0.259043 -0.640070
O4    O     O_2   0.645270 0.278050 0.458420 -0.503960
O5    O     O_3   0.917270 0.391510 0.460760 -0.465400
O6    O     O_3   0.421180 0.332490 0.586040 -0.453537
O7    O     O_3   0.824856 0.271842 0.344727 -0.660344
O8    O     O_3   0.383630 0.545490 0.584580 -0.493986
O9    O     O_3   0.845910 0.377930 0.622570 -0.514126
O10   O     O_2   0.700301 0.414077 0.738329 -0.380861
O11   O     O_3   0.846032 0.274424 0.739404 -0.543533
O12   O     O_3   0.893030 0.608480 0.539180 -0.502459
O13   O     O_3   0.426670 0.454500 0.415370 -0.509042
O14   O     O_2   0.638230 0.542350 0.670940 -0.467516
O15   O     O_3   0.509098 0.696549 0.684725 -0.614463
O16   O     O_2   0.497591 0.179653 0.544485 -0.460786
O17   O     O_3   0.480127 0.206030 0.681004 -0.631228
O18   O     O_3   0.389120 0.667500 0.413900 -0.469894
O19   O     O_2   0.628318 0.700402 0.345223 -0.625876
O20   O     O_3   0.048630 0.737951 0.653999 -0.598581
O21   O     O_3   0.415207 0.791697 0.302981 -0.483959
O22   O     O_2   0.172060 0.457600 0.329040 -0.404191
O23   O     O_3   0.964390 0.622060 0.377370 -0.457844
O24   O     O_2   0.055425 0.557645 0.253928 -0.448585
P1    P     P_3+3 0.990700 0.707490 0.561920 0.983090
P2    P     P_3+3 0.340130 0.430100 0.338870 1.031859
P3    P     P_3+3 0.937323 0.617709 0.284004 1.042038
P4    P     P_3+3 0.819590 0.292500 0.438020 0.964648
P5    P     P_3+3 0.860431 0.384136 0.715305 1.120554
P6    P     P_3+3 0.508659 0.756106 0.379919 1.060050
P7    P     P_3+3 0.468074 0.579496 0.671971 0.994034
P8    P     P_3+3 0.383523 0.218078 0.595739 1.010513
H34   H     H_    0.306999 0.664805 0.257268 0.054777
H35   H     H_    0.537302 0.137625 0.325520 -0.010227
S1    S     S_3+6 0.460345 0.127699 0.202049 0.028505
O25   O     O_2   0.543114 0.141363 0.134406 -0.154130
O26   O     O_2   0.394544 0.028916 0.200497 -0.191617
O27   O     O_3   0.300028 0.185081 0.204320 -0.535591
H36   H     H_    0.241847 0.171431 0.155114 0.392356
H37   H     H_    0.095647 0.655344 0.726736 0.036755
S2    S     S_3+6 0.023658 0.836599 0.789570 0.079364
O28   O     O_2   0.008280 0.895683 0.731186 -0.265742
O29   O     O_2   0.959377 0.878173 0.854855 -0.169086
O30   O     O_3   0.222631 0.827404 0.808267 -0.423018
H38   H     H_    0.234949 0.817657 0.859431 0.383091
S3    S     S_3+6 0.884494 0.666919 0.836226 -0.102958
O31   O     O_2   0.798599 0.573016 0.813257 -0.365860
O32   O     O_2   0.050522 0.664863 0.874540 -0.345740
O33   O     O_3   0.770644 0.717711 0.892213 -0.472157
H39   H     H_    0.769425 0.683566 0.934159 0.357495
H40   H     H_    0.330580 0.270731 0.417066 0.043603
H41   H     H_    0.264716 0.699062 0.138022 0.053907
H42   H     H_    0.242086 0.138482 0.328878 0.187651
H43   H     H_    0.508235 0.702109 0.232477 -0.019292
H44   H     H_    0.465049 0.704707 0.575495 0.076314
H45   H     H_    0.660384 0.859674 0.680646 0.149269
S4    S     S_3+6 0.840017 0.949824 0.244741 -0.052657
O34   O     O_2   0.881463 0.018607 0.194427 -0.191952
O35   O     O_2   0.661535 0.909043 0.229707 -0.241965
O36   O     O_3   0.876589 0.000371 0.328786 -0.566275
H46   H     H_    0.942845 0.962947 0.354996 0.301797
H47   H     H_    0.902966 0.077319 0.654594 0.060690
H48   H     H_    0.260125 0.136070 0.708091 -0.040083
S5    S     S_3+6 0.302907 0.282714 0.770748 -0.126743
O37   O     O_2   0.162230 0.258549 0.814381 -0.301997
O38   O     O_2   0.440972 0.342950 0.817501 -0.310763
O39   O     O_3   0.242573 0.335050 0.703166 -0.629883
H49   H     H_    0.344041 0.375634 0.696543 0.352983
H50   H     H_    0.894753 0.800568 0.324390 0.055894
S6    S     S_3+6 0.361132 0.039720 0.809860 0.007257
O40   O     O_2   0.448758 0.009449 0.873630 -0.208039
O41   O     O_2   0.186693 0.045168 0.824074 -0.172511
O42   O     O_3   0.364435 0.967624 0.737155 -0.505129
H51   H     H_    0.469474 0.944665 0.745681 0.348554
S7    S     S_3+6 0.407887 0.965060 0.411061 -0.117416
O43   O     O_2   0.383319 0.953568 0.331034 -0.229403
O44   O     O_2   0.320337 0.884863 0.440739 -0.375010
O45   O     O_3   0.322792 0.053467 0.438687 -0.571998
H52   H     H_    0.204086 0.033115 0.424099 0.344496
H53   H     H_    0.271707 0.458922 0.187828 0.125835
H54   H     H_    0.202459 0.381469 0.944859 0.140234
H55   H     H_    0.092591 0.894735 0.256147 0.123698
S8    S     S_3+6 0.742997 0.311208 0.221342 -0.003562
O46   O     O_2   0.855550 0.397872 0.244630 -0.295134
O47   O     O_2   0.837397 0.249373 0.180752 -0.190804
O48   O     O_3   0.584997 0.331541 0.167164 -0.471152
H56   H     H_    0.488885 0.324714 0.195778 0.324851

loop_
_geom_bond_atom_site_label_1
_geom_bond_atom_site_label_2
_ccdc_geom_bond_type
C19   C24   A    
C40   H28   S    
S2    O28   D    
S6    O41   D    
C32   P3    S    
Ba1   Ba2   S    
C17   C18   A    
O15   P7    S    
C22   C25   A    
O20   P1    S    
S3    O33   S    
C26   H22   S    
C15   P1    S    
O36   H46   S    
O9    P5    S    
O27   H36   S    
C43   C44   A    
C23   H55   S    
C6    H14   S    
C5    O11   S    
C7    S5    S    
C35   C36   A    
C4    H9    S    
O1    P1    D    
C22   C24   A    
C27   H31   S    
S5    O38   D    
C41   P5    S    
C3    C4    S    
Ba2   P4    S    
O2    P2    S    
C17   P4    S    
O10   P5    D    
C13   C14   A    
C34   S8    S    
C34   C45   S    
C49   H4    S    
C40   C44   A    
O5    P4    S    
Ba2   O5    S    
S8    O48   S    
C10   C14   A    
Ba2   O12   S    
C7    O17   S    
C23   H32   S    
C50   H42   S    
C21   C22   A    
O6    P8    S    
C48   S2    S    
C7    C8    S    
Ba1   O18   S    
S1    O27   S    
C45   H1    S    
C34   O7    S    
C45   H35   S    
C12   H50   S    
S6    O42   S    
S4    O36   S    
O11   P5    S    
C14   H19   S    
C20   H20   S    
S1    O26   D    
C15   C16   A    
C36   C37   A    
O4    P4    D    
C49   C50   S    
S7    O45   S    
C29   H53   S    
C5    C6    S    
C50   H5    S    
O24   P3    D    
C49   O2    S    
O14   P7    D    
C47   O20   S    
S2    O30   S    
C2    O21   S    
C27   C32   A    
C33   H25   S    
C1    C2    S    
O23   P3    S    
O8    P7    S    
S7    O44   D    
C8    S6    S    
Ba2   O4    S    
O18   P6    S    
C27   C28   A    
Ba1   P1    S    
C5    H13   S    
O19   P6    D    
C49   H40   S    
C29   C30   A    
C3    O15   S    
Ba2   O9    S    
C30   C39   S    
C41   C46   A    
C21   S7    S    
C31   C32   A    
C38   H27   S    
O39   H49   S    
C4    H45   S    
C17   C26   A    
O48   H56   S    
Ba2   O13   S    
O17   P8    S    
C50   H6    S    
Ba1   O22   S    
C1    H41   S    
C38   C39   A    
C35   H24   S    
C18   C20   A    
Ba2   O14   S    
C16   H21   S    
C8    H16   S    
C11   C13   A    
O42   H51   S    
S4    O35   D    
C11   C24   A    
S5    O39   S    
C6    H47   S    
C40   C41   A    
Ba1   O12   S    
S3    O31   D    
C9    P8    S    
Ba1   O5    S    
C37   C38   A    
C42   C43   A    
C3    H44   S    
O30   H38   S    
O7    P4    S    
Ba1   O1    S    
C13   H18   S    
S8    O46   D    
S2    O29   D    
O13   P2    S    
C3    H8    S    
C33   C35   A    
C20   C21   A    
O22   P2    D    
Ba2   O8    S    
C16   C25   A    
S3    O32   D    
Ba1   O13   S    
C9    C10   A    
O33   H39   S    
C1    H11   S    
C34   H33   S    
C47   H37   S    
C28   P2    S    
C7    H48   S    
C48   H3    S    
C11   C15   A    
O21   P6    S    
C43   H23   S    
O16   P8    D    
C30   C31   A    
C4    H10   S    
C37   H54   S    
C12   O3    S    
S5    O37   D    
S7    O43   D    
C2    H43   S    
O12   P1    S    
C23   S4    S    
C28   C29   A    
C9    C26   A    
C10   C19   A    
S8    O47   D    
C46   H30   S    
C12   H26   S    
C12   C23   S    
Ba2   O6    S    
C33   C39   A    
C5    H12   S    
C36   C44   S    
O45   H52   S    
C48   S3    S    
Ba1   O23   S    
O3    P3    S    
C8    H17   S    
C42   C46   A    
C18   C19   A    
C42   P7    S    
C6    H15   S    
Ba1   O8    S    
C47   C48   S    
S6    O40   D    
S4    O34   D    
C45   S1    S    
S1    O25   D    
C31   H29   S    
Ba1   P2    S    
C47   H2    S    
C25   P6    S    
C2    H34   S    
C1    H7    S    
