data_mof_unit_55087.cif
_audit_creation_date              2013-03-05T15:56:55-0500
_audit_creation_method            fapswitch 2.2
_symmetry_space_group_name_H-M    P1
_symmetry_Int_Tables_number       1
_space_group_crystal_system       triclinic
_cell_length_a                    6.936712
_cell_length_b                    14.539007
_cell_length_c                    16.087861
_cell_angle_alpha                 90.005591
_cell_angle_beta                  89.878939
_cell_angle_gamma                 89.967314
_cell_volume                      1622.50361253

loop_
_atom_site_label
_atom_site_type_symbol
_atom_site_description
_atom_site_fract_x
_atom_site_fract_y
_atom_site_fract_z
_atom_type_partial_charge
O1    O     O_R   0.505680 0.583900 0.413320 -0.598342
O2    O     O_R   0.176010 0.594950 0.586080 -0.554844
O3    O     O_R   0.005680 0.416100 0.586680 -0.593962
C1    C     C_R   0.344400 0.617998 0.614454 0.969743
O4    O     O_R   0.175960 0.594930 0.413930 -0.597117
O5    O     O_R   0.005640 0.416080 0.413300 -0.604301
C2    C     C_R   0.345096 0.617217 0.385047 0.927873
O6    O     O_R   0.505720 0.583920 0.586700 -0.572694
O7    O     O_3   0.339190 0.441320 0.500000 -0.291304
V1    V     V_3+5 0.064350 0.510890 0.500000 1.210220
O8    O     O_R   0.675920 0.405050 0.413920 -0.605434
C3    C     C_R   0.845079 0.382827 0.384971 0.907607
O9    O     O_R   0.675960 0.405070 0.586070 -0.603699
C4    C     C_R   0.844667 0.383032 0.614875 0.954739
V2    V     V_3+5 0.564340 0.489110 0.500000 1.179267
O10   O     O_3   0.839370 0.558680 0.500000 -0.235386
C5    C     C_R   0.999312 0.321192 0.744829 0.160356
C6    C     C_R   0.852119 0.317531 0.685410 -0.212492
C7    C     C_R   0.704573 0.252388 0.698368 -0.170188
H1    H     H_    0.585222 0.247958 0.655410 0.128747
C8    C     C_R   0.716475 0.187873 0.763669 -0.056545
H2    H     H_    0.605746 0.135781 0.768889 0.120772
C9    C     C_R   0.875355 0.187086 0.818394 -0.256777
C10   C     C_R   0.009712 0.258332 0.809983 0.111515
C11   C     C_3   0.224728 0.256444 0.806422 0.190211
C12   C     C_3   0.213044 0.325081 0.734770 -0.595313
H3    H     H_    0.283722 0.188047 0.788821 0.060963
H4    H     H_    0.260373 0.295826 0.674286 0.180773
H5    H     H_    0.271986 0.394408 0.748964 0.225881
C13   C     C_R   0.046751 0.224741 0.217259 -0.116065
H6    H     H_    0.187429 0.206205 0.193236 0.127206
C14   C     C_R   0.035748 0.288283 0.282521 -0.130350
H7    H     H_    0.168457 0.316896 0.306591 0.124026
C15   C     C_R   0.856280 0.314548 0.316073 -0.121857
C16   C     C_R   0.688112 0.275564 0.282424 -0.135837
H8    H     H_    0.547431 0.294119 0.306428 0.121153
C17   C     C_R   0.699113 0.212020 0.217163 -0.108416
H9    H     H_    0.566402 0.183427 0.193073 0.127211
C18   C     C_R   0.878593 0.185686 0.183671 -0.127956
C19   C     C_R   0.209364 0.755447 0.694115 0.391811
C20   C     C_R   0.223318 0.818255 0.760130 -0.232773
H10   H     H_    0.112287 0.870162 0.767274 0.151335
C21   C     C_R   0.379301 0.815792 0.815562 -0.182514
C22   C     C_R   0.523291 0.749203 0.803700 -0.108479
H11   H     H_    0.645267 0.745528 0.845488 0.133013
C23   C     C_R   0.509182 0.685150 0.738904 -0.053542
H12   H     H_    0.620283 0.633197 0.732956 0.159484
C24   C     C_R   0.353001 0.686980 0.683118 -0.317908
C25   C     C_R   0.188222 0.724745 0.282670 -0.117186
H13   H     H_    0.047530 0.706307 0.306687 0.124631
C26   C     C_R   0.199303 0.788286 0.217429 -0.129482
H14   H     H_    0.066610 0.816994 0.193371 0.123695
C27   C     C_R   0.378810 0.814440 0.183892 -0.122426
C28   C     C_R   0.546933 0.775322 0.217511 -0.134314
H15   H     H_    0.687623 0.793775 0.193503 0.121395
C29   C     C_R   0.535851 0.711776 0.282751 -0.116148
H16   H     H_    0.668540 0.683071 0.306820 0.125970
C30   C     C_R   0.356335 0.685588 0.316256 -0.124267
O11   O     O_R   0.229200 0.915950 0.913350 -0.599574
O12   O     O_R   0.559090 0.905000 0.086080 -0.605247
O13   O     O_R   0.729280 0.083880 0.086680 -0.592175
C31   C     C_R   0.389991 0.882738 0.115033 0.911859
O14   O     O_R   0.558920 0.904980 0.913920 -0.602969
O15   O     O_R   0.729110 0.083860 0.913300 -0.566391
C32   C     C_R   0.390188 0.883032 0.884934 0.945889
O16   O     O_R   0.229360 0.915970 0.086730 -0.602427
O17   O     O_3   0.395680 0.058580 0.000030 -0.237707
V3    V     V_3+5 0.670570 0.989070 0.999990 1.185584
O18   O     O_R   0.058820 0.094950 0.913870 -0.598387
C33   C     C_R   0.889734 0.117003 0.885083 0.972684
O19   O     O_R   0.058990 0.094970 0.086020 -0.595505
C34   C     C_R   0.889819 0.117263 0.114903 0.937239
V4    V     V_3+5 0.170560 0.010930 0.999930 1.192390
O20   O     O_3   0.895590 0.941310 0.999960 -0.285573
N1    N     N_R   0.052880 0.765281 0.637007 0.227759
O21   O     O_R   0.038851 0.840023 0.592995 -0.408339
O22   O     O_R   0.904031 0.711438 0.643368 -0.402079
N2    N     N_R   0.311646 0.295281 0.881454 0.260213
O23   O     O_R   0.250764 0.372877 0.912303 -0.388465
O24   O     O_R   0.447915 0.250618 0.919421 -0.380455

loop_
_geom_bond_atom_site_label_1
_geom_bond_atom_site_label_2
_geom_bond_distance
_ccdc_geom_bond_type
O14   C32   1.300736 A    
V4    O20   2.159835 S    
C4    C6    1.482445 S    
C7    H1    1.081517 S    
C1    O6    1.301648 A    
C27   C28   1.406422 A    
C5    C12   1.492165 S    
O15   V3    2.001970 S    
C7    C8    1.410943 A    
C6    C7    1.410050 A    
O5    C3    1.297934 A    
C13   H6    1.082750 S    
N2    O24   1.300032 A    
V3    O20   1.708020 S    
V2    O10   2.159861 S    
C29   H16   1.082765 S    
O12   C31   1.302222 A    
C15   C16   1.406576 A    
C20   H10   1.083910 S    
C28   H15   1.082739 S    
O8    V2    2.001143 S    
C16   H8    1.082735 S    
C25   C26   1.400319 A    
C18   C34   1.489644 S    
O18   V4    2.003422 S    
O17   V4    1.708734 S    
O15   C33   1.295464 A    
O7    V1    2.157679 S    
O11   V4    2.002276 S    
C2    C30   1.489606 S    
O9    C4    1.299557 A    
C20   C21   1.404040 A    
C9    C33   1.483178 S    
C22   C23   1.401370 A    
C23   C24   1.408527 A    
C28   C29   1.400371 A    
C5    C10   1.392703 A    
C31   O16   1.297656 A    
C26   H14   1.082757 S    
C10   C11   1.492715 S    
O19   V4    2.001050 S    
N2    O23   1.302272 A    
C11   C12   1.526983 S    
O16   V4    2.006149 S    
C11   N2    1.463828 S    
C25   C30   1.406393 A    
O17   V3    2.157576 S    
C26   C27   1.408519 A    
C14   C15   1.408398 A    
O2    C1    1.299127 A    
N1    O21   1.300762 A    
C17   H9    1.082770 S    
C27   C31   1.489694 S    
C21   C32   1.485679 S    
C5    C6    1.401182 A    
N1    O22   1.299960 A    
O3    C4    1.297259 A    
O1    V2    2.002906 S    
O13   C34   1.297905 A    
C19   C20   1.404114 A    
O6    V2    2.001888 S    
C8    C9    1.412089 A    
C21   C22   1.403346 A    
C3    C15   1.489776 S    
O2    V1    2.004158 S    
C22   H11   1.083098 S    
O4    C2    1.302147 A    
C1    C24   1.493266 S    
C19   C24   1.418819 A    
C23   H12   1.082889 S    
C16   C17   1.400383 A    
O1    C2    1.297664 A    
O5    V1    2.003534 S    
O8    C3    1.302080 A    
C11   H3    1.111538 S    
O14   V3    2.004287 S    
C12   H4    1.110832 S    
C19   N1    1.430688 S    
C14   H7    1.082758 S    
O9    V2    2.003389 S    
O7    V2    1.709747 S    
O4    V1    2.001639 S    
C17   C18   1.408368 A    
O3    V1    2.002041 S    
V1    O10   1.707945 S    
O11   C32   1.297039 A    
C13   C14   1.400381 A    
O13   V3    2.003421 S    
C29   C30   1.408506 A    
C13   C18   1.406549 A    
O18   C33   1.301873 A    
C9    C10   1.400176 A    
O19   C34   1.302029 A    
O12   V3    2.001781 S    
C12   H5    1.111806 S    
C25   H13   1.082748 S    
C8    H2    1.082143 S    
