data_mof_unit_67922.cif
_audit_creation_date              2012-12-10T18:59:58-0500
_audit_creation_method            fapswitch 2.2
_symmetry_space_group_name_H-M    P1
_symmetry_Int_Tables_number       1
_space_group_crystal_system       triclinic
_cell_length_a                    10.777169
_cell_length_b                    10.582631
_cell_length_c                    9.854153
_cell_angle_alpha                 90.074714
_cell_angle_beta                  91.098961
_cell_angle_gamma                 89.203591
_cell_volume                      1123.55818034

loop_
_atom_site_label
_atom_site_type_symbol
_atom_type_description
_atom_site_fract_x
_atom_site_fract_y
_atom_site_fract_z
_atom_type_partial_charge
C1    C     C_R   0.504571 0.260401 0.499997 0.972854
C2    C     C_R   0.495068 0.739593 0.500099 0.972165
C3    C     C_R   0.872591 0.503894 0.504016 -0.101416
C4    C     C_R   0.127471 0.494468 0.495818 -0.134038
C5    C     C_R   0.942048 0.519165 0.625310 0.116255
C6    C     C_R   0.058041 0.479045 0.374450 0.101648
C7    C     C_R   0.613717 0.059026 0.473731 0.387242
C8    C     C_R   0.386472 0.940977 0.529597 0.463656
C9    C     C_R   0.607094 0.929242 0.473132 -0.244870
C10   C     C_R   0.392796 0.070798 0.528410 -0.240622
C11   C     C_R   0.494866 0.871962 0.500586 -0.189880
C12   C     C_R   0.504841 0.128038 0.500242 -0.192070
C13   C     C_R   0.467215 0.606273 0.071283 -0.034138
C14   C     C_R   0.532766 0.393734 0.928713 -0.040305
C15   C     C_R   0.467292 0.606260 0.927629 0.028655
C16   C     C_R   0.532542 0.393719 0.072346 0.023144
C17   C     C_R   0.260023 0.496721 0.498374 0.939893
C18   C     C_R   0.740006 0.502840 0.501580 0.941405
C19   C     C_R   0.163194 0.537380 0.016961 0.494952
C20   C     C_R   0.836513 0.460080 0.982241 0.477977
C21   C     C_R   0.114505 0.557616 0.145444 0.593593
C22   C     C_R   0.884371 0.439920 0.853379 0.610826
C23   C     C_R   0.111943 0.458150 0.239363 -0.143244
C24   C     C_R   0.888262 0.539979 0.760389 -0.153366
C25   C     C_R   0.156662 0.337957 0.202750 -0.205668
C26   C     C_R   0.845117 0.660506 0.797943 -0.220729
C27   C     C_R   0.204464 0.317298 0.073223 0.402308
C28   C     C_R   0.797580 0.680911 0.927640 0.420767
C29   C     C_R   0.207547 0.417467 0.980456 -0.440717
C30   C     C_R   0.793543 0.580252 0.019692 -0.434051
C31   C     C_R   0.931180 0.484671 0.380493 -0.102318
C32   C     C_R   0.068850 0.513305 0.619331 -0.123398
H1    H     H_    0.244910 0.403119 0.880478 0.216830
H2    H     H_    0.756504 0.594446 0.119840 0.216510
H3    H     H_    0.440572 0.691290 0.873274 0.224274
H4    H     H_    0.558852 0.308608 0.126651 0.203649
H5    H     H_    0.153845 0.260779 0.274757 0.212544
H6    H     H_    0.848865 0.738082 0.726519 0.208731
H7    H     H_    0.878279 0.472043 0.287398 0.227197
H8    H     H_    0.121703 0.525696 0.712475 0.226376
H9    H     H_    0.689059 0.872081 0.453184 0.174363
H10   H     H_    0.310876 0.128077 0.548169 0.178302
H11   H     H_    0.440288 0.691285 0.124747 0.213099
H12   H     H_    0.559671 0.308711 0.875258 0.209399
N1    N     N_R   0.499970 0.499970 0.857200 -0.141943
N2    N     N_R   0.500030 0.500030 0.142800 -0.138602
O1    O     O_R   0.499990 0.316750 0.614620 -0.610379
O2    O     O_R   0.500010 0.683250 0.385380 -0.608006
O3    O     O_R   0.499990 0.316780 0.385290 -0.604378
O4    O     O_R   0.500010 0.683220 0.614710 -0.602284
O5    O     O_R   0.316760 0.500000 0.614660 -0.610154
O6    O     O_R   0.683240 0.500000 0.385340 -0.608515
O7    O     O_R   0.316760 0.500020 0.385330 -0.618646
O8    O     O_R   0.683240 0.499980 0.614670 -0.623368
Zn1   Zn    Zn3+2 0.500000 0.499980 0.653120 1.018282
Zn2   Zn    Zn3+2 0.500000 0.500020 0.346880 1.015279
F1    F     F_    0.168156 0.634829 0.928231 -0.598118
F2    F     F_    0.831089 0.362347 0.070450 -0.616565
F3    F     F_    0.069701 0.673934 0.178395 -0.599554
F4    F     F_    0.926910 0.323074 0.818958 -0.571224
S1    S     S_3+6 0.259901 0.165874 0.028582 0.109833
O9    O     O_2   0.359885 0.125664 0.128449 -0.265274
O10   O     O_2   0.155485 0.073484 0.034905 -0.141775
O11   O     O_3   0.318239 0.165528 0.871406 -0.529320
H13   H     H_    0.244878 0.169262 0.809336 0.381478
S2    S     S_3+6 0.743623 0.832581 0.973417 0.096197
O12   O     O_2   0.848658 0.924204 0.966608 -0.154716
O13   O     O_2   0.643236 0.873893 0.874552 -0.256112
O14   O     O_3   0.686375 0.832780 0.131097 -0.546975
H14   H     H_    0.760140 0.828775 0.192577 0.372858
S3    S     S_3+6 0.758266 0.131738 0.446838 0.081611
O15   O     O_2   0.789806 0.213345 0.567103 -0.225711
O16   O     O_2   0.859811 0.034487 0.429592 -0.234627
O17   O     O_3   0.748463 0.222576 0.307325 -0.502756
H15   H     H_    0.729624 0.163139 0.232216 0.396013
S4    S     S_3+6 0.242643 0.868501 0.561186 0.074817
O18   O     O_2   0.256668 0.779741 0.679488 -0.247378
O19   O     O_2   0.144902 0.966607 0.592199 -0.228987
O20   O     O_3   0.198777 0.786819 0.422468 -0.521705
H16   H     H_    0.110202 0.767731 0.436348 0.402918

loop_
_geom_bond_atom_site_label_1
_geom_bond_atom_site_label_2
_ccdc_geom_bond_type
S2    O13   D    
C10   H10   S    
S4    O20   S    
C17   O5    A    
C18   O6    A    
C20   C30   A    
C19   F1    S    
O1    Zn1   S    
C19   C21   A    
S4    O19   D    
C21   F3    S    
C7    S3    S    
C13   N2    A    
S2    O14   S    
C27   C29   A    
C29   H1    S    
C8    S4    S    
C3    C18   S    
O2    Zn2   S    
S1    O10   D    
C2    O4    A    
C25   H5    S    
C27   S1    S    
O5    Zn1   S    
C5    C32   A    
C32   H8    S    
C6    C31   A    
S1    O9    D    
C1    C12   S    
C2    C11   S    
C15   H3    S    
C14   N1    A    
C21   C23   A    
C7    C12   A    
O17   H15   S    
C30   H2    S    
S4    O18   D    
C4    C6    A    
C16   N2    A    
S3    O16   D    
C1    O1    A    
C2    O2    A    
S1    O11   S    
C28   S2    S    
C3    C31   A    
C9    C11   A    
C4    C32   A    
C10   C12   A    
C4    C17   S    
C20   C22   A    
C13   C15   A    
C22   C24   A    
C15   N1    A    
C20   F2    S    
C19   C29   A    
C17   O7    A    
C13   H11   S    
C14   H12   S    
O7    Zn2   S    
C7    C9    A    
O8    Zn1   S    
C26   C28   A    
C26   H6    S    
C24   C26   A    
C3    C5    A    
S3    O17   S    
C25   C27   A    
O3    Zn2   S    
C9    H9    S    
O4    Zn1   S    
O11   H13   S    
C28   C30   A    
S3    O15   D    
C16   H4    S    
C22   F4    S    
C5    C24   S    
C8    C11   A    
C6    C23   S    
C31   H7    S    
S2    O12   D    
C14   C16   A    
C23   C25   A    
O14   H14   S    
C18   O8    A    
O20   H16   S    
N1    Zn1   S    
C8    C10   A    
N2    Zn2   S    
C1    O3    A    
O6    Zn2   S    
