data_mof_unit_54049.cif
_audit_creation_date              2012-12-10T17:10:23-0500
_audit_creation_method            fapswitch 2.2
_symmetry_space_group_name_H-M    P1
_symmetry_Int_Tables_number       1
_space_group_crystal_system       triclinic
_cell_length_a                    15.710722
_cell_length_b                    10.734371
_cell_length_c                    10.08512
_cell_angle_alpha                 90.47273
_cell_angle_beta                  92.3026
_cell_angle_gamma                 90.320481
_cell_volume                      1699.34122959

loop_
_atom_site_label
_atom_site_type_symbol
_atom_type_description
_atom_site_fract_x
_atom_site_fract_y
_atom_site_fract_z
_atom_type_partial_charge
C1    C     C_R   0.496430 0.263077 0.499276 0.950428
C2    C     C_2   0.516390 0.868757 0.496630 -0.118885
C3    C     C_2   0.499956 0.066355 0.390260 -0.245998
C4    C     C_R   0.338045 0.499937 0.497415 0.881811
C5    C     C_2   0.481421 0.132624 0.496750 -0.302098
C6    C     C_2   0.554070 0.561602 0.931705 0.222532
C7    C     C_2   0.539405 0.580851 0.075940 -0.101812
C8    C     C_R   0.501615 0.737471 0.499988 0.941627
C9    C     C_R   0.661901 0.499931 0.502589 0.899810
C10   C     C_3   0.974322 0.389665 0.550057 -0.434862
C11   C     C_3   0.021426 0.407529 0.419653 0.415294
C12   C     C_3   0.082680 0.501126 0.489636 -0.091219
C13   C     C_1   0.249006 0.500031 0.491120 -0.143718
C14   C     C_1   0.750852 0.499935 0.508884 -0.108147
C15   C     C_3   0.035088 0.486764 0.618148 0.414924
C16   C     C_3   0.990513 0.218959 0.316931 0.135087
C17   C     C_3   0.017704 0.129793 0.208746 -0.769098
C18   C     C_3   0.086990 0.712235 0.274837 0.116200
C19   C     C_3   0.165683 0.794424 0.267463 -0.768023
C20   C     C_3   0.029010 0.429448 0.837928 0.130440
C21   C     C_3   0.077251 0.436569 0.971640 -0.745408
C22   C     C_3   0.442627 0.914081 0.170149 0.127986
C23   C     C_3   0.977010 0.596229 0.577771 0.113539
C24   C     C_3   0.387981 0.835578 0.073250 -0.786986
C25   C     C_3   0.916883 0.500458 0.506957 -0.091417
C26   C     C_3   0.024275 0.608418 0.447596 0.374100
C27   C     C_3   0.962642 0.515697 0.375198 0.005934
C28   C     C_1   0.173622 0.500328 0.487761 0.108223
C29   C     C_1   0.826185 0.500054 0.511418 0.099483
C30   C     C_2   0.484636 0.933638 0.391965 0.430058
H1    H     H_    0.455104 0.089567 0.583539 0.173096
H2    H     H_    0.018609 0.178436 0.112140 0.247564
H3    H     H_    0.038686 0.744310 0.199441 0.191658
H4    H     H_    0.105694 0.615327 0.248297 0.139590
H5    H     H_    0.216489 0.761060 0.338052 0.264708
H6    H     H_    0.189298 0.790670 0.165342 0.206945
H7    H     H_    0.149998 0.892279 0.292534 0.261640
H8    H     H_    0.013169 0.330021 0.816296 0.146875
H9    H     H_    0.969188 0.483953 0.844591 0.179718
H10   H     H_    0.091718 0.535273 0.998205 0.252933
H11   H     H_    0.038210 0.395366 0.049391 0.240203
H12   H     H_    0.441582 0.485322 0.888396 0.184882
H13   H     H_    0.137817 0.384056 0.967552 0.261329
H14   H     H_    0.510820 0.898626 0.148493 0.142767
H15   H     H_    0.425827 0.013370 0.153264 0.171922
H16   H     H_    0.320053 0.861202 0.080669 0.248352
H17   H     H_    0.407363 0.852562 0.970220 0.221253
H18   H     H_    0.395389 0.735118 0.095735 0.260163
H19   H     H_    0.566763 0.663249 0.124269 0.156836
H20   H     H_    0.950823 0.301478 0.592550 0.169398
H21   H     H_    0.525068 0.108721 0.302474 0.182057
H22   H     H_    0.926719 0.256692 0.287081 0.166850
H23   H     H_    0.985875 0.165195 0.410222 0.163027
H24   H     H_    0.082336 0.093464 0.233726 0.258068
H25   H     H_    0.972230 0.050316 0.199557 0.226693
I1    I     I_    0.665760 0.647542 0.865783 -0.211316
I2    I     I_    0.480232 0.316716 0.082778 -0.312048
I3    I     I_    0.895240 0.537974 0.187697 -0.373167
I4    I     I_    0.938963 0.746906 0.701648 -0.235696
I5    I     I_    0.611672 0.937027 0.637839 -0.311163
N1    N     N_2   0.500900 0.501330 0.852150 -0.197897
N2    N     N_2   0.500930 0.501360 0.147810 -0.048291
O1    O     O_R   0.499990 0.319060 0.613040 -0.599965
O2    O     O_3   0.053253 0.724585 0.402102 -0.571418
O3    O     O_3   0.081499 0.477354 0.740339 -0.585202
O4    O     O_3   0.425894 0.878882 0.301346 -0.599846
O5    O     O_R   0.500010 0.319100 0.386900 -0.589534
O6    O     O_R   0.376760 0.499970 0.613050 -0.612631
O7    O     O_R   0.376790 0.500010 0.386910 -0.597863
O8    O     O_R   0.499990 0.680900 0.613100 -0.598376
O9    O     O_R   0.500010 0.680940 0.386960 -0.592884
O10   O     O_R   0.623210 0.499990 0.613090 -0.582212
O11   O     O_R   0.623240 0.500030 0.386950 -0.598226
O12   O     O_3   0.051908 0.314660 0.334059 -0.598126
Zn1   Zn    Zn3+2 0.499980 0.499970 0.650990 1.014291
Zn2   Zn    Zn3+2 0.500020 0.500030 0.349010 1.023235

loop_
_geom_bond_atom_site_label_1
_geom_bond_atom_site_label_2
_ccdc_geom_bond_type
C9    O10   A    
I2    N2    S    
N1    Zn1   S    
O6    Zn1   S    
C23   I4    S    
C26   C27   S    
C12   C28   S    
C16   O12   S    
C6    N1    D    
C19   H6    S    
O9    Zn2   S    
C2    I5    S    
C15   O3    S    
O7    Zn2   S    
C18   C19   S    
C23   C26   S    
C4    C13   S    
C26   O2    S    
C16   H23   S    
C22   O4    S    
C19   H7    S    
C21   H13   S    
C22   H14   S    
C16   C17   S    
C13   C28   T    
C17   H25   S    
C15   C23   S    
N2    Zn2   S    
C9    O11   A    
O10   Zn1   S    
C1    O1    A    
C4    O7    A    
C25   C29   S    
C24   H18   S    
C20   O3    S    
C7    H19   S    
C4    O6    A    
C20   H9    S    
C3    H21   S    
C27   I3    S    
C12   C26   S    
C3    C30   S    
C9    C14   S    
C7    N2    D    
C20   H8    S    
C12   C15   S    
C11   C27   S    
C18   H4    S    
H12   N1    S    
C30   O4    S    
C21   H11   S    
C10   C25   S    
O11   Zn2   S    
C22   C24   S    
C14   C29   T    
C10   H20   S    
C1    C5    S    
C8    O9    A    
C24   H17   S    
C2    C8    S    
C16   H22   S    
C6    I1    S    
C3    C5    D    
C11   O12   S    
C11   C12   S    
C6    C7    S    
C25   C27   S    
C8    O8    A    
C2    C30   D    
C10   C15   S    
C24   H16   S    
C19   H5    S    
C18   O2    S    
C21   H10   S    
O1    Zn1   S    
C1    O5    A    
C23   C25   S    
C18   H3    S    
C10   C11   S    
C22   H15   S    
C20   C21   S    
O8    Zn1   S    
C17   H2    S    
O5    Zn2   S    
C17   H24   S    
C5    H1    S    
