data_mof_unit_28927.cif
_audit_creation_date              2012-12-10T17:18:54-0500
_audit_creation_method            fapswitch 2.2
_symmetry_space_group_name_H-M    P1
_symmetry_Int_Tables_number       1
_space_group_crystal_system       triclinic
_cell_length_a                    9.632478
_cell_length_b                    10.823061
_cell_length_c                    13.406606
_cell_angle_alpha                 92.296644
_cell_angle_beta                  72.924843
_cell_angle_gamma                 88.920532
_cell_volume                      1334.3097487

loop_
_atom_site_label
_atom_site_type_symbol
_atom_type_description
_atom_site_fract_x
_atom_site_fract_y
_atom_site_fract_z
_atom_type_partial_charge
C1    C     C_R   0.496036 0.737222 0.505821 0.824990
C2    C     C_R   0.434674 0.459349 0.977737 0.018928
C3    C     C_R   0.475161 0.440625 0.867780 0.087139
C4    C     C_R   0.541664 0.445430 0.030197 0.099408
C5    C     C_R   0.680427 0.393265 0.975534 0.142253
C6    C     C_R   0.711222 0.356612 0.870200 -0.252293
C7    C     C_R   0.610332 0.380045 0.816833 -0.180640
C8    C     C_R   0.516157 0.487221 0.134577 -0.259767
C9    C     C_R   0.756289 0.415874 0.132298 -0.142146
C10   C     C_R   0.377125 0.480277 0.813343 -0.174697
C11   C     C_R   0.273228 0.884366 0.668299 -0.172169
C12   C     C_R   0.422724 0.492315 0.699349 0.784188
C13   C     C_R   0.173345 0.955604 0.746967 -0.151700
C14   C     C_R   0.178897 0.084020 0.749099 -0.141710
C15   C     C_R   0.282426 0.142329 0.671367 -0.151969
C16   C     C_R   0.384985 0.072300 0.590698 0.030993
C17   C     C_R   0.380960 0.941210 0.589822 0.102208
C18   C     C_R   0.490090 0.871320 0.513513 -0.170311
C19   C     C_R   0.606483 0.929427 0.447983 -0.311837
C20   C     C_R   0.619128 0.056191 0.455687 0.454592
C21   C     C_R   0.499473 0.129041 0.516426 -0.208894
C22   C     C_R   0.920408 0.349215 0.351278 -0.137062
C23   C     C_R   0.499588 0.262795 0.505066 0.807505
C24   C     C_R   0.025124 0.282040 0.273421 -0.222792
C25   C     C_R   0.167510 0.278784 0.275070 -0.245051
C26   C     C_R   0.206263 0.345075 0.353018 -0.148022
C27   C     C_R   0.105868 0.424863 0.427288 0.217501
C28   C     C_R   0.956905 0.426016 0.426753 0.170521
C29   C     C_R   0.896326 0.571318 0.569413 -0.066050
C30   C     C_R   0.044072 0.571531 0.569222 -0.066324
C31   C     C_R   0.577902 0.494942 0.300074 0.788030
C32   C     C_R   0.786280 0.377967 0.027245 -0.141956
C33   C     C_R   0.620745 0.470328 0.186529 -0.077965
C34   C     C_R   0.234033 0.516674 0.869784 -0.283606
C35   C     C_R   0.188825 0.519327 0.978261 0.502367
C36   C     C_R   0.287976 0.488863 0.031803 -0.289547
Cu1   Cu    Cu3+1 0.359340 0.500010 0.500010 0.918979
Cu2   Cu    Cu3+1 0.640660 0.499990 0.499990 0.918197
H1    H     H_    0.838047 0.400488 0.171213 0.161031
H2    H     H_    0.267986 0.784935 0.672057 0.136591
H3    H     H_    0.092565 0.910888 0.807425 0.128000
H4    H     H_    0.102408 0.138855 0.811231 0.126044
H5    H     H_    0.284726 0.242040 0.677972 0.149843
H6    H     H_    0.817019 0.629961 0.626382 0.144736
H7    H     H_    0.811858 0.334166 0.351440 0.231083
H8    H     H_    0.993805 0.225929 0.215360 0.164029
H9    H     H_    0.247754 0.221150 0.217670 0.161500
H10   H     H_    0.315637 0.328557 0.352080 0.204333
H11   H     H_    0.814797 0.311953 0.828307 0.138947
H12   H     H_    0.074529 0.630349 0.626005 0.127940
H13   H     H_    0.891988 0.336255 0.986537 0.147267
H14   H     H_    0.415631 0.535341 0.176824 0.154550
H15   H     H_    0.156261 0.543876 0.829850 0.168341
H16   H     H_    0.246989 0.482411 0.115216 0.152071
H17   H     H_    0.638553 0.345905 0.736407 0.169789
H18   H     H_    0.692313 0.875470 0.392943 0.165639
N1    N     N_R   0.852480 0.498790 0.499000 -0.206928
N2    N     N_R   0.148360 0.498710 0.498970 -0.197160
O1    O     O_R   0.381190 0.680360 0.500010 -0.576601
O2    O     O_R   0.618760 0.680340 0.500000 -0.574225
O3    O     O_R   0.323240 0.499990 0.650990 -0.593039
O4    O     O_R   0.560820 0.499960 0.650980 -0.587025
O5    O     O_R   0.381240 0.319660 0.500000 -0.608825
O6    O     O_R   0.618810 0.319640 0.499990 -0.580789
O7    O     O_R   0.439180 0.500040 0.349020 -0.595320
O8    O     O_R   0.676760 0.500010 0.349010 -0.598593
O9    O     O_3   0.748822 0.108918 0.403791 -0.624419
C37   C     C_3   0.860363 0.068760 0.446243 0.062242
H19   H     H_    0.966370 0.091603 0.391734 0.182712
H20   H     H_    0.866871 0.966635 0.451724 0.131212
C38   C     C_3   0.844621 0.132812 0.553522 -0.371836
H21   H     H_    0.833205 0.234257 0.549418 0.249959
H22   H     H_    0.746004 0.100655 0.611988 0.206436
C39   C     C_3   0.976225 0.105346 0.590596 -0.886196
H23   H     H_    0.989784 0.004250 0.597776 0.263373
H24   H     H_    0.959643 0.153073 0.668173 0.251515
H25   H     H_    0.076063 0.140112 0.535188 0.270963
O10   O     O_3   0.043972 0.543249 0.030776 -0.627042
C40   C     C_3   0.024342 0.661063 0.083457 0.048058
H26   H     H_    0.916207 0.697986 0.082736 0.181456
H27   H     H_    0.104415 0.729600 0.042975 0.111102
C41   C     C_3   0.026776 0.650605 0.196968 -0.352480
H28   H     H_    0.991770 0.557668 0.224482 0.249235
H29   H     H_    0.138837 0.663447 0.201716 0.191921
C42   C     C_3   0.926272 0.747000 0.270022 -0.884412
H30   H     H_    0.957895 0.841709 0.245152 0.243129
H31   H     H_    0.932454 0.737549 0.350821 0.259306
H32   H     H_    0.812905 0.731779 0.269280 0.259241

loop_
_geom_bond_atom_site_label_1
_geom_bond_atom_site_label_2
_ccdc_geom_bond_type
C19   H18   S    
C31   O8    A    
C16   C21   A    
C20   O9    S    
C35   C36   A    
C7    H17   S    
C4    C8    A    
C13   H3    S    
C28   N1    A    
C26   C27   A    
Cu1   Cu2   S    
C39   H24   S    
C18   C19   A    
C3    C7    A    
C1    O1    A    
C5    C6    A    
C15   C16   A    
C9    H1    S    
C34   C35   A    
C9    C32   A    
Cu2   O8    S    
C16   C17   A    
C39   H25   S    
Cu1   O7    S    
C31   C33   S    
C8    H14   S    
Cu1   N2    S    
C26   H10   S    
C14   H4    S    
C5    C32   A    
C23   O5    A    
C30   H12   S    
C22   C28   A    
C13   C14   A    
C9    C33   A    
Cu1   O5    S    
Cu2   O6    S    
C42   H31   S    
C39   H23   S    
O9    C37   S    
C24   C25   A    
C1    O2    A    
C40   H27   S    
O10   C40   S    
C37   H19   S    
C25   C26   A    
C42   H30   S    
C2    C4    A    
C32   H13   S    
C29   C30   A    
C40   C41   S    
Cu2   N1    S    
C12   O4    A    
C17   C18   A    
C1    C18   S    
C10   C34   A    
Cu1   O1    S    
C10   C12   S    
Cu2   O2    S    
C23   O6    A    
C29   N1    A    
C41   H29   S    
C21   C23   S    
C29   H6    S    
C22   C24   A    
C38   H22   S    
C42   H32   S    
C2    C36   A    
C31   O7    A    
C25   H9    S    
C11   C17   A    
C4    C5    A    
C27   N2    A    
C38   C39   S    
Cu1   O3    S    
C6    C7    A    
C41   C42   S    
C35   O10   S    
C24   H8    S    
C19   C20   A    
C2    C3    A    
C15   H5    S    
C38   H21   S    
C3    C10   A    
C12   O3    A    
C11   C13   A    
C37   C38   S    
C30   N2    A    
C8    C33   A    
C6    H11   S    
C11   H2    S    
C36   H16   S    
C40   H26   S    
C22   H7    S    
C20   C21   A    
C34   H15   S    
C37   H20   S    
C41   H28   S    
C27   C28   A    
C14   C15   A    
Cu2   O4    S    
