data_mof_unit_55425.cif
_audit_creation_date              2012-10-26T20:02:29-0400
_audit_creation_method            fapswitch 2.2
_symmetry_space_group_name_H-M    P1
_symmetry_Int_Tables_number       1
_space_group_crystal_system       triclinic
_cell_length_a                    19.057888
_cell_length_b                    18.457953
_cell_length_c                    12.352499
_cell_angle_alpha                 89.999768
_cell_angle_beta                  129.150877
_cell_angle_gamma                 89.999881
_cell_volume                      3369.66820224

loop_
_atom_site_label
_atom_site_type_symbol
_atom_type_description
_atom_site_fract_x
_atom_site_fract_y
_atom_site_fract_z
_atom_type_partial_charge
C1    C     C_R   0.612242 0.898234 0.652958 0.532589
C2    C     C_R   0.660247 0.721106 0.014492 0.051135
C3    C     C_R   0.160254 0.778900 0.014479 0.051135
C4    C     C_R   0.160247 0.221098 0.014478 0.051136
C5    C     C_R   0.583432 0.245670 0.897652 -0.139254
C6    C     C_R   0.583421 0.754308 0.897615 -0.139253
C7    C     C_R   0.083426 0.745711 0.897585 -0.139246
C8    C     C_R   0.083419 0.254293 0.897590 -0.139249
C9    C     C_R   0.587517 0.209861 0.803188 -0.122697
C10   C     C_R   0.587514 0.790129 0.803168 -0.122692
C11   C     C_R   0.087527 0.709882 0.803153 -0.122694
C12   C     C_R   0.612240 0.101766 0.652956 0.532593
C13   C     C_R   0.087518 0.290121 0.803154 -0.122694
C14   C     C_R   0.317139 0.814510 0.151085 -0.135441
C15   C     C_R   0.317129 0.185481 0.151067 -0.135442
C16   C     C_R   0.817123 0.314531 0.151046 -0.135447
C17   C     C_R   0.817122 0.685474 0.151053 -0.135445
C18   C     C_R   0.230679 0.850101 0.224563 -0.136722
C19   C     C_R   0.230679 0.149900 0.224569 -0.136724
C20   C     C_R   0.730704 0.350060 0.224629 -0.136730
C21   C     C_R   0.730687 0.649913 0.224591 -0.136724
C22   C     C_R   0.677833 0.159438 0.740435 -0.002914
C23   C     C_R   0.112245 0.398237 0.652961 0.532583
C24   C     C_R   0.677839 0.840564 0.740440 -0.002915
C25   C     C_R   0.177863 0.659414 0.740474 -0.002910
C26   C     C_R   0.177850 0.340573 0.740456 -0.002912
C27   C     C_R   0.684250 0.000000 0.286237 -0.146639
C28   C     C_R   0.184250 0.500000 0.286237 -0.146634
C29   C     C_R   0.343757 0.000000 0.627438 0.046173
C30   C     C_R   0.843757 0.500000 0.627438 0.046168
C31   C     C_R   0.309502 0.000001 0.699164 -0.158117
C32   C     C_R   0.809502 0.499999 0.699164 -0.158120
C33   C     C_R   0.384243 0.098684 0.342437 0.543938
C34   C     C_R   0.112247 0.601761 0.652965 0.532582
C35   C     C_R   0.384243 0.901315 0.342439 0.543937
C36   C     C_R   0.884243 0.598685 0.342438 0.543941
C37   C     C_R   0.884244 0.401314 0.342439 0.543940
C38   C     C_R   0.368177 0.000001 0.844767 -0.135357
C39   C     C_R   0.868177 0.499999 0.844767 -0.135365
C40   C     C_R   0.462631 0.000000 0.921275 -0.007287
C41   C     C_R   0.962631 0.500000 0.921275 -0.007289
C42   C     C_R   0.494672 0.000000 0.842844 0.178527
C43   C     C_R   0.994672 0.500000 0.842844 0.178534
C44   C     C_R   0.526366 0.000000 0.072007 -0.015085
C45   C     C_R   0.241834 0.779555 0.033137 0.028832
C46   C     C_R   0.026366 0.500000 0.072007 -0.015085
C47   C     C_R   0.620198 0.000000 0.140053 0.037249
C48   C     C_R   0.120198 0.500000 0.140053 0.037250
C49   C     C_R   0.649914 1.000000 0.062160 -0.166641
C50   C     C_R   0.149914 0.500000 0.062160 -0.166641
C51   C     C_R   0.588782 1.000000 0.917411 -0.091165
C52   C     C_R   0.088782 0.500000 0.917411 -0.091160
C53   C     C_R   0.501807 0.000000 0.159533 0.038140
C54   C     C_R   0.001807 0.500000 0.159533 0.038135
C55   C     C_R   0.655741 1.000000 0.365689 0.040585
C56   C     C_R   0.241820 0.220433 0.033119 0.028831
C57   C     C_R   0.155741 0.500000 0.365689 0.040595
C58   C     C_R   0.655840 0.313021 0.111560 -0.131742
C59   C     C_R   0.655820 0.686946 0.111511 -0.131742
C60   C     C_R   0.155813 0.813073 0.111474 -0.131740
C61   C     C_R   0.155812 0.186929 0.111483 -0.131741
C62   C     C_R   0.310770 0.852220 0.242263 -0.002260
C63   C     C_R   0.310766 0.147777 0.242258 -0.002260
C64   C     C_R   0.810773 0.352215 0.242268 -0.002267
C65   C     C_R   0.810766 0.647778 0.242259 -0.002264
C66   C     C_R   0.754825 0.164898 0.749485 -0.132247
C67   C     C_R   0.741817 0.279566 0.033119 0.028828
C68   C     C_R   0.754836 0.835108 0.749502 -0.132245
C69   C     C_R   0.254881 0.664836 0.749586 -0.132237
C70   C     C_R   0.254858 0.335134 0.749542 -0.132240
C71   C     C_R   0.325071 0.710966 0.845778 -0.141734
C72   C     C_R   0.325035 0.288987 0.845709 -0.141734
C73   C     C_R   0.824994 0.211054 0.845633 -0.141735
C74   C     C_R   0.825005 0.788950 0.845651 -0.141733
C75   C     C_R   0.321712 0.749679 0.938849 -0.121641
C76   C     C_R   0.321678 0.250278 0.938787 -0.121645
C77   C     C_R   0.821646 0.249752 0.938728 -0.121643
C78   C     C_R   0.741813 0.720428 0.033111 0.028830
C79   C     C_R   0.821651 0.750247 0.938738 -0.121644
C80   C     C_R   0.745515 0.244869 0.934118 0.032742
C81   C     C_R   0.745516 0.755129 0.934118 0.032741
C82   C     C_R   0.245551 0.744837 0.934171 0.032745
C83   C     C_R   0.245531 0.255142 0.934139 0.032744
C84   C     C_R   0.669631 0.204144 0.825246 0.022498
C85   C     C_R   0.669633 0.795852 0.825242 0.022499
C86   C     C_R   0.169657 0.704134 0.825266 0.022499
C87   C     C_R   0.169643 0.295857 0.825250 0.022500
C88   C     C_R   0.660260 0.278873 0.014524 0.051136
Cu1   Cu    Cu3+1 0.526340 1.000000 0.421010 0.923512
Cu2   Cu    Cu3+1 0.026340 0.500000 0.421010 0.923514
Cu3   Cu    Cu3+1 0.473640 1.000000 0.578990 0.905069
Cu4   Cu    Cu3+1 0.973640 0.500000 0.578990 0.905077
H1    H     H_    0.224781 0.879449 0.294428 0.120312
H2    H     H_    0.931995 0.500000 0.116565 0.120615
H3    H     H_    0.237060 0.000001 0.641567 0.103928
H4    H     H_    0.737060 0.499999 0.641567 0.103928
H5    H     H_    0.618774 1.000000 0.868231 0.186545
H6    H     H_    0.118774 0.500000 0.868231 0.186541
H7    H     H_    0.519771 0.247305 0.879044 0.099996
H8    H     H_    0.519753 0.752662 0.878988 0.099997
H9    H     H_    0.019750 0.747374 0.878930 0.099987
H10   H     H_    0.019747 0.252637 0.878947 0.099985
H11   H     H_    0.593700 0.312824 0.097658 0.104183
H12   H     H_    0.224786 0.120557 0.294445 0.120313
H13   H     H_    0.593672 0.687127 0.097587 0.104175
H14   H     H_    0.093656 0.812907 0.097522 0.104185
H15   H     H_    0.093659 0.187100 0.097542 0.104187
H16   H     H_    0.381903 0.814200 0.174280 0.117897
H17   H     H_    0.381890 0.185791 0.174251 0.117898
H18   H     H_    0.881872 0.314246 0.174192 0.117915
H19   H     H_    0.881879 0.685778 0.174222 0.117905
H20   H     H_    0.761975 0.132013 0.684309 0.125765
H21   H     H_    0.761989 0.867997 0.684333 0.125761
H22   H     H_    0.262036 0.631937 0.684429 0.125750
H23   H     H_    0.724821 0.379384 0.294531 0.120325
H24   H     H_    0.262013 0.368028 0.684380 0.125756
H25   H     H_    0.383864 0.715058 0.851200 0.107096
H26   H     H_    0.383818 0.284878 0.851107 0.107104
H27   H     H_    0.883764 0.215180 0.851000 0.107105
H28   H     H_    0.883778 0.784827 0.851027 0.107105
H29   H     H_    0.524643 0.188392 0.711047 0.151858
H30   H     H_    0.524640 0.811600 0.711026 0.151854
H31   H     H_    0.024654 0.688421 0.710996 0.151836
H32   H     H_    0.024645 0.311588 0.711005 0.151842
H33   H     H_    0.297522 0.000000 0.514518 0.119676
H34   H     H_    0.724799 0.620577 0.294478 0.120319
H35   H     H_    0.797523 0.500000 0.514518 0.119678
H36   H     H_    0.337897 0.000002 0.894684 0.102929
H37   H     H_    0.837897 0.499999 0.894684 0.102925
H38   H     H_    0.379047 0.784022 0.010883 0.103254
H39   H     H_    0.379001 0.215919 0.010798 0.103255
H40   H     H_    0.878963 0.284119 0.010725 0.103257
H41   H     H_    0.878966 0.715877 0.010733 0.103264
H42   H     H_    0.705045 1.000000 0.478457 0.114321
H43   H     H_    0.205045 0.500000 0.478457 0.114316
H44   H     H_    0.721696 1.000000 0.113850 0.111931
H45   H     H_    0.221696 0.500000 0.113850 0.111931
H46   H     H_    0.756131 1.000000 0.338852 0.092508
H47   H     H_    0.256131 0.500000 0.338852 0.092508
H48   H     H_    0.431995 0.000000 0.116565 0.120622
N1    N     N_R   0.566260 1.000000 0.302220 -0.231901
N2    N     N_R   0.066260 0.500000 0.302220 -0.231899
N3    N     N_R   0.434410 0.000000 0.697680 -0.236244
N4    N     N_R   0.934410 0.500000 0.697680 -0.236240
O1    O     O_R   0.608610 0.924520 0.551740 -0.501002
O2    O     O_R   0.435880 0.924530 0.314850 -0.505318
O3    O     O_R   0.935880 0.575470 0.314850 -0.505319
O4    O     O_R   0.935880 0.424530 0.314850 -0.505325
O5    O     O_R   0.391380 0.075460 0.448260 -0.510885
O6    O     O_R   0.391380 0.924540 0.448260 -0.510884
O7    O     O_R   0.891380 0.575460 0.448260 -0.510881
O8    O     O_R   0.891380 0.424540 0.448260 -0.510887
O9    O     O_R   0.608610 0.075480 0.551740 -0.501005
O10   O     O_R   0.108610 0.424520 0.551740 -0.501003
O11   O     O_R   0.108610 0.575480 0.551740 -0.501001
O12   O     O_R   0.564110 0.924510 0.685150 -0.524876
O13   O     O_R   0.564110 0.075490 0.685150 -0.524881
O14   O     O_R   0.064110 0.424510 0.685150 -0.524875
O15   O     O_R   0.064110 0.575490 0.685150 -0.524871
O16   O     O_R   0.435880 0.075470 0.314850 -0.505320

loop_
_geom_bond_atom_site_label_1
_geom_bond_atom_site_label_2
_ccdc_geom_bond_type
C51   H5    S    
C83   C87   A    
C10   C85   A    
C8    C13   A    
C55   N1    A    
C29   H33   S    
C53   H48   S    
C15   H17   S    
C1    O1    A    
C45   C82   A    
C12   O9    A    
C80   C84   A    
C50   H45   S    
C16   H18   S    
C47   C49   A    
C28   C57   A    
Cu1   O1    S    
C67   C88   A    
C59   H13   S    
C57   N2    A    
Cu1   O16   S    
Cu4   O15   S    
C73   H27   S    
C21   C59   A    
C3    C7    A    
C76   H39   S    
C27   C55   A    
C43   C52   A    
C32   C39   A    
C11   C86   A    
C68   C74   A    
C14   C62   A    
C23   O14   A    
C12   C22   S    
C25   C34   S    
C30   N4    A    
Cu4   O14   S    
C23   C26   S    
C69   C71   A    
C22   C66   A    
Cu2   O4    S    
C5    C88   A    
Cu1   O9    S    
C44   C53   A    
C5    H7    S    
C19   C63   A    
C26   C87   A    
C49   C51   A    
Cu4   O8    S    
C9    H29   S    
C41   C46   A    
C35   O6    A    
C12   O13   A    
Cu1   Cu3   S    
C44   C47   A    
C24   C85   A    
C75   H38   S    
C4    C8    A    
C68   H21   S    
C3    C60   A    
C40   C42   A    
C4    C56   A    
C41   C43   A    
C13   C87   A    
C43   N4    A    
C2    C6    A    
C28   H47   S    
C61   H15   S    
C17   H19   S    
C76   C83   A    
C14   C45   A    
Cu3   N3    S    
Cu1   O2    S    
C79   H41   S    
C46   C48   A    
C69   H22   S    
C71   C75   A    
C27   H46   S    
Cu3   O13   S    
C71   H25   S    
C30   C32   A    
C39   C41   A    
C14   H16   S    
Cu3   O5    S    
C13   H32   S    
C2    C59   A    
C18   C62   A    
C39   H37   S    
C70   H24   S    
C34   O11   A    
C66   C73   A    
C4    C61   A    
C3    C45   A    
C77   H40   S    
C6    H8    S    
C20   C64   A    
C1    O12   A    
C7    C11   A    
C5    C9    A    
Cu2   O3    S    
C2    C78   A    
C20   H23   S    
C19   H12   S    
C36   O3    A    
C50   C52   A    
C33   C63   S    
C46   C54   A    
Cu4   O7    S    
C72   C76   A    
C75   C82   A    
C16   C67   A    
C48   C50   A    
Cu2   N2    S    
C18   C60   A    
C54   N2    A    
C49   H44   S    
C70   C72   A    
C74   C79   A    
C26   C70   A    
C25   C86   A    
Cu2   O10   S    
C37   O8    A    
C20   C58   A    
C37   C64   S    
C60   H14   S    
C56   C83   A    
C79   C81   A    
C77   C80   A    
C27   C47   A    
C30   H35   S    
C28   C48   A    
C73   C77   A    
C21   C65   A    
C36   C65   S    
C11   H31   S    
C67   C80   A    
C10   H30   S    
C58   C88   A    
C6    C10   A    
Cu3   O6    S    
C38   H36   S    
C33   O16   A    
C36   O7    A    
C55   H42   S    
C74   H28   S    
C42   C51   A    
C17   C65   A    
C31   C38   A    
C15   C56   A    
C21   H34   S    
Cu3   O12   S    
C32   H4    S    
C82   C86   A    
C34   O15   A    
C38   C40   A    
C78   C81   A    
C19   C61   A    
Cu1   N1    S    
C52   H6    S    
C17   C78   A    
Cu2   Cu4   S    
C35   C62   S    
C53   N1    A    
C37   O4    A    
Cu4   N4    S    
C54   H2    S    
C31   H3    S    
C24   C68   A    
C9    C84   A    
C40   C44   A    
C25   C69   A    
C1    C24   S    
C29   C31   A    
C7    H9    S    
C23   O10   A    
C72   H26   S    
C42   N3    A    
C18   H1    S    
C15   C63   A    
C57   H43   S    
C33   O5    A    
C58   H11   S    
C16   C64   A    
C66   H20   S    
Cu2   O11   S    
C8    H10   S    
C35   O2    A    
C81   C85   A    
C22   C84   A    
C29   N3    A    
