data_mof_unit_53708.cif
_audit_creation_date              2012-12-11T17:45:26-0500
_audit_creation_method            fapswitch 2.2
_symmetry_space_group_name_H-M    P1
_symmetry_Int_Tables_number       1
_space_group_crystal_system       triclinic
_cell_length_a                    15.038058
_cell_length_b                    14.910765
_cell_length_c                    15.120824
_cell_angle_alpha                 110.305908
_cell_angle_beta                  109.42095
_cell_angle_gamma                 108.928284
_cell_volume                      2601.93119575

loop_
_atom_site_label
_atom_site_type_symbol
_atom_type_description
_atom_site_fract_x
_atom_site_fract_y
_atom_site_fract_z
_atom_type_partial_charge
C1    C     C_R   0.907626 0.193558 0.991415 -0.146518
C2    C     C_R   0.685066 0.241068 0.774416 -0.131132
C3    C     C_R   0.790907 0.590326 0.096959 -0.130574
C4    C     C_R   0.294296 0.805963 0.204794 -0.134105
C5    C     C_R   0.004111 0.408006 0.701523 -0.164167
C6    C     C_R   0.699086 0.497768 0.066355 0.018998
C7    C     C_R   0.059082 0.498830 0.697181 0.061626
C8    C     C_R   0.675672 0.211722 0.671780 0.051141
C9    C     C_R   0.946412 0.773868 0.949325 0.059640
C10   C     C_R   0.680782 0.298112 0.211954 -0.122048
C11   C     C_R   0.787859 0.368963 0.297889 -0.118093
C12   C     C_R   0.295220 0.872555 0.296071 0.067669
C13   C     C_R   0.861103 0.329476 0.316600 0.122689
C14   C     C_R   0.825615 0.218071 0.248629 -0.207771
C15   C     C_R   0.718889 0.147996 0.161301 -0.109573
C16   C     C_R   0.221166 0.406202 0.972921 -0.147275
C17   C     C_R   0.646540 0.188077 0.143018 -0.105726
C18   C     C_R   0.986961 0.404118 0.505449 -0.247670
C19   C     C_R   0.074355 0.492836 0.606386 0.067496
C20   C     C_R   0.159230 0.578168 0.613905 0.025784
C21   C     C_R   0.150065 0.572612 0.517101 -0.252075
C22   C     C_R   0.056181 0.489265 0.417466 0.076478
C23   C     C_R   0.323809 0.497127 0.046214 0.012181
C24   C     C_R   0.973008 0.404361 0.411637 0.011669
C25   C     C_R   0.273296 0.783617 0.735263 -0.160231
C26   C     C_R   0.346911 0.877518 0.838705 -0.117632
C27   C     C_R   0.396549 0.866929 0.927701 -0.090406
C28   C     C_R   0.058067 0.591401 0.314763 -0.129679
C29   C     C_R   0.375218 0.762895 0.912755 -0.120781
C30   C     C_R   0.306663 0.669225 0.808479 -0.168819
C31   C     C_R   0.250536 0.678047 0.719474 0.120162
C32   C     C_R   0.088108 0.990101 0.376851 -0.124394
C33   C     C_R   0.192448 0.032567 0.390692 -0.144556
C34   C     C_R   0.039853 0.497170 0.321854 0.040474
C35   C     C_R   0.275856 0.034038 0.470059 0.122934
C36   C     C_R   0.254843 0.997254 0.538614 -0.207022
C37   C     C_R   0.149272 0.950651 0.521211 -0.127243
C38   C     C_R   0.066097 0.947020 0.440419 -0.104809
C39   C     C_R   0.477290 0.136157 0.563135 -0.245658
C40   C     C_R   0.313860 0.590890 0.066806 -0.141670
C41   C     C_R   0.575049 0.148162 0.565979 0.069030
C42   C     C_R   0.572757 0.092421 0.467104 0.018260
C43   C     C_R   0.474416 0.025543 0.371233 -0.230071
C44   C     C_R   0.378397 0.989826 0.374939 0.050464
C45   C     C_R   0.701825 0.407367 0.004750 -0.143540
C46   C     C_R   0.377846 0.055010 0.468260 0.030487
C47   C     C_R   0.722725 0.123372 0.422851 -0.183159
C48   C     C_R   0.803396 0.099942 0.414646 -0.130108
C49   C     C_R   0.817914 0.020958 0.437284 -0.111659
C50   C     C_R   0.753205 0.966524 0.470259 -0.124779
C51   C     C_R   0.675982 0.993073 0.483562 -0.129788
C52   C     C_R   0.975619 0.407056 0.218457 -0.105285
C53   C     C_R   0.660830 0.072229 0.460677 0.107390
C54   C     C_3   0.506163 0.375271 0.006791 -0.459345
C55   C     C_3   0.403969 0.375256 0.004359 -0.411957
C56   C     C_R   0.087047 0.591056 0.788432 -0.137806
C57   C     C_3   0.618823 0.553078 0.187055 0.061520
C58   C     C_3   0.567661 0.552802 0.007648 -0.404170
C59   C     C_3   0.601401 0.495642 0.069368 0.295005
C60   C     C_3   0.424590 0.495012 0.058687 0.377487
C61   C     C_3   0.514954 0.558571 0.179779 -0.478331
C62   C     C_3   0.463416 0.550209 0.998931 -0.405842
C63   C     C_R   0.056604 0.054907 0.676136 -0.120937
C64   C     C_R   0.206986 0.805805 0.297875 -0.144998
C65   C     C_R   0.984985 0.000882 0.703736 -0.181687
C66   C     C_R   0.026021 0.003490 0.803001 0.119781
C67   C     C_R   0.779623 0.249316 0.686731 -0.122221
C68   C     C_R   0.138534 0.049851 0.868444 -0.148296
C69   C     C_R   0.209512 0.098666 0.837640 -0.160517
C70   C     C_R   0.168818 0.104322 0.743371 -0.108971
C71   C     C_R   0.941284 0.862179 0.838892 -0.236241
C72   C     C_R   0.901333 0.830687 0.901074 0.056081
C73   C     C_R   0.837479 0.873160 0.929912 0.027179
C74   C     C_R   0.833386 0.958229 0.914160 -0.229645
C75   C     C_R   0.904615 0.013205 0.887381 0.053975
C76   C     C_R   0.000088 0.198055 0.903561 -0.148571
C77   C     C_R   0.952168 0.958387 0.839354 0.023620
C78   C     C_R   0.931279 0.746908 0.024770 -0.143273
C79   C     C_R   0.669503 0.764157 0.921649 -0.144816
C80   C     C_R   0.604743 0.759073 0.969409 -0.123309
C81   C     C_R   0.650238 0.830399 0.081091 -0.118255
C82   C     C_R   0.761377 0.905836 0.145084 -0.136445
C83   C     C_R   0.825930 0.913560 0.096962 -0.194353
C84   C     C_R   0.780012 0.842619 0.984851 0.116928
C85   C     C_R   0.938794 0.130860 0.928045 0.069901
C86   C     C_3   0.764641 0.699306 0.373334 -0.970414
C87   C     C_R   0.025157 0.749481 0.936484 -0.122934
H1    H     H_    0.848618 0.164510 0.014779 0.097752
H2    H     H_    0.624150 0.328338 0.199604 0.092706
H3    H     H_    0.813436 0.454137 0.350712 0.106435
H4    H     H_    0.340084 0.831386 0.167796 0.085857
H5    H     H_    0.881306 0.186497 0.261791 0.110307
H6    H     H_    0.692198 0.062702 0.107925 0.130178
H7    H     H_    0.919514 0.341885 0.499848 0.131704
H8    H     H_    0.212887 0.636945 0.519659 0.128971
H9    H     H_    0.230793 0.793158 0.668661 0.107920
H10   H     H_    0.362768 0.958171 0.850450 0.102528
H11   H     H_    0.450563 0.938999 0.008488 0.096227
H12   H     H_    0.135875 0.676249 0.814860 0.118985
H13   H     H_    0.410967 0.754661 0.982362 0.094291
H14   H     H_    0.290944 0.589194 0.798737 0.112027
H15   H     H_    0.984427 0.910085 0.426493 0.099051
H16   H     H_    0.198120 0.320272 0.937370 0.113167
H17   H     H_    0.023490 0.987093 0.314443 0.104435
H18   H     H_    0.207150 0.059699 0.336605 0.111421
H19   H     H_    0.317564 0.995825 0.598772 0.117174
H20   H     H_    0.131518 0.915371 0.568996 0.132014
H21   H     H_    0.477529 0.183365 0.636231 0.123043
H22   H     H_    0.476375 0.983643 0.298201 0.123998
H23   H     H_    0.805123 0.250116 0.628706 0.121085
H24   H     H_    0.710338 0.182892 0.402646 0.130440
H25   H     H_    0.854276 0.141910 0.389817 0.114086
H26   H     H_    0.878309 0.001007 0.427733 0.091784
H27   H     H_    0.762126 0.903235 0.484786 0.112299
H28   H     H_    0.103517 0.676145 0.380631 0.101579
H29   H     H_    0.626324 0.950438 0.509433 0.112284
H30   H     H_    0.527153 0.328505 0.045493 0.147213
H31   H     H_    0.488114 0.331190 0.921154 0.168565
H32   H     H_    0.339384 0.327650 0.917275 0.164814
H33   H     H_    0.377736 0.333285 0.046577 0.157888
H34   H     H_    0.876556 0.752792 0.054385 0.118208
H35   H     H_    0.629281 0.499685 0.221381 0.117769
H36   H     H_    0.486262 0.521631 0.224258 0.153379
H37   H     H_    0.633299 0.639195 0.051854 0.170407
H38   H     H_    0.556192 0.512454 0.924277 0.169761
H39   H     H_    0.399744 0.504993 0.911414 0.160368
H40   H     H_    0.378178 0.675988 0.117665 0.091311
H41   H     H_    0.478918 0.636025 0.035183 0.143178
H42   H     H_    0.532852 0.645511 0.219171 0.164242
H43   H     H_    0.224200 0.145900 0.721762 0.119341
H44   H     H_    0.025347 0.059477 0.603354 0.118943
H45   H     H_    0.060077 0.762262 0.887495 0.092908
H46   H     H_    0.898471 0.963910 0.652515 0.117062
H47   H     H_    0.171075 0.049617 0.943887 0.112536
H48   H     H_    0.296129 0.134037 0.887992 0.115052
H49   H     H_    0.978012 0.821938 0.801868 0.127801
H50   H     H_    0.784419 0.989842 0.937377 0.130758
H51   H     H_    0.950592 0.322086 0.193959 0.111575
H52   H     H_    0.632357 0.711710 0.834429 0.114563
H53   H     H_    0.519664 0.698142 0.919211 0.125769
H54   H     H_    0.600083 0.826653 0.118482 0.101285
H55   H     H_    0.796937 0.960945 0.230983 0.120807
H56   H     H_    0.620466 0.225353 0.793458 0.090851
H57   H     H_    0.910363 0.977955 0.145533 0.112611
H58   H     H_    0.175193 0.828879 0.350237 0.133756
H59   H     H_    0.023588 0.176847 0.843647 0.128334
H60   H     H_    0.649685 0.321882 0.975999 0.095321
H61   H     H_    0.708696 0.721947 0.241030 0.178139
H62   H     H_    0.837449 0.782264 0.420059 0.244931
H63   H     H_    0.790914 0.642154 0.388954 0.257548
H64   H     H_    0.706408 0.703679 0.402237 0.254369
H65   H     H_    0.818548 0.675441 0.151668 0.106671
H66   H     H_    0.982219 0.323810 0.650279 0.108349
H67   H     H_    0.563853 0.133985 0.075782 0.091819
N1    N     N_R   0.947080 0.293830 0.002870 -0.041208
N2    N     N_R   0.153670 0.443180 0.946090 -0.037104
N3    N     N_R   0.002360 0.556820 0.208890 -0.039151
N4    N     N_R   0.210070 0.556820 0.002870 -0.035873
N5    N     N_R   0.945960 0.443180 0.152110 -0.040322
N6    N     N_R   0.151710 0.706170 0.208890 -0.042855
N7    N     N_R   0.004320 0.293830 0.946090 -0.041157
N8    N     N_R   0.789930 0.443180 0.997130 -0.036089
N9    N     N_2   0.714901 0.662320 0.258201 -0.109659
N10   N     N_R   0.054040 0.556820 0.847890 -0.039926
N11   N     N_R   0.848290 0.293830 0.791110 -0.043120
N12   N     N_R   0.995680 0.706170 0.053910 -0.041158
N13   N     N_R   0.052920 0.706170 0.997130 -0.041750
N14   N     N_R   0.791050 0.293830 0.847890 -0.040124
N15   N     N_R   0.846330 0.556820 0.053910 -0.040565
N16   N     N_R   0.997640 0.443180 0.791110 -0.039315
N17   N     N_R   0.208950 0.706170 0.152110 -0.038792
Ni1   Ni    Ni4+2 0.869690 0.369690 0.000000 0.217536
Ni2   Ni    Ni4+2 0.130310 0.630310 0.000000 0.210784
Ni3   Ni    Ni4+2 0.000970 0.369690 0.869780 0.213347
Ni4   Ni    Ni4+2 0.999030 0.630310 0.130220 0.219857

loop_
_geom_bond_atom_site_label_1
_geom_bond_atom_site_label_2
_ccdc_geom_bond_type
C25   C31   A    
C66   C68   A    
C63   C65   A    
C27   H11   S    
C58   C62   S    
C4    N17   A    
C64   H58   S    
C27   C29   A    
C41   C42   A    
C49   H26   S    
C35   C36   A    
C9    C72   S    
C82   H55   S    
C3    C6    A    
C81   C82   A    
C39   C41   A    
C55   H32   S    
C8    C67   A    
N1    N7    A    
N17   Ni2   S    
N2    Ni3   S    
C26   C27   A    
C29   C30   A    
C18   C24   A    
C40   N4    A    
C36   C37   A    
C6    C45   A    
C37   H20   S    
C86   H63   S    
C42   C53   S    
C79   C84   A    
C12   C64   A    
C5    H66   S    
C57   C59   S    
C10   C17   A    
C23   C40   A    
C70   H43   S    
C60   C62   S    
C18   C19   A    
C73   C74   A    
C1    N1    A    
C78   H34   S    
C16   H16   S    
C13   C14   A    
C57   H35   S    
N10   N16   A    
N1    Ni1   S    
C75   C85   S    
C87   N13   A    
C83   C84   A    
C10   H2    S    
C68   C69   A    
C16   N2    A    
C52   H51   S    
C5    N16   A    
C32   H17   S    
C32   C38   A    
C4    C12   A    
C73   C84   S    
C54   C59   S    
C61   H42   S    
C47   C53   A    
C4    H4    S    
C67   N11   A    
C1    H1    S    
C81   H54   S    
C76   H59   S    
C69   H48   S    
C55   C60   S    
C2    H56   S    
C76   N7    A    
C23   C60   S    
C7    C56   A    
C17   H67   S    
C44   C46   A    
C55   H33   S    
C1    C85   A    
C39   H21   S    
C22   C34   S    
C74   H50   S    
C78   N12   A    
C74   C75   A    
C36   H19   S    
C33   H18   S    
C8    C41   S    
C72   C73   A    
C79   H52   S    
N5    Ni1   S    
C86   H62   S    
C71   H49   S    
C5    C7    A    
C3    N15   A    
C21   H8    S    
N11   Ni3   S    
C80   H53   S    
C40   H40   S    
C82   C83   A    
C13   C24   S    
C60   C61   S    
C50   H27   S    
C87   H45   S    
C45   N8    A    
C37   C38   A    
C28   H28   S    
C67   H23   S    
C47   C48   A    
C57   N9    S    
C63   C70   A    
C30   C31   A    
C64   N6    A    
C50   C51   A    
N12   Ni4   S    
N10   Ni2   S    
C75   C77   A    
C14   H5    S    
C63   H44   S    
C25   H9    S    
C39   C46   A    
C48   C49   A    
C48   H25   S    
N3    Ni4   S    
C65   C66   A    
C16   C23   A    
C7    C19   S    
C54   H31   S    
C43   C44   A    
N12   N13   A    
C18   H7    S    
N6    Ni4   S    
C22   C24   A    
C58   C59   S    
C42   C43   A    
C2    N14   A    
C71   C77   A    
C62   H39   S    
N16   Ni3   S    
C15   C17   A    
C66   C77   S    
C3    H65   S    
C54   C55   S    
C29   H13   S    
C45   H60   S    
H61   N9    S    
C34   C52   A    
C6    C59   S    
C2    C8    A    
C80   C81   A    
C15   H6    S    
C57   C61   S    
N11   N14   A    
N15   Ni4   S    
C56   N10   A    
C58   H37   S    
C51   H29   S    
N13   Ni2   S    
C61   H36   S    
C32   C33   A    
C19   C20   A    
C68   H47   S    
C25   C26   A    
C71   C72   A    
C12   C44   S    
C86   H64   S    
C9    C87   A    
C62   H41   S    
N7    Ni3   S    
C11   C13   A    
C11   H3    S    
C83   H57   S    
N8    N15   A    
C52   N5    A    
C47   H24   S    
C30   H14   S    
N2    N4    A    
C28   N3    A    
C33   C35   A    
N6    N17   A    
N4    Ni2   S    
C9    C78   A    
C38   H15   S    
C69   C70   A    
C10   C11   A    
C26   H10   S    
C28   C34   A    
C79   C80   A    
N14   Ni1   S    
N8    Ni1   S    
C20   C21   A    
C58   H38   S    
N3    N5    A    
C49   C50   A    
C54   H30   S    
C14   C15   A    
C86   N9    S    
C43   H22   S    
C56   H12   S    
C51   C53   A    
C21   C22   A    
C35   C46   S    
C76   C85   A    
C65   H46   S    
C20   C31   S    
