data_mof_unit_44983.cif
_audit_creation_date              2012-12-10T18:59:16-0500
_audit_creation_method            fapswitch 2.2
_symmetry_space_group_name_H-M    P1
_symmetry_Int_Tables_number       1
_space_group_crystal_system       triclinic
_cell_length_a                    10.779301
_cell_length_b                    10.824206
_cell_length_c                    9.543952
_cell_angle_alpha                 89.666388
_cell_angle_beta                  89.791596
_cell_angle_gamma                 90.582224
_cell_volume                      1113.47928515

loop_
_atom_site_label
_atom_site_type_symbol
_atom_type_description
_atom_site_fract_x
_atom_site_fract_y
_atom_site_fract_z
_atom_type_partial_charge
C1    C     C_R   0.499952 0.262368 0.500337 0.783238
C2    C     C_R   0.063582 0.393716 0.575850 0.081949
C3    C     C_R   0.128595 0.487208 0.500491 -0.099634
C4    C     C_R   0.065201 0.574914 0.421312 -0.195991
C5    C     C_R   0.937235 0.575200 0.420742 -0.213896
C6    C     C_R   0.870836 0.487820 0.499409 -0.099448
C7    C     C_R   0.440551 0.061086 0.607543 0.111030
C8    C     C_R   0.495995 0.129031 0.498762 -0.154070
C9    C     C_R   0.538174 0.065653 0.379524 -0.217195
C10   C     C_R   0.537300 0.936791 0.377826 -0.211215
C11   C     C_R   0.496733 0.870395 0.496575 -0.089217
C12   C     C_R   0.262512 0.495307 0.500286 0.788203
C13   C     C_R   0.443222 0.934587 0.606682 0.057456
C14   C     C_3   0.456577 0.924633 0.761388 -0.516913
C15   C     C_3   0.449715 0.065734 0.764167 0.296330
C16   C     C_R   0.576315 0.578830 0.072832 0.252072
C17   C     C_R   0.415615 0.432272 0.075212 -0.090527
C18   C     C_R   0.415351 0.432684 0.926201 -0.085745
C19   C     C_R   0.576432 0.578665 0.925477 0.253453
C20   C     C_3   0.714668 0.583484 0.919183 -0.492606
C21   C     C_3   0.714552 0.583867 0.078074 -0.507308
C22   C     C_R   0.501211 0.737467 0.499433 0.811001
C23   C     C_R   0.737357 0.496662 0.499787 0.785810
C24   C     C_R   0.125450 0.297546 0.647232 -0.175167
C25   C     C_R   0.058369 0.205223 0.717698 -0.120146
C26   C     C_R   0.929474 0.205795 0.717085 -0.165628
C27   C     C_R   0.866567 0.298467 0.645791 -0.190727
C28   C     C_R   0.932357 0.394099 0.575177 0.100853
Cu1   Cu    Cu3+1 0.499990 0.499980 0.640670 0.936434
Cu2   Cu    Cu3+1 0.500010 0.500020 0.359330 0.934215
H1    H     H_    0.115233 0.645309 0.362056 0.149411
H2    H     H_    0.548765 0.889001 0.793118 0.159239
H3    H     H_    0.535015 0.115042 0.800157 0.074725
H4    H     H_    0.349131 0.375451 0.131914 0.136700
H5    H     H_    0.348281 0.377020 0.870438 0.154969
H6    H     H_    0.755684 0.498234 0.875011 0.225802
H7    H     H_    0.749791 0.671388 0.872268 0.190625
H8    H     H_    0.755655 0.498949 0.123698 0.226275
H9    H     H_    0.749480 0.672059 0.123011 0.184448
H10   H     H_    0.225433 0.291080 0.646978 0.167461
H11   H     H_    0.106052 0.131637 0.771460 0.185456
H12   H     H_    0.877926 0.133059 0.770427 0.130449
H13   H     H_    0.766461 0.292413 0.644449 0.146163
H14   H     H_    0.889618 0.645815 0.361222 0.143042
H15   H     H_    0.575271 0.115250 0.289515 0.163551
H16   H     H_    0.573725 0.889752 0.286860 0.153693
H17   H     H_    0.375657 0.875643 0.808870 0.209618
N1    N     N_R   0.500790 0.500930 0.147930 -0.181574
N2    N     N_R   0.500790 0.500890 0.852020 -0.185076
O1    O     O_R   0.500000 0.319640 0.618810 -0.590529
O2    O     O_R   0.500010 0.319680 0.381230 -0.583473
O3    O     O_R   0.319640 0.499980 0.618820 -0.583618
O4    O     O_R   0.319650 0.500020 0.381230 -0.578898
O5    O     O_R   0.499990 0.680320 0.618770 -0.573728
O6    O     O_R   0.500000 0.680360 0.381190 -0.585452
O7    O     O_R   0.680350 0.499980 0.618770 -0.589730
O8    O     O_R   0.680360 0.500020 0.381180 -0.581513
O9    O     O_3   0.336391 0.107596 0.820501 -0.618909
C29   C     C_3   0.342881 0.122747 0.967457 0.047515
H18   H     H_    0.277188 0.197389 0.994148 0.159264
H19   H     H_    0.435960 0.153752 0.004720 0.117633
C30   C     C_3   0.301142 0.004910 0.045256 -0.360698
H20   H     H_    0.226714 0.957252 0.985253 0.229090
H21   H     H_    0.381171 0.941580 0.055309 0.203770
C31   C     C_3   0.251112 0.033723 0.191290 -0.887103
H22   H     H_    0.317048 0.093737 0.249017 0.267892
H23   H     H_    0.236656 0.946488 0.251242 0.257870
H24   H     H_    0.160969 0.082007 0.183004 0.249027

loop_
_geom_bond_atom_site_label_1
_geom_bond_atom_site_label_2
_ccdc_geom_bond_type
C10   H16   S    
C30   H21   S    
Cu2   O2    S    
C16   C21   S    
C9    H15   S    
C14   H17   S    
Cu1   O7    S    
C1    C8    S    
C11   C13   A    
C9    C10   A    
C19   N2    A    
C11   C22   S    
C12   O4    A    
C21   H9    S    
C17   N1    A    
C7    C13   A    
C31   H24   S    
C16   N1    A    
C7    C15   S    
C17   C18   A    
O9    C29   S    
C22   O6    A    
C29   H18   S    
C22   O5    A    
Cu1   N2    S    
C13   C14   S    
C20   C21   S    
C20   H7    S    
C1    O2    A    
C26   C27   A    
C30   H20   S    
C16   C19   A    
C6    C23   S    
C18   H5    S    
Cu2   N1    S    
C12   O3    A    
C5    H14   S    
C1    O1    A    
C2    C3    A    
Cu1   O1    S    
C2    C24   A    
C5    C6    A    
C15   O9    S    
C29   H19   S    
C4    H1    S    
C7    C8    A    
C10   C11   A    
Cu1   Cu2   S    
C3    C4    A    
C20   H6    S    
Cu2   O8    S    
C27   H13   S    
C23   O7    A    
C24   C25   A    
C26   H12   S    
Cu2   O4    S    
C31   H22   S    
C17   H4    S    
Cu1   O5    S    
C25   H11   S    
C27   C28   A    
C23   O8    A    
C14   C15   S    
C4    C5    A    
C29   C30   S    
C2    C28   A    
C3    C12   S    
C30   C31   S    
C24   H10   S    
C25   C26   A    
Cu2   O6    S    
C15   H3    S    
C6    C28   A    
C21   H8    S    
C19   C20   S    
C18   N2    A    
C14   H2    S    
C8    C9    A    
C31   H23   S    
Cu1   O3    S    
