data_mof_unit_32353.cif
_audit_creation_date              2012-12-10T17:37:18-0500
_audit_creation_method            fapswitch 2.2
_symmetry_space_group_name_H-M    P1
_symmetry_Int_Tables_number       1
_space_group_crystal_system       triclinic
_cell_length_a                    12.414738
_cell_length_b                    13.254387
_cell_length_c                    15.834304
_cell_angle_alpha                 76.11822
_cell_angle_beta                  100.822938
_cell_angle_gamma                 117.40577
_cell_volume                      2236.48956401

loop_
_atom_site_label
_atom_site_type_symbol
_atom_type_description
_atom_site_fract_x
_atom_site_fract_y
_atom_site_fract_z
_atom_type_partial_charge
C1    C     C_R   0.854674 0.286481 0.508556 0.782629
C2    C     C_3   0.999652 0.501569 0.916648 0.144932
C3    C     C_3   0.082373 0.602697 0.019628 0.218149
C4    C     C_3   0.999576 0.500861 0.082969 0.146644
C5    C     C_3   0.972359 0.584952 0.951432 0.217479
C6    C     C_3   0.888278 0.482947 0.015493 -0.202811
C7    C     C_1   0.999514 0.500964 0.824956 -0.055469
C8    C     C_1   0.999841 0.500041 0.174900 -0.055948
C9    C     C_R   0.284743 0.022535 0.375125 -0.205025
C10   C     C_R   0.229933 0.836320 0.468971 -0.057896
C11   C     C_R   0.810068 0.083392 0.569694 -0.240467
C12   C     C_R   0.999616 0.499721 0.659772 0.807667
C13   C     C_R   0.736123 0.964875 0.578822 0.228257
C14   C     C_R   0.617696 0.924001 0.535257 0.159095
C15   C     C_R   0.570260 0.004788 0.490629 0.019550
C16   C     C_R   0.653924 0.122382 0.469169 0.042891
C17   C     C_R   0.443986 0.974388 0.464958 0.090188
C18   C     C_R   0.408301 0.053003 0.403025 0.172163
C19   C     C_R   0.496295 0.161102 0.369802 -0.243672
C20   C     C_R   0.617229 0.195862 0.402819 -0.171752
C21   C     C_R   0.351550 0.871057 0.502740 -0.258273
C22   C     C_R   0.196078 0.913771 0.406863 -0.188965
C23   C     C_R   0.145423 0.713701 0.487941 0.789804
C24   C     C_R   0.772305 0.162476 0.513476 -0.143796
C25   C     C_R   0.349218 0.337302 0.647645 -0.311514
C26   C     C_R   0.752884 0.628036 0.370785 0.676613
C27   C     C_R   0.639491 0.616293 0.326677 -0.382057
C28   C     C_R   0.534266 0.546698 0.368531 -0.262128
C29   C     C_R   0.539563 0.503339 0.458742 0.012797
C30   C     C_R   0.650456 0.497782 0.495308 0.201152
C31   C     C_R   0.438581 0.457327 0.512062 -0.015870
C32   C     C_R   0.444518 0.385987 0.593569 0.135029
C33   C     C_R   0.546466 0.364172 0.621220 -0.263183
C34   C     C_R   0.000141 0.499971 0.340290 0.812200
C35   C     C_R   0.648022 0.420221 0.573765 -0.155366
C36   C     C_R   0.336837 0.485569 0.492405 0.329921
C37   C     C_R   0.250487 0.363895 0.624149 0.033967
C38   C     C_3   0.027137 0.416684 0.048706 -0.192264
C39   C     C_3   0.915995 0.398741 0.979794 -0.192466
C40   C     C_1   0.999514 0.500342 0.749431 -0.179261
C41   C     C_1   0.000134 0.499713 0.250613 -0.194369
C42   C     C_3   0.110962 0.519587 0.984159 -0.202744
Cu1   Cu    Cu3+1 0.098270 0.475420 0.519690 0.929797
Cu2   Cu    Cu3+1 0.901730 0.524580 0.480310 0.962768
H1    H     H_    0.847592 0.314557 0.962163 0.140534
H2    H     H_    0.372728 0.814913 0.557781 0.171867
H3    H     H_    0.899540 0.114224 0.605235 0.162666
H4    H     H_    0.681526 0.280160 0.373898 0.170621
H5    H     H_    0.177417 0.326358 0.666360 0.132250
H6    H     H_    0.549604 0.306126 0.681917 0.147454
H7    H     H_    0.352173 0.280324 0.708968 0.142791
H8    H     H_    0.049402 0.347129 0.090079 0.141657
H9    H     H_    0.449859 0.527008 0.328125 0.176012
H10   H     H_    0.629869 0.657295 0.259801 0.135877
H11   H     H_    0.720970 0.397183 0.599371 0.198360
H12   H     H_    0.797301 0.468410 0.029279 0.136274
H13   H     H_    0.202262 0.535061 0.970325 0.138474
H14   H     H_    0.102028 0.889002 0.381032 0.187685
H15   H     H_    0.471103 0.220594 0.320128 0.141990
H16   H     H_    0.257106 0.081751 0.327158 0.133205
N1    N     N_R   0.246280 0.438200 0.549540 -0.176231
N2    N     N_R   0.754330 0.561180 0.450980 -0.241373
O1    O     O_R   0.972510 0.318130 0.524770 -0.575111
O2    O     O_R   0.806530 0.359650 0.491510 -0.603827
O3    O     O_R   0.082970 0.479240 0.637550 -0.578658
O4    O     O_R   0.916990 0.520750 0.604290 -0.595154
O5    O     O_R   0.193470 0.640350 0.508490 -0.597990
O6    O     O_R   0.027490 0.681870 0.475230 -0.527808
O7    O     O_R   0.083010 0.479250 0.395710 -0.580311
O8    O     O_R   0.917030 0.520760 0.362450 -0.551182
C43   C     C_3   0.554542 0.798530 0.524958 -0.878758
H17   H     H_    0.519519 0.741854 0.587303 0.238530
H18   H     H_    0.480177 0.783494 0.471997 0.237833
H19   H     H_    0.618364 0.773546 0.504496 0.241924
C44   C     C_3   0.785382 0.883198 0.635126 -0.857412
H20   H     H_    0.875162 0.930037 0.670324 0.221735
H21   H     H_    0.721397 0.823470 0.684777 0.233995
H22   H     H_    0.797735 0.832560 0.594338 0.240781
C45   C     C_3   0.331174 0.570993 0.410796 -0.800200
H23   H     H_    0.282303 0.619509 0.413146 0.269523
H24   H     H_    0.421805 0.642263 0.397800 0.196724
H25   H     H_    0.287305 0.525548 0.354416 0.212520
O9    O     O_3   0.864208 0.701723 0.336086 -0.562465
C46   C     C_3   0.856012 0.723315 0.243735 0.040200
H26   H     H_    0.812168 0.782400 0.216826 0.134942
H27   H     H_    0.805039 0.641201 0.217463 0.145366
C47   C     C_3   0.983518 0.783179 0.213117 -0.784907
H28   H     H_    0.036220 0.733421 0.244868 0.250827
H29   H     H_    0.977409 0.790483 0.141203 0.195649
H30   H     H_    0.032289 0.871269 0.229426 0.229638
C48   C     C_3   0.941185 0.680239 0.895539 -0.891675
H31   H     H_    0.925957 0.726846 0.938280 0.231090
H32   H     H_    0.017399 0.741825 0.855393 0.239284
H33   H     H_    0.857262 0.642154 0.851849 0.238025
C49   C     C_3   0.176669 0.718122 0.043280 -0.899108
H34   H     H_    0.223337 0.775409 0.984710 0.236233
H35   H     H_    0.131196 0.759421 0.067458 0.236955
H36   H     H_    0.244846 0.704430 0.095092 0.234286

loop_
_geom_bond_atom_site_label_1
_geom_bond_atom_site_label_2
_ccdc_geom_bond_type
C47   H28   S    
C3    C42   S    
C26   O9    S    
C49   H34   S    
C14   C43   S    
Cu2   O4    S    
C19   C20   A    
C46   C47   S    
C4    C8    S    
C45   H25   S    
C49   H36   S    
Cu1   O1    S    
C10   C22   A    
C26   C27   A    
C30   C35   A    
C28   C29   A    
C46   H27   S    
C38   C42   S    
C38   C39   S    
C9    C22   A    
C38   H8    S    
C15   C16   A    
C11   C24   A    
C18   C19   A    
C23   O5    A    
C44   H20   S    
C2    C7    S    
C25   C37   A    
C11   H3    S    
C2    C39   S    
C13   C44   S    
C7    C40   T    
Cu2   O8    S    
C34   O8    A    
Cu1   O3    S    
C39   H1    S    
C25   C32   A    
C16   C24   A    
C13   C14   A    
C34   C41   S    
C1    O1    A    
C42   H13   S    
C10   C21   A    
C27   H10   S    
C35   H11   S    
C8    C41   T    
C4    C6    S    
C48   H31   S    
C43   H18   S    
C19   H15   S    
C33   H6    S    
C12   O4    A    
Cu2   O2    S    
C23   O6    A    
C12   C40   S    
Cu1   Cu2   S    
C25   H7    S    
C29   C30   A    
C48   H32   S    
C37   H5    S    
O9    C46   S    
C14   C15   A    
C16   C20   A    
C17   C18   A    
C20   H4    S    
C46   H26   S    
C44   H21   S    
C34   O7    A    
C5    C48   S    
C4    C38   S    
C30   N2    A    
Cu2   O6    S    
C2    C5    S    
C36   N1    A    
C1    O2    A    
Cu1   N1    S    
C45   H24   S    
C21   H2    S    
C15   C17   A    
C31   C36   A    
C31   C32   A    
C6    H12   S    
C3    C5    S    
C36   C45   S    
C22   H14   S    
C43   H19   S    
C37   N1    A    
C28   H9    S    
C49   H35   S    
C10   C23   S    
C12   O3    A    
C9    H16   S    
Cu2   N2    S    
C32   C33   A    
C47   H29   S    
C26   N2    A    
C43   H17   S    
C29   C31   A    
C48   H33   S    
C11   C13   A    
C5    C6    S    
C2    C42   S    
C33   C35   A    
C44   H22   S    
C17   C21   A    
C45   H23   S    
C9    C18   A    
C1    C24   S    
Cu1   O5    S    
C47   H30   S    
C27   C28   A    
C6    C39   S    
C3    C49   S    
Cu1   O7    S    
C3    C4    S    
