data_mof_unit_20568.cif
_audit_creation_date              2012-12-11T17:04:38-0500
_audit_creation_method            fapswitch 2.2
_symmetry_space_group_name_H-M    P1
_symmetry_Int_Tables_number       1
_space_group_crystal_system       triclinic
_cell_length_a                    17.353673
_cell_length_b                    24.226543
_cell_length_c                    14.917645
_cell_angle_alpha                 89.952287
_cell_angle_beta                  125.411384
_cell_angle_gamma                 90.009167
_cell_volume                      5111.48754957

loop_
_atom_site_label
_atom_site_type_symbol
_atom_type_description
_atom_site_fract_x
_atom_site_fract_y
_atom_site_fract_z
_atom_type_partial_charge
C1    C     C_R   0.809647 0.626711 0.906078 -0.135077
C2    C     C_R   0.927578 0.502599 0.629907 0.091612
C3    C     C_R   0.766934 0.046965 0.288556 -0.141264
C4    C     C_R   0.813291 0.372741 0.909806 -0.129367
C5    C     C_R   0.187990 0.374705 0.089324 -0.125597
C6    C     C_R   0.351069 0.849036 0.909558 -0.130094
C7    C     C_R   0.648414 0.848876 0.090812 -0.121715
C8    C     C_R   0.903473 0.630257 0.089603 -0.120700
C9    C     C_R   0.098998 0.624381 0.908250 -0.124223
C10   C     C_R   0.439543 0.152535 0.089847 -0.122486
C11   C     C_R   0.557740 0.153620 0.911131 -0.141800
C12   C     C_R   0.813444 0.641935 0.997741 0.054366
C13   C     C_R   0.562277 0.001567 0.366702 0.071057
C14   C     C_R   0.188894 0.637186 0.000143 0.054015
C15   C     C_R   0.378008 0.184285 0.997394 0.074920
C16   C     C_R   0.618399 0.185249 0.003670 0.082515
C17   C     C_R   0.548412 0.001649 0.723167 0.073535
C18   C     C_R   0.691674 0.500385 0.640402 0.033501
C19   C     C_R   0.309521 0.500297 0.358193 0.033199
C20   C     C_R   0.174718 0.000482 0.720190 0.029776
C21   C     C_R   0.820800 0.000415 0.338248 0.038008
C22   C     C_3   0.529308 0.500128 0.603576 -0.126634
C23   C     C_3   0.468678 0.454581 0.519086 -0.172013
C24   C     C_3   0.003562 0.954919 0.593077 -0.164759
C25   C     C_R   0.191346 0.624839 0.092552 -0.132290
C26   C     C_3   0.984679 0.954617 0.478338 -0.166007
C27   C     C_3   0.468511 0.545784 0.519323 -0.174678
C28   C     C_3   0.532828 0.454774 0.478489 -0.171502
C29   C     C_3   0.928114 0.000630 0.555342 -0.139841
C30   C     C_3   0.059184 0.999922 0.514145 -0.130881
C31   C     C_3   0.409664 0.500231 0.436431 0.194505
C32   C     C_3   0.591654 0.500310 0.561385 0.194500
C33   C     C_3   0.911509 0.000228 0.442665 0.185078
C34   C     C_3   0.076991 0.000322 0.627689 0.185801
C35   C     C_3   0.471952 0.500442 0.394172 -0.126913
C36   C     C_R   0.350497 0.152538 0.906814 -0.154855
C37   C     C_3   0.532637 0.545982 0.478715 -0.174556
C38   C     C_3   0.984992 0.045530 0.477459 -0.164061
C39   C     C_3   0.003826 0.046025 0.592139 -0.164430
C40   C     C_R   0.765149 0.310391 0.106651 0.167816
C41   C     C_R   0.234811 0.311988 0.892697 0.165030
C42   C     C_R   0.382991 0.736172 0.100905 0.142941
C43   C     C_R   0.614200 0.737271 0.897583 0.137557
C44   C     C_R   0.745480 0.330229 0.007040 0.035235
C45   C     C_R   0.256800 0.334157 0.991719 0.033265
C46   C     C_R   0.356885 0.759800 0.001641 0.043955
C47   C     C_R   0.647907 0.152737 0.093844 -0.148360
C48   C     C_R   0.638330 0.759156 0.997301 0.045940
C49   C     C_R   0.657185 0.317090 0.909652 -0.204438
C50   C     C_R   0.344120 0.319595 0.089383 -0.203347
C51   C     C_R   0.292399 0.731972 0.902568 -0.200279
C52   C     C_R   0.703172 0.731066 0.095748 -0.202047
C53   C     C_R   0.907219 0.371650 0.093255 -0.139776
C54   C     C_R   0.095884 0.377423 0.905414 -0.147946
C55   C     C_R   0.442100 0.849213 0.092779 -0.128868
C56   C     C_R   0.555671 0.848604 0.907684 -0.145267
C57   C     C_R   0.246043 0.685167 0.902532 -0.190456
C58   C     C_R   0.818506 0.357261 0.002887 0.070361
C59   C     C_R   0.753333 0.686578 0.095221 -0.188862
C60   C     C_R   0.604464 0.273487 0.909814 -0.204745
C61   C     C_R   0.393240 0.273467 0.090399 -0.202615
C62   C     C_R   0.263027 0.666149 0.001386 0.045249
C63   C     C_R   0.739266 0.670404 0.996391 0.048225
C64   C     C_R   0.640509 0.243588 0.007484 0.031370
C65   C     C_R   0.355247 0.242645 0.993441 0.033318
C66   C     C_R   0.336451 0.689472 0.100764 0.135632
C67   C     C_R   0.664684 0.693002 0.897119 0.133525
C68   C     C_R   0.712717 0.267769 0.106869 0.161262
C69   C     C_R   0.184399 0.362220 0.995859 0.071569
C70   C     C_R   0.283820 0.266958 0.893648 0.160430
C71   C     C_3   0.427356 0.661765 0.186258 -0.489629
C72   C     C_3   0.576456 0.663342 0.811016 -0.490641
C73   C     C_3   0.797199 0.242996 0.209209 -0.524297
C74   C     C_3   0.197223 0.242464 0.793539 -0.524319
C75   C     C_3   0.854558 0.289264 0.208668 -0.529719
C76   C     C_3   0.143373 0.291404 0.792723 -0.522839
C77   C     C_3   0.477800 0.712498 0.186675 -0.505436
C78   C     C_3   0.521620 0.711303 0.811687 -0.500227
C79   C     C_R   0.900136 0.555103 0.472178 0.160548
C80   C     C_R   0.380311 0.817428 0.001139 0.057932
C81   C     C_R   0.923467 0.554152 0.398546 0.165872
C82   C     C_R   0.600304 0.053432 0.622829 0.164632
C83   C     C_R   0.603341 0.053151 0.532507 0.154329
C84   C     C_R   0.894188 0.505280 0.515816 0.026799
C85   C     C_R   0.941820 0.503826 0.368687 0.042335
C86   C     C_R   0.594499 0.003647 0.666646 0.034369
C87   C     C_R   0.599632 0.003220 0.483102 0.030117
C88   C     C_R   0.882445 0.456136 0.459138 -0.209350
C89   C     C_R   0.907740 0.455264 0.385944 -0.199844
C90   C     C_R   0.617314 0.954597 0.636375 -0.201372
C91   C     C_R   0.616907 0.816840 0.999157 0.059915
C92   C     C_R   0.619460 0.954316 0.543994 -0.208539
C93   C     C_3   0.981487 0.605509 0.443669 -0.531718
C94   C     C_3   0.957542 0.606583 0.525655 -0.523461
C95   C     C_3   0.543304 0.103820 0.484851 -0.517447
C96   C     C_3   0.539202 0.104058 0.582930 -0.524089
C97   C     C_R   0.010968 0.547341 0.278571 -0.141654
C98   C     C_R   0.944635 0.547330 0.694880 -0.162619
C99   C     C_R   0.548007 0.047019 0.302839 -0.144864
C100  C     C_R   0.520715 0.047206 0.753726 -0.149329
C101  C     C_R   0.741073 0.454616 0.699744 -0.145390
C102  C     C_R   0.992408 0.502140 0.318631 0.068949
C103  C     C_R   0.259610 0.454535 0.299544 -0.146318
C104  C     C_R   0.231057 0.954355 0.748292 -0.134064
C105  C     C_R   0.766278 0.954144 0.287869 -0.139321
C106  C     C_R   0.012126 0.455675 0.281671 -0.134129
C107  C     C_R   0.946231 0.455950 0.692882 -0.138254
C108  C     C_R   0.547375 0.955194 0.304104 -0.123726
C109  C     C_R   0.516982 0.954963 0.747832 -0.127036
C110  C     C_R   0.740668 0.546417 0.698483 -0.144519
C111  C     C_R   0.259950 0.546385 0.300812 -0.145890
C112  C     C_R   0.230369 0.046839 0.747828 -0.134496
H1    H     H_    0.750934 0.631919 0.821226 0.100016
H2    H     H_    0.561608 0.582804 0.463454 0.109572
H3    H     H_    0.975531 0.082288 0.427490 0.111772
H4    H     H_    0.014100 0.083070 0.641706 0.111381
H5    H     H_    0.634417 0.335066 0.831529 0.125179
H6    H     H_    0.368300 0.338696 0.167049 0.125157
H7    H     H_    0.271877 0.748246 0.824148 0.120669
H8    H     H_    0.721557 0.746010 0.174134 0.119094
H9    H     H_    0.191077 0.667397 0.824212 0.122146
H10   H     H_    0.808236 0.668332 0.173118 0.119819
H11   H     H_    0.543620 0.259146 0.831658 0.123698
H12   H     H_    0.250059 0.630804 0.177136 0.099498
H13   H     H_    0.453354 0.258678 0.168754 0.122745
H14   H     H_    0.441569 0.624309 0.154894 0.199935
H15   H     H_    0.565679 0.624234 0.841532 0.200221
H16   H     H_    0.818471 0.202194 0.195994 0.202523
H17   H     H_    0.174880 0.202978 0.810142 0.200636
H18   H     H_    0.434375 0.655651 0.264569 0.182004
H19   H     H_    0.569915 0.659407 0.732612 0.181475
H20   H     H_    0.791968 0.245037 0.279975 0.187907
H21   H     H_    0.201253 0.241823 0.721832 0.188544
H22   H     H_    0.906975 0.273912 0.194308 0.199837
H23   H     H_    0.317320 0.166867 0.823551 0.099962
H24   H     H_    0.090793 0.279301 0.809133 0.200125
H25   H     H_    0.521789 0.704822 0.155753 0.202487
H26   H     H_    0.478734 0.700419 0.842780 0.202752
H27   H     H_    0.882990 0.317736 0.279629 0.186136
H28   H     H_    0.115918 0.318686 0.720176 0.191289
H29   H     H_    0.513902 0.735906 0.265152 0.181064
H30   H     H_    0.483079 0.735172 0.733563 0.181336
H31   H     H_    0.868787 0.417211 0.483016 0.124791
H32   H     H_    0.910075 0.415979 0.353225 0.121979
H33   H     H_    0.621088 0.915510 0.673840 0.126512
H34   H     H_    0.680559 0.166347 0.177371 0.097588
H35   H     H_    0.624978 0.915003 0.513882 0.123711
H36   H     H_    0.949566 0.640416 0.384315 0.185828
H37   H     H_    0.021660 0.600380 0.610823 0.198784
H38   H     H_    0.473119 0.096029 0.406384 0.204281
H39   H     H_    0.575861 0.140159 0.637744 0.190723
H40   H     H_    0.936170 0.363743 0.177238 0.101174
H41   H     H_    0.069843 0.376123 0.820141 0.111440
H42   H     H_    0.487001 0.835112 0.177098 0.092300
H43   H     H_    0.509082 0.834100 0.823866 0.093836
H44   H     H_    0.058073 0.598293 0.482891 0.198796
H45   H     H_    0.556329 0.500049 0.691703 0.115600
H46   H     H_    0.912888 0.642496 0.514555 0.188879
H47   H     H_    0.582947 0.139553 0.483729 0.185936
H48   H     H_    0.466446 0.096311 0.559238 0.200169
H49   H     H_    0.016140 0.589582 0.302196 0.096432
H50   H     H_    0.920789 0.589161 0.667993 0.102321
H51   H     H_    0.568658 0.089094 0.330219 0.098817
H52   H     H_    0.536691 0.089895 0.751745 0.112114
H53   H     H_    0.724123 0.412048 0.673803 0.088573
H54   H     H_    0.276884 0.411950 0.325403 0.090446
H55   H     H_    0.208516 0.911795 0.729505 0.098402
H56   H     H_    0.439630 0.417765 0.534237 0.108149
H57   H     H_    0.783701 0.911744 0.315300 0.091871
H58   H     H_    0.019778 0.414266 0.312028 0.083428
H59   H     H_    0.927828 0.413897 0.663877 0.083378
H60   H     H_    0.564582 0.912949 0.332333 0.083004
H61   H     H_    0.526625 0.912284 0.735737 0.093330
H62   H     H_    0.723557 0.588831 0.671265 0.087923
H63   H     H_    0.277347 0.588789 0.327853 0.089833
H64   H     H_    0.207464 0.089375 0.729070 0.098696
H65   H     H_    0.784779 0.089279 0.316337 0.093231
H66   H     H_    0.754680 0.366978 0.825148 0.091220
H67   H     H_    0.013629 0.918220 0.643432 0.111513
H68   H     H_    0.246419 0.368029 0.173758 0.091532
H69   H     H_    0.312971 0.835140 0.825370 0.082563
H70   H     H_    0.687676 0.835327 0.175386 0.080963
H71   H     H_    0.932572 0.643044 0.172199 0.084454
H72   H     H_    0.071894 0.629083 0.822780 0.092471
H73   H     H_    0.484379 0.166623 0.174057 0.082350
H74   H     H_    0.511212 0.168365 0.827522 0.083748
H75   H     H_    0.439454 0.582454 0.534819 0.110469
H76   H     H_    0.562079 0.418135 0.463195 0.107411
H77   H     H_    0.871131 0.000910 0.568128 0.114932
H78   H     H_    0.974949 0.917541 0.429079 0.110533
H79   H     H_    0.115065 0.999642 0.499484 0.115165
H80   H     H_    0.444854 0.500615 0.306022 0.115392
N1    N     N_R   0.892620 0.603790 0.941770 -0.042213
N2    N     N_R   0.973690 0.529110 0.793240 -0.036743
N3    N     N_R   0.526310 0.029110 0.206760 -0.039405
N4    N     N_R   0.473690 0.029110 0.793240 -0.042437
N5    N     N_R   0.818570 0.472310 0.793020 -0.034495
N6    N     N_R   0.181430 0.472310 0.206980 -0.036137
N7    N     N_R   0.318570 0.972310 0.793020 -0.041407
N8    N     N_R   0.681430 0.972310 0.206980 -0.037133
N9    N     N_R   0.026930 0.472300 0.207330 -0.036096
N10   N     N_R   0.973070 0.472300 0.792670 -0.037368
N11   N     N_R   0.526930 0.972300 0.207330 -0.039862
N12   N     N_R   0.107380 0.603790 0.058230 -0.042784
N13   N     N_R   0.473070 0.972300 0.792670 -0.042233
N14   N     N_R   0.817960 0.529130 0.792460 -0.034463
N15   N     N_R   0.182040 0.529130 0.207540 -0.035997
N16   N     N_R   0.317960 0.029130 0.792460 -0.040987
N17   N     N_R   0.682040 0.029130 0.207540 -0.036579
N18   N     N_R   0.894850 0.397640 0.943830 -0.041112
N19   N     N_R   0.105150 0.397640 0.056170 -0.041684
N20   N     N_R   0.394850 0.897640 0.943830 -0.036916
N21   N     N_R   0.605150 0.897640 0.056170 -0.037724
N22   N     N_R   0.950040 0.603780 0.055950 -0.041601
N23   N     N_R   0.392620 0.103790 0.941770 -0.036351
N24   N     N_R   0.049960 0.603780 0.944050 -0.042630
N25   N     N_R   0.450040 0.103780 0.055950 -0.038115
N26   N     N_R   0.549960 0.103780 0.944050 -0.037591
N27   N     N_R   0.607380 0.103790 0.058230 -0.036789
N28   N     N_R   0.952270 0.397640 0.058010 -0.040914
N29   N     N_R   0.047730 0.397640 0.941990 -0.041876
N30   N     N_R   0.452270 0.897640 0.058010 -0.038727
N31   N     N_R   0.547730 0.897640 0.941990 -0.037587
N32   N     N_R   0.026310 0.529110 0.206760 -0.036702
Ni1   Ni    Ni4+2 0.934160 0.565860 0.869070 0.207968
Ni2   Ni    Ni4+2 0.065840 0.565860 0.130930 0.211664
Ni3   Ni    Ni4+2 0.434160 0.065860 0.869070 0.204728
Ni4   Ni    Ni4+2 0.565840 0.065860 0.130930 0.204288
Ni5   Ni    Ni4+2 0.067260 0.435560 0.132230 0.211677
Ni6   Ni    Ni4+2 0.932740 0.435560 0.867770 0.207906
Ni7   Ni    Ni4+2 0.567260 0.935560 0.132230 0.204983
Ni8   Ni    Ni4+2 0.432740 0.935560 0.867770 0.205892

loop_
_geom_bond_atom_site_label_1
_geom_bond_atom_site_label_2
_ccdc_geom_bond_type
C44   C49   A    
C3    N17   A    
C55   H42   S    
C83   C87   A    
C35   H80   S    
C38   H3    S    
C29   C33   S    
C11   H74   S    
C73   C75   S    
N26   Ni3   S    
C111  N15   A    
C2    C84   S    
C95   C96   S    
C9    C14   A    
C25   N12   A    
C19   C31   S    
C54   H41   S    
C76   H24   S    
N6    Ni5   S    
N18   N28   A    
C57   C62   A    
C107  H59   S    
N5    Ni6   S    
C94   H37   S    
C54   C69   A    
C98   N2    A    
C93   C94   S    
C49   C60   A    
C105  H57   S    
N3    Ni4   S    
C111  H63   S    
C64   C68   A    
N2    Ni1   S    
C18   C32   S    
C35   C37   S    
C24   C26   S    
C108  N11   A    
C8    N22   A    
C10   C15   A    
C78   H30   S    
C36   N23   A    
C38   C39   S    
N20   Ni8   S    
C109  H61   S    
N3    N11   A    
C65   C70   A    
C14   C62   S    
C74   H21   S    
C99   N3    A    
C2    C107  A    
C10   H73   S    
C4    N18   A    
C30   C38   S    
C93   H36   S    
C67   C72   S    
C42   C46   A    
N4    N13   A    
C24   C29   S    
C5    C69   A    
N15   Ni2   S    
C20   C112  A    
C19   C103  A    
C105  N8    A    
C49   H5    S    
C101  H53   S    
C28   C35   S    
C44   C58   S    
C56   C91   A    
C48   C91   S    
N29   Ni6   S    
C70   C74   S    
C53   H40   S    
C51   H7    S    
C71   H14   S    
C51   C57   A    
N8    Ni7   S    
N27   Ni4   S    
C43   C48   A    
C88   H31   S    
N23   Ni3   S    
C97   C102  A    
N21   Ni7   S    
C81   C85   A    
N10   Ni6   S    
C20   C34   S    
C53   N28   A    
N9    Ni5   S    
C79   C94   S    
N4    Ni3   S    
C83   C95   S    
C94   H46   S    
C87   C92   A    
C92   H35   S    
C106  H58   S    
C29   C39   S    
N5    N14   A    
C1    C12   A    
C1    H1    S    
C106  N9    A    
C24   H67   S    
C13   C108  A    
C78   H26   S    
C16   C47   A    
C98   H50   S    
C22   H45   S    
C100  N4    A    
C9    N24   A    
C26   H78   S    
C103  H54   S    
C5    N19   A    
C63   C67   A    
C75   H22   S    
C82   C96   S    
C62   C66   A    
C72   H15   S    
C45   C69   S    
C34   C39   S    
C84   C88   A    
C28   C32   S    
C112  N16   A    
C107  N10   A    
C110  N14   A    
C86   C90   A    
C4    H66   S    
C79   C81   A    
C12   C63   S    
C30   C34   S    
C54   N29   A    
N20   N30   A    
C37   H2    S    
C6    H69   S    
C68   C73   S    
C82   C86   A    
C96   H39   S    
C47   N27   A    
C46   C51   A    
C24   C34   S    
C17   C86   S    
N32   Ni2   S    
C43   C78   S    
C103  N6    A    
C23   C31   S    
C13   C99   A    
C60   H11   S    
C1    N1    A    
N7    Ni8   S    
N1    N22   A    
C5    H68   S    
C52   C59   A    
N19   N29   A    
C81   C93   S    
C11   C16   A    
C26   C33   S    
C90   C92   A    
C66   C71   S    
C40   C44   A    
C8    C12   A    
C7    C91   A    
C13   C87   S    
N14   Ni1   S    
N18   Ni6   S    
C100  H52   S    
C95   H38   S    
C27   H75   S    
C32   C37   S    
C109  N13   A    
C11   N26   A    
C30   H79   S    
C25   H12   S    
C7    N21   A    
C22   C32   S    
C56   H43   S    
C55   N30   A    
C99   H51   S    
N28   Ni5   S    
C8    H71   S    
C112  H64   S    
N30   Ni7   S    
C26   C30   S    
C97   H49   S    
C22   C27   S    
C108  H60   S    
C27   C31   S    
N17   Ni4   S    
C6    C80   A    
C104  N7    A    
C95   H47   S    
C3    C21   A    
C23   C28   S    
C74   C76   S    
C76   H28   S    
N12   Ni2   S    
C73   H16   S    
C36   H23   S    
C52   H8    S    
C15   C36   A    
C71   C77   S    
N31   Ni8   S    
C72   H19   S    
C42   C66   A    
C2    C98   A    
C85   C89   A    
N19   Ni5   S    
C7    H70   S    
C96   H48   S    
N6    N15   A    
C50   H6    S    
C93   H44   S    
C18   C110  A    
C77   H25   S    
N13   Ni8   S    
C17   C109  A    
C56   N31   A    
C61   H13   S    
C53   C58   A    
C40   C75   S    
C4    C58   A    
C20   C104  A    
N24   Ni1   S    
C19   C111  A    
C90   H33   S    
C89   H32   S    
N12   N24   A    
N2    N10   A    
C59   C63   A    
N8    N17   A    
C97   N32   A    
C60   C64   A    
C21   C33   S    
N23   N25   A    
C3    H65   S    
N1    Ni1   S    
N16   Ni3   S    
C9    H72   S    
C75   H27   S    
C104  H55   S    
C46   C80   S    
C55   C80   A    
N21   N31   A    
N26   N27   A    
C79   C84   A    
C110  H62   S    
C45   C50   A    
C27   C37   S    
C31   C35   S    
N7    N16   A    
C28   H76   S    
N11   Ni7   S    
C102  C106  A    
C101  N5    A    
C14   C25   A    
N22   Ni2   S    
C17   C100  A    
C77   H29   S    
C47   H34   S    
N25   Ni4   S    
C57   H9    S    
C23   H56   S    
C61   C65   A    
C71   H18   S    
C48   C52   A    
C6    N20   A    
C88   C89   A    
C29   H77   S    
C42   C77   S    
C43   C67   A    
C82   C83   A    
C40   C68   A    
C74   H17   S    
C72   C78   S    
C39   H4    S    
C50   C61   A    
C41   C45   A    
C22   C23   S    
C33   C38   S    
C73   H20   S    
C16   C64   S    
N9    N32   A    
C18   C101  A    
C59   H10   S    
C21   C105  A    
C85   C102  S    
C10   N25   A    
C41   C70   A    
C41   C76   S    
C15   C65   S    
