data_mof_unit_49845.cif
_audit_creation_date              2013-03-05T15:43:30-0500
_audit_creation_method            fapswitch 2.2
_symmetry_space_group_name_H-M    P1
_symmetry_Int_Tables_number       1
_space_group_crystal_system       triclinic
_cell_length_a                    14.522526
_cell_length_b                    16.023198
_cell_length_c                    6.949
_cell_angle_alpha                 89.968243
_cell_angle_beta                  80.973511
_cell_angle_gamma                 89.979896
_cell_volume                      1596.98806338

loop_
_atom_site_label
_atom_site_type_symbol
_atom_site_description
_atom_site_fract_x
_atom_site_fract_y
_atom_site_fract_z
_atom_type_partial_charge
O1    O     O_R   0.337460 0.413110 0.524760 -0.610061
O2    O     O_R   0.662540 0.913110 0.475240 -0.611495
O3    O     O_R   0.348690 0.587910 0.191230 -0.556474
O4    O     O_R   0.651310 0.087910 0.808770 -0.554922
O5    O     O_R   0.166530 0.586890 0.082470 -0.487491
O6    O     O_R   0.833470 0.086890 0.917530 -0.475346
C1    C     C_R   0.370834 0.616367 0.353378 0.892933
C2    C     C_R   0.629053 0.116262 0.646619 0.893233
O7    O     O_R   0.348700 0.413830 0.191250 -0.531094
O8    O     O_R   0.651300 0.913830 0.808750 -0.525789
O9    O     O_R   0.166530 0.411570 0.082490 -0.543370
O10   O     O_R   0.833470 0.911570 0.917510 -0.554622
C3    C     C_R   0.371000 0.385387 0.353235 0.792718
C4    C     C_R   0.629125 0.885278 0.646770 0.806415
O11   O     O_R   0.337460 0.588430 0.524740 -0.576450
O12   O     O_R   0.662540 0.088430 0.475260 -0.577223
O13   O     O_3   0.192230 0.499460 0.407330 -0.198913
O14   O     O_3   0.807770 0.999460 0.592670 -0.200852
V1    V     V_3+5 0.263080 0.500100 0.108540 1.350740
V2    V     V_3+5 0.736920 0.000100 0.891460 1.353817
O15   O     O_R   0.155290 0.412090 0.756570 -0.491625
O16   O     O_R   0.844710 0.912090 0.243430 -0.490772
C5    C     C_R   0.131248 0.384379 0.933773 1.050058
C6    C     C_R   0.867570 0.883318 0.067271 1.044967
O17   O     O_R   0.155290 0.586170 0.756550 -0.507898
O18   O     O_R   0.844710 0.086170 0.243450 -0.503073
C7    C     C_R   0.134018 0.616285 0.932369 1.038077
C8    C     C_R   0.865165 0.116982 0.068373 1.032694
V3    V     V_3+5 0.240910 0.499900 0.616030 1.371107
V4    V     V_3+5 0.759090 0.999900 0.383970 1.373387
O19   O     O_3   0.311760 0.500540 0.867100 -0.322639
O20   O     O_3   0.688240 0.000540 0.132900 -0.323028
C9    C     C_3   0.060893 0.726294 0.176540 1.022930
C10   C     C_3   0.907677 0.252991 0.882686 0.979938
C11   C     C_3   0.997606 0.805245 0.203792 1.053049
C12   C     C_3   0.974504 0.330073 0.860174 1.062587
C13   C     C_3   0.963297 0.655575 0.954168 0.453741
C14   C     C_3   0.034343 0.154865 0.954562 0.461724
C15   C     C_3   0.086062 0.758489 0.808416 0.604938
C16   C     C_3   0.942554 0.237299 0.230054 0.624739
C17   C     C_3   0.063788 0.688079 0.967393 -0.648230
C18   C     C_3   0.934890 0.189431 0.035438 -0.647712
C19   C     C_3   0.938868 0.812359 0.033175 -0.636785
C20   C     C_3   0.059531 0.313927 0.969640 -0.653781
C21   C     C_3   0.888855 0.725542 0.017414 0.612505
C22   C     C_3   0.105114 0.228008 0.896572 0.619044
C23   C     C_3   0.009855 0.828654 0.843004 0.364781
C24   C     C_3   0.019053 0.306868 0.191883 0.383379
H1    H     H_    0.971291 0.829728 0.717764 0.213208
H2    H     H_    0.076121 0.291221 0.274473 0.203895
H3    H     H_    0.960707 0.635153 0.802370 0.179933
H4    H     H_    0.057978 0.114742 0.067810 0.165461
H5    H     H_    0.565461 0.807230 0.353154 0.103734
H6    H     H_    0.436261 0.308528 0.646520 0.110331
H7    H     H_    0.435201 0.692679 0.647711 0.173528
H8    H     H_    0.566559 0.194073 0.351966 0.172244
C25   C     C_2   0.440190 0.684105 0.342928 -0.149022
C26   C     C_2   0.560080 0.184289 0.656933 -0.149188
C27   C     C_2   0.465719 0.716392 0.505396 0.012429
C28   C     C_2   0.535495 0.217329 0.494307 -0.001475
C29   C     C_2   0.559709 0.817522 0.658466 0.508590
C30   C     C_2   0.440657 0.317832 0.341437 0.501080
C31   C     C_2   0.534688 0.784273 0.496099 -0.076144
C32   C     C_2   0.466498 0.285184 0.503648 -0.069604
H9    H     H_    0.470567 0.708004 0.200708 0.164384
H10   H     H_    0.529176 0.207753 0.799176 0.167192
F1    F     F_    0.025618 0.666801 0.313925 -0.497947
F2    F     F_    0.914307 0.213159 0.705635 -0.503292
N1    N     N_R   0.819645 0.728861 0.883776 0.085287
O21   O     O_R   0.731042 0.726164 0.952948 -0.248143
O22   O     O_R   0.844982 0.730170 0.695937 -0.256273
N2    N     N_R   0.193024 0.212860 0.972173 0.078922
O23   O     O_R   0.272145 0.216413 0.854808 -0.269199
O24   O     O_R   0.193462 0.192207 0.153235 -0.307110
F3    F     F_    0.521365 0.788606 0.837440 -0.673859
F4    F     F_    0.478299 0.288421 0.162522 -0.675581
F5    F     F_    0.149657 0.745862 0.212031 -0.578045
F6    F     F_    0.815724 0.278215 0.931229 -0.601198
F7    F     F_    0.051422 0.876317 0.211221 -0.545115
F8    F     F_    0.926750 0.401030 0.933488 -0.522355
F9    F     F_    0.939834 0.799841 0.381446 -0.566293
F10   F     F_    0.004523 0.344798 0.663635 -0.537778
F11   F     F_    0.942924 0.584939 0.068667 -0.481739
F12   F     F_    0.031567 0.102965 0.795675 -0.480446
F13   F     F_    0.841355 0.705050 0.201028 -0.518475
F14   F     F_    0.125820 0.230652 0.694248 -0.526803
F15   F     F_    0.080441 0.723682 0.628009 -0.582374
F16   F     F_    0.972742 0.180684 0.358063 -0.553388
N3    N     N_R   0.181336 0.791822 0.799580 0.165009
O25   O     O_R   0.244936 0.773116 0.652287 -0.256880
O26   O     O_R   0.202427 0.844467 0.928307 -0.167103
N4    N     N_R   0.851166 0.270966 0.321444 0.184123
O27   O     O_R   0.798818 0.228427 0.455758 -0.238330
O28   O     O_R   0.819570 0.341924 0.267901 -0.145229
F17   F     F_    0.048902 0.907571 0.846078 -0.529512
F18   F     F_    0.986562 0.383766 0.265403 -0.495305

loop_
_geom_bond_atom_site_label_1
_geom_bond_atom_site_label_2
_geom_bond_distance
_ccdc_geom_bond_type
H7    C27   1.086729 S    
O13   V3    1.710207 S    
C10   C18   1.565330 S    
C15   F15   1.386458 S    
O4    C2    1.301582 A    
V1    O19   1.715386 S    
C11   F9    1.382161 S    
C23   H1    1.106467 S    
C29   F3    1.361524 S    
O9    V1    2.022956 S    
C14   C18   1.566442 S    
O3    C1    1.302042 A    
C13   H3    1.110869 S    
C25   C27   1.346042 D    
C14   H4    1.111069 S    
C26   C28   1.345598 D    
C29   C31   1.348460 D    
O9    C5    1.298909 A    
N1    O22   1.299573 A    
O7    C3    1.301287 A    
C30   C32   1.347968 D    
C2    C26   1.474246 S    
O5    C7    1.298675 A    
C26   H10   1.086692 S    
O6    C8    1.302002 A    
C3    C30   1.474807 S    
O8    V2    2.003391 S    
O3    V1    2.020357 S    
O14   V4    1.710198 S    
N3    O26   1.300981 A    
C11   C19   1.569544 S    
C22   N2    1.474762 S    
C16   C18   1.574186 S    
C2    O12   1.293079 A    
C8    C18   1.533991 S    
C30   F4    1.361570 S    
N4    O28   1.301706 A    
O7    V1    2.002348 S    
O11   V3    2.025334 S    
O17   V3    2.007414 S    
C21   N1    1.472507 S    
N2    O24   1.301794 A    
C12   F8    1.386513 S    
C10   F2    1.376217 S    
C1    O11   1.292962 A    
C20   C22   1.576703 S    
C4    C29   1.475302 S    
O15   V3    2.024393 S    
C5    C20   1.529786 S    
H8    C28   1.086749 S    
C21   F13   1.391110 S    
C7    C17   1.531155 S    
O10   V2    2.022124 S    
O1    V3    2.005681 S    
C16   N4    1.480260 S    
C19   C21   1.581290 S    
O18   V4    2.007268 S    
C19   C23   1.565131 S    
O15   C5    1.303827 A    
O8    C4    1.301682 A    
O16   C6    1.301629 A    
C12   C20   1.569902 S    
O1    C3    1.293648 A    
C13   C21   1.571418 S    
C9    F1    1.388685 S    
C15   C23   1.569259 S    
V2    O20   1.715391 S    
C16   C24   1.566921 S    
C24   F18   1.387997 S    
C14   F12   1.388258 S    
C27   C31   1.473362 S    
C25   H9    1.086671 S    
N2    O23   1.301777 A    
O5    V1    2.002702 S    
O17   C7    1.305031 A    
O6    V2    2.003525 S    
O10   C6    1.301632 A    
O18   C8    1.303136 A    
O2    V4    2.005877 S    
C28   C32   1.472846 S    
C9    C17   1.571866 S    
C16   F16   1.388379 S    
V3    O19   2.160096 S    
O16   V4    2.024540 S    
C10   F6    1.385217 S    
V4    O20   2.160086 S    
H5    C31   1.087253 S    
C9    C11   1.557486 S    
C9    F5    1.385996 S    
H6    C32   1.087157 S    
C24   H2    1.108159 S    
N4    O27   1.300261 A    
O13   V1    2.167813 S    
C10   C12   1.563581 S    
C15   N3    1.475550 S    
O14   V2    2.167819 S    
C13   C17   1.565938 S    
N1    O21   1.301741 A    
O2    C4    1.293522 A    
C14   C22   1.569269 S    
O4    V2    2.019305 S    
C15   C17   1.576263 S    
C6    C19   1.530845 S    
C23   F17   1.387562 S    
C13   F11   1.388147 S    
C11   F7    1.386973 S    
C12   F10   1.387039 S    
N3    O25   1.301555 A    
O12   V4    2.025139 S    
C1    C25   1.474978 S    
C20   C24   1.567928 S    
C22   F14   1.391474 S    
