data_mof_unit_17852.cif
_audit_creation_date              2012-12-10T17:20:34-0500
_audit_creation_method            fapswitch 2.2
_symmetry_space_group_name_H-M    P1
_symmetry_Int_Tables_number       1
_space_group_crystal_system       triclinic
_cell_length_a                    10.160056
_cell_length_b                    10.747375
_cell_length_c                    13.662783
_cell_angle_alpha                 92.322088
_cell_angle_beta                  76.243549
_cell_angle_gamma                 96.039641
_cell_volume                      1440.86956371

loop_
_atom_site_label
_atom_site_type_symbol
_atom_type_description
_atom_site_fract_x
_atom_site_fract_y
_atom_site_fract_z
_atom_type_partial_charge
C1    C     C_R   0.556815 0.733012 0.497148 0.932438
C2    C     C_2   0.073347 0.473738 0.498966 0.365294
C3    C     C_1   0.454004 0.514268 0.880742 -0.039757
C4    C     C_1   0.553655 0.509405 0.119877 -0.079118
C5    C     C_2   0.588023 0.866272 0.507126 -0.368139
C6    C     C_2   0.408699 0.135354 0.529456 -0.389111
C7    C     C_2   0.484716 0.935133 0.543098 -0.150170
C8    C     C_2   0.507869 0.068514 0.539893 -0.145061
C9    C     C_3   0.259179 0.620824 0.056611 0.075022
C10   C     C_3   0.318224 0.724302 0.119392 -0.366623
C11   C     C_3   0.240100 0.839742 0.130677 -0.948068
C12   C     C_R   0.442444 0.267319 0.510622 0.919406
C13   C     C_3   0.802948 0.568923 0.982336 0.063827
C14   C     C_3   0.809524 0.711497 0.997965 -0.352043
C15   C     C_3   0.934975 0.761556 0.035629 -0.969620
C16   C     C_3   0.077147 0.264945 0.454760 0.069610
C17   C     C_3   0.147164 0.173130 0.375934 -0.289270
C18   C     C_3   0.088718 0.038236 0.400786 -0.988903
C19   C     C_3   0.879117 0.448294 0.697092 0.057396
C20   C     C_3   0.793600 0.320652 0.706953 -0.308430
C21   C     C_3   0.826570 0.241457 0.786550 -0.960084
C22   C     C_R   0.478269 0.503583 0.687775 0.890239
C23   C     C_R   0.521782 0.496748 0.312411 0.908388
C24   C     C_1   0.538494 0.502273 0.208175 -0.187240
C25   C     C_1   0.464675 0.508907 0.792332 -0.194600
C26   C     C_2   0.565312 0.519551 0.014574 0.393910
C27   C     C_2   0.448603 0.519909 0.985522 0.402603
C28   C     C_2   0.919705 0.479041 0.525817 0.365428
H1    H     H_    0.107579 0.616983 0.590769 0.135249
H2    H     H_    0.426562 0.752029 0.082340 0.199814
H3    H     H_    0.239706 0.875110 0.055480 0.270532
H4    H     H_    0.289826 0.914642 0.171854 0.266865
H5    H     H_    0.133649 0.816938 0.174111 0.268657
H6    H     H_    0.896539 0.546913 0.926325 0.151321
H7    H     H_    0.805919 0.520207 0.051981 0.151196
H8    H     H_    0.813018 0.756412 0.925403 0.231168
H9    H     H_    0.717320 0.737177 0.053861 0.209429
H10   H     H_    0.932173 0.718763 0.108831 0.263391
H11   H     H_    0.936896 0.864608 0.046577 0.273359
H12   H     H_    0.899728 0.424287 0.388788 0.144691
H13   H     H_    0.029133 0.740250 0.979862 0.258372
H14   H     H_    0.966438 0.250564 0.457763 0.103867
H15   H     H_    0.093361 0.243107 0.529829 0.146279
H16   H     H_    0.132729 0.195690 0.300711 0.229921
H17   H     H_    0.258167 0.182524 0.372066 0.223636
H18   H     H_    0.099404 0.013715 0.476498 0.260613
H19   H     H_    0.144394 0.973675 0.344137 0.273676
H20   H     H_    0.979265 0.025455 0.399292 0.265574
H21   H     H_    0.848928 0.500841 0.768733 0.212347
H22   H     H_    0.988476 0.435652 0.688401 0.098389
H23   H     H_    0.611001 0.110714 0.536597 0.183163
H24   H     H_    0.683734 0.334290 0.729183 0.247616
H25   H     H_    0.813721 0.268782 0.633804 0.187105
H26   H     H_    0.935314 0.222856 0.765046 0.257025
H27   H     H_    0.762349 0.150581 0.792872 0.265809
H28   H     H_    0.805544 0.290271 0.861063 0.287421
H29   H     H_    0.379902 0.893676 0.566510 0.187954
H30   H     H_    0.305977 0.092587 0.533052 0.152858
H31   H     H_    0.692573 0.908157 0.483665 0.149540
H32   H     H_    0.149511 0.598393 0.092581 0.178119
H33   H     H_    0.264087 0.654365 0.979544 0.126109
H34   H     H_    0.313585 0.688493 0.195469 0.247388
N1    N     N_2   0.847200 0.448220 0.460120 -0.223471
N2    N     N_2   0.152800 0.551780 0.539880 -0.219147
O1    O     O_R   0.430150 0.692610 0.508030 -0.617771
O2    O     O_3   0.689575 0.523463 0.942856 -0.682958
O3    O     O_3   0.132503 0.388469 0.426984 -0.601988
O4    O     O_3   0.854735 0.521510 0.620307 -0.610219
O5    O     O_R   0.569850 0.307390 0.491970 -0.618656
O6    O     O_R   0.653100 0.659360 0.482430 -0.589380
O7    O     O_R   0.346900 0.340640 0.517570 -0.588674
O8    O     O_R   0.372470 0.518990 0.654990 -0.626720
O9    O     O_R   0.627530 0.481010 0.345010 -0.622247
O10   O     O_R   0.595430 0.485740 0.629390 -0.550558
O11   O     O_R   0.404570 0.514260 0.370610 -0.550843
O12   O     O_3   0.323686 0.510048 0.055239 -0.651284
Zn1   Zn    Zn3+2 0.351130 0.522200 0.517090 0.968151
Zn2   Zn    Zn3+2 0.648870 0.477800 0.482910 0.969991

loop_
_geom_bond_atom_site_label_1
_geom_bond_atom_site_label_2
_ccdc_geom_bond_type
C13   H6    S    
C21   H28   S    
C1    O1    A    
C23   C24   S    
C15   H10   S    
C19   O4    S    
O8    Zn1   S    
C9    O12   S    
C16   H14   S    
O6    Zn2   S    
N2    Zn1   S    
C10   H2    S    
C4    C26   S    
C1    O6    A    
C8    H23   S    
C11   H5    S    
C12   O5    A    
C9    H32   S    
C18   H19   S    
C3    C27   S    
C17   C18   S    
O5    Zn2   S    
C17   H16   S    
C11   H3    S    
C7    C8    S    
C20   H24   S    
C16   O3    S    
C13   C14   S    
N1    Zn2   S    
C14   H9    S    
C14   H8    S    
O11   Zn1   S    
C16   H15   S    
C15   H11   S    
C26   C27   D    
C10   H34   S    
H12   N1    S    
C23   O9    A    
C1    C5    S    
C18   H18   S    
C22   O8    A    
C28   O4    S    
C12   O7    A    
C2    N2    D    
C11   H4    S    
C13   H7    S    
C13   O2    S    
C6    C8    D    
C6    C12   S    
C21   H26   S    
C4    C24   T    
C9    H33   S    
C19   H21   S    
H1    N2    S    
O1    Zn1   S    
C10   C11   S    
C5    H31   S    
C27   O12   S    
C26   O2    S    
C28   N1    D    
C19   H22   S    
O7    Zn1   S    
C3    C25   T    
C20   C21   S    
C15   H13   S    
C5    C7    D    
C2    O3    S    
C9    C10   S    
C23   O11   A    
C21   H27   S    
C22   O10   A    
C14   C15   S    
C20   H25   S    
C2    C28   S    
O9    Zn2   S    
O10   Zn2   S    
C7    H29   S    
C19   C20   S    
C17   H17   S    
C16   C17   S    
C6    H30   S    
C22   C25   S    
C18   H20   S    
