data_mof_unit_13797.cif
_audit_creation_date              2012-10-26T20:50:20-0400
_audit_creation_method            fapswitch 2.2
_symmetry_space_group_name_H-M    P1
_symmetry_Int_Tables_number       1
_space_group_crystal_system       triclinic
_cell_length_a                    19.344495
_cell_length_b                    18.142684
_cell_length_c                    10.826336
_cell_angle_alpha                 90.079378
_cell_angle_beta                  89.252968
_cell_angle_gamma                 89.285275
_cell_volume                      3798.99925518

loop_
_atom_site_label
_atom_site_type_symbol
_atom_type_description
_atom_site_fract_x
_atom_site_fract_y
_atom_site_fract_z
_atom_type_partial_charge
C1    C     C_R   0.367145 0.500281 0.494060 0.521723
C2    C     C_R   0.036116 0.562369 0.473352 -0.097080
C3    C     C_R   0.071511 0.516949 0.556771 0.100105
C4    C     C_R   0.927240 0.518258 0.553768 0.087643
C5    C     C_R   0.034177 0.476089 0.644278 -0.091648
C6    C     C_R   0.962181 0.475547 0.641142 -0.103416
C7    C     C_R   0.461052 0.721614 0.585137 0.031058
C8    C     C_R   0.537675 0.720296 0.413044 0.027256
C9    C     C_R   0.459871 0.799035 0.585994 -0.133729
C10   C     C_R   0.537128 0.797580 0.409582 -0.125433
C11   C     C_R   0.498300 0.838335 0.497397 0.057994
C12   C     C_R   0.632801 0.499768 0.499593 0.561117
C13   C     C_R   0.561452 0.959541 0.489086 0.212322
C14   C     C_R   0.435956 0.962664 0.501496 0.214118
C15   C     C_R   0.499751 0.500209 0.262474 0.558325
C16   C     C_R   0.497827 0.499865 0.737754 0.561313
C17   C     C_R   0.561956 0.037393 0.480970 0.216184
C18   C     C_R   0.436897 0.040659 0.504139 0.214560
C19   C     C_R   0.499987 0.078756 0.492995 -0.052452
C20   C     C_R   0.498447 0.921270 0.496595 -0.055178
C21   C     C_R   0.463105 0.202738 0.407855 -0.121944
C22   C     C_R   0.538095 0.200046 0.583651 -0.136987
C23   C     C_R   0.808178 0.565359 0.590618 0.213771
C24   C     C_R   0.463590 0.280097 0.412086 0.026228
C25   C     C_R   0.536722 0.277575 0.585374 0.023662
C26   C     C_R   0.500912 0.161508 0.494060 0.067305
C27   C     C_R   0.556612 0.506772 0.061788 0.011313
C28   C     C_R   0.555222 0.508822 0.935154 -0.015466
C29   C     C_R   0.495588 0.500617 0.129651 -0.016851
C30   C     C_R   0.494237 0.498702 0.871299 0.022706
C31   C     C_R   0.432076 0.489146 0.068857 -0.024354
C32   C     C_R   0.432939 0.480055 0.937876 -0.009560
C33   C     C_3   0.608093 0.567850 0.925845 0.156246
C34   C     C_R   0.187407 0.572985 0.559989 0.210736
C35   C     C_3   0.610118 0.565547 0.067239 0.155168
C36   C     C_R   0.753342 0.445609 0.458046 -0.021141
C37   C     C_R   0.248425 0.440423 0.469562 -0.019547
C38   C     C_R   0.825568 0.451632 0.473002 0.226496
C39   C     C_R   0.177817 0.442737 0.506609 0.228027
C40   C     C_R   0.852416 0.511407 0.539876 0.017763
C41   C     C_R   0.147254 0.509935 0.546138 0.034369
C42   C     C_3   0.364583 0.496465 0.142498 -0.251649
C43   C     C_3   0.349738 0.577293 0.180014 -0.289572
C44   C     C_3   0.273064 0.591965 0.207354 -0.468988
C45   C     C_R   0.737298 0.560580 0.572831 -0.153239
C46   C     C_3   0.373214 0.443832 0.871472 -0.248643
C47   C     C_3   0.328415 0.497113 0.796268 -0.282009
C48   C     C_3   0.279926 0.545427 0.873885 -0.444601
C49   C     C_3   0.652334 0.918426 0.601471 -0.000871
C50   C     C_3   0.713338 0.864702 0.600222 -0.375986
C51   C     C_3   0.349665 0.914146 0.388248 0.012870
C52   C     C_3   0.286720 0.864851 0.394957 -0.381298
C53   C     C_3   0.645638 0.065982 0.338301 0.013264
C54   C     C_3   0.723821 0.055683 0.332427 -0.369212
C55   C     C_3   0.357888 0.094202 0.633936 0.013151
C56   C     C_R   0.258881 0.567429 0.541858 -0.175201
C57   C     C_3   0.295867 0.146559 0.639340 -0.380229
C58   C     C_3   0.628542 0.689370 0.876122 -0.016222
C59   C     C_3   0.598984 0.756632 0.811250 -0.361071
C60   C     C_3   0.721185 0.593135 0.124275 -0.018882
C61   C     C_3   0.789614 0.560897 0.167208 -0.376747
C62   C     C_3   0.725716 0.381432 0.384905 -0.198630
C63   C     C_3   0.716416 0.314359 0.468630 -0.283337
C64   C     C_3   0.683072 0.251441 0.399307 -0.457387
C65   C     C_3   0.275400 0.375125 0.392701 -0.214396
C66   C     C_3   0.235535 0.365588 0.271642 -0.293117
C67   C     C_R   0.708874 0.501020 0.508900 -0.069530
C68   C     C_3   0.272168 0.310689 0.185117 -0.485078
C69   C     C_3   0.900231 0.415361 0.316605 -0.019787
C70   C     C_3   0.972519 0.381546 0.308093 -0.358421
C71   C     C_3   0.144006 0.332878 0.589961 -0.014997
C72   C     C_3   0.081923 0.282291 0.595699 -0.379362
C73   C     C_3   0.832439 0.609356 0.781222 -0.006400
C74   C     C_3   0.852796 0.677814 0.852526 -0.377544
C75   C     C_3   0.173383 0.697898 0.527271 -0.014693
C76   C     C_3   0.119130 0.758474 0.545033 -0.369134
C77   C     C_R   0.290472 0.502060 0.498353 -0.083812
C78   C     C_R   0.964196 0.563911 0.473216 -0.107208
Cu1   Cu    Cu3+1 0.500000 0.573360 0.500000 0.931680
Cu2   Cu    Cu3+1 0.500000 0.426640 0.500000 0.904275
H1    H     H_    0.431020 0.691865 0.653236 0.127188
H2    H     H_    0.590424 0.615870 0.116371 0.110191
H3    H     H_    0.704170 0.603401 0.612166 0.149732
H4    H     H_    0.290116 0.614406 0.565059 0.137208
H5    H     H_    0.937378 0.597476 0.405926 0.099399
H6    H     H_    0.064224 0.594593 0.405653 0.104120
H7    H     H_    0.060503 0.443452 0.712931 0.094785
H8    H     H_    0.933759 0.440949 0.704939 0.095991
H9    H     H_    0.242633 0.589299 0.121496 0.145261
H10   H     H_    0.252407 0.550933 0.273207 0.160692
H11   H     H_    0.266171 0.647825 0.248073 0.134572
H12   H     H_    0.568010 0.689579 0.345435 0.116599
H13   H     H_    0.378889 0.591107 0.263937 0.202778
H14   H     H_    0.367033 0.615579 0.106153 0.162393
H15   H     H_    0.319945 0.475804 0.091596 0.150147
H16   H     H_    0.367752 0.462069 0.226314 0.137147
H17   H     H_    0.310224 0.584404 0.929269 0.167620
H18   H     H_    0.246134 0.578364 0.812365 0.169578
H19   H     H_    0.246334 0.511091 0.933821 0.140053
H20   H     H_    0.295982 0.463221 0.735037 0.150124
H21   H     H_    0.361363 0.533244 0.738742 0.182316
H22   H     H_    0.395144 0.401672 0.807158 0.146623
H23   H     H_    0.429737 0.827898 0.656224 0.129186
H24   H     H_    0.340462 0.410469 0.934097 0.119817
H25   H     H_    0.614162 0.899497 0.672234 0.111551
H26   H     H_    0.671301 0.973850 0.627897 0.165683
H27   H     H_    0.752797 0.882547 0.531476 0.154416
H28   H     H_    0.737159 0.862844 0.692951 0.089630
H29   H     H_    0.695646 0.808585 0.575708 0.164120
H30   H     H_    0.389752 0.885654 0.329872 0.114702
H31   H     H_    0.334473 0.967081 0.343648 0.158506
H32   H     H_    0.245288 0.891548 0.451894 0.158069
H33   H     H_    0.266917 0.854986 0.300633 0.086056
H34   H     H_    0.566545 0.825269 0.338086 0.126487
H35   H     H_    0.301077 0.811061 0.436927 0.144824
H36   H     H_    0.631208 0.117173 0.288181 0.121579
H37   H     H_    0.622432 0.018732 0.287905 0.135150
H38   H     H_    0.738690 0.002942 0.377368 0.176379
H39   H     H_    0.741683 0.054289 0.234555 0.083572
H40   H     H_    0.749675 0.101607 0.380495 0.145764
H41   H     H_    0.401235 0.120934 0.683195 0.114132
H42   H     H_    0.344031 0.042228 0.682356 0.157385
H43   H     H_    0.251106 0.121362 0.592763 0.157682
H44   H     H_    0.281502 0.158320 0.737096 0.082851
H45   H     H_    0.433790 0.175288 0.337163 0.115887
H46   H     H_    0.308731 0.199215 0.592587 0.147636
H47   H     H_    0.675923 0.671272 0.824453 0.117339
H48   H     H_    0.642341 0.706015 0.971481 0.106197
H49   H     H_    0.548731 0.773288 0.854266 0.152902
H50   H     H_    0.635581 0.802898 0.819543 0.076953
H51   H     H_    0.591369 0.744213 0.711962 0.172531
H52   H     H_    0.702776 0.634420 0.193906 0.126039
H53   H     H_    0.730790 0.620845 0.034264 0.105233
H54   H     H_    0.809260 0.519170 0.099830 0.140819
H55   H     H_    0.828252 0.605308 0.175681 0.086922
H56   H     H_    0.567504 0.170358 0.652414 0.108028
H57   H     H_    0.782511 0.534576 0.258563 0.158421
H58   H     H_    0.631557 0.268570 0.364545 0.174077
H59   H     H_    0.716462 0.233630 0.320266 0.140340
H60   H     H_    0.676376 0.204542 0.463547 0.191845
H61   H     H_    0.767585 0.295411 0.502781 0.187901
H62   H     H_    0.683533 0.329097 0.550027 0.171710
H63   H     H_    0.676722 0.396476 0.338594 0.174754
H64   H     H_    0.761485 0.366657 0.307841 0.151772
H65   H     H_    0.324400 0.330641 0.158991 0.139503
H66   H     H_    0.277226 0.256089 0.230665 0.158510
H67   H     H_    0.434930 0.311103 0.344235 0.112952
H68   H     H_    0.241681 0.304256 0.099664 0.137763
H69   H     H_    0.182768 0.344906 0.290496 0.215725
H70   H     H_    0.230652 0.419432 0.223700 0.149246
H71   H     H_    0.329724 0.381759 0.365323 0.156757
H72   H     H_    0.273839 0.323620 0.447167 0.134727
H73   H     H_    0.904570 0.475903 0.301977 0.110381
H74   H     H_    0.869344 0.392910 0.239862 0.124661
H75   H     H_    0.969835 0.320632 0.316266 0.154606
H76   H     H_    0.996925 0.395695 0.217947 0.086872
H77   H     H_    0.004929 0.403138 0.383475 0.204431
H78   H     H_    0.565581 0.306670 0.654609 0.118298
H79   H     H_    0.148240 0.361517 0.680645 0.108131
H80   H     H_    0.190789 0.297832 0.576647 0.126493
H81   H     H_    0.078177 0.250772 0.508061 0.154075
H82   H     H_    0.087653 0.242908 0.673428 0.088976
H83   H     H_    0.033637 0.315093 0.609943 0.164318
H84   H     H_    0.869683 0.564154 0.803291 0.132542
H85   H     H_    0.779760 0.593239 0.813079 0.105365
H86   H     H_    0.815347 0.723358 0.834648 0.142733
H87   H     H_    0.852776 0.665801 0.953047 0.083841
H88   H     H_    0.905398 0.695236 0.823561 0.168439
H89   H     H_    0.655717 0.548120 0.876295 0.104377
H90   H     H_    0.174775 0.682717 0.427309 0.114165
H91   H     H_    0.224268 0.720284 0.554017 0.128246
H92   H     H_    0.132133 0.806445 0.485921 0.085994
H93   H     H_    0.067491 0.737862 0.518921 0.159782
H94   H     H_    0.117350 0.776482 0.643127 0.160766
N1    N     N_R   0.500000 0.683620 0.500000 -0.222766
N2    N     N_R   0.500000 0.316380 0.500000 -0.221853
O1    O     O_R   0.400190 0.561980 0.499980 -0.520099
O2    O     O_3   0.373292 0.927068 0.509065 -0.551050
O3    O     O_3   0.624061 0.072983 0.463434 -0.567237
O4    O     O_3   0.375059 0.079642 0.509127 -0.548803
O5    O     O_3   0.578384 0.633636 0.879540 -0.556694
O6    O     O_3   0.672902 0.535993 0.111912 -0.577110
O7    O     O_3   0.869586 0.395739 0.431290 -0.566708
O8    O     O_3   0.135954 0.382241 0.489933 -0.583170
O9    O     O_3   0.834298 0.625015 0.653478 -0.553829
O10   O     O_3   0.156195 0.637475 0.603633 -0.557560
O11   O     O_R   0.599810 0.561980 0.500020 -0.492468
O12   O     O_R   0.400190 0.438070 0.500040 -0.511715
O13   O     O_R   0.599810 0.438070 0.499960 -0.501908
O14   O     O_R   0.500000 0.561960 0.319660 -0.520467
O15   O     O_R   0.500000 0.561960 0.680340 -0.462022
O16   O     O_R   0.500000 0.438060 0.319720 -0.507668
O17   O     O_R   0.500000 0.438060 0.680280 -0.522116
O18   O     O_3   0.623266 0.920539 0.482702 -0.557504

loop_
_geom_bond_atom_site_label_1
_geom_bond_atom_site_label_2
_ccdc_geom_bond_type
C66   C68   S    
C21   C26   A    
C55   H41   S    
C59   H50   S    
C34   C56   A    
C23   C45   A    
C31   C42   S    
C54   H40   S    
C27   C29   A    
C1    C77   S    
C55   O4    S    
C14   C18   A    
C62   H63   S    
C15   O16   A    
C33   H89   S    
C60   H52   S    
C74   H88   S    
C36   C67   A    
C68   H66   S    
C39   C41   A    
C64   H58   S    
C53   C54   S    
C35   O6    S    
C58   H48   S    
Cu2   O17   S    
C46   H22   S    
C59   H51   S    
Cu1   O11   S    
C58   O5    S    
C42   H16   S    
C27   C28   A    
C76   H93   S    
C38   C40   A    
C66   H70   S    
C73   H84   S    
C5    C6    A    
C8    C10   A    
C53   H37   S    
C1    O12   A    
C12   O13   A    
C49   O18   S    
C52   H32   S    
C16   C30   S    
C23   C40   A    
C43   H14   S    
C6    H8    S    
C76   H92   S    
C18   C19   A    
Cu2   O13   S    
C34   O10   S    
C19   C26   S    
C16   O17   A    
C43   H13   S    
C1    O1    A    
C70   H75   S    
C63   H62   S    
C71   H79   S    
C3    C41   S    
C4    C40   S    
C37   C65   S    
C28   C30   A    
C22   C25   A    
C7    N1    A    
C45   C67   A    
C72   H81   S    
Cu1   O1    S    
C56   H4    S    
C8    H12   S    
C51   O2    S    
C39   O8    S    
C10   H34   S    
C53   H36   S    
C17   O3    S    
C55   H42   S    
C18   O4    S    
C58   H47   S    
Cu1   O15   S    
C54   H39   S    
C50   H28   S    
Cu2   O16   S    
C45   H3    S    
C34   C41   A    
C44   H9    S    
C36   C62   S    
C53   O3    S    
C74   H87   S    
C35   H2    S    
C61   H54   S    
C15   C29   S    
C73   C74   S    
C60   O6    S    
C12   C67   S    
C11   C20   S    
C8    N1    A    
C42   H15   S    
Cu1   N1    S    
C48   H18   S    
Cu2   N2    S    
C66   H69   S    
C73   H85   S    
C57   H46   S    
C23   O9    S    
C17   C19   A    
C49   H25   S    
C27   C35   S    
C58   C59   S    
C52   H33   S    
C12   O11   A    
C37   C77   A    
Cu1   O14   S    
C50   H29   S    
C69   H73   S    
C56   C77   A    
C51   C52   S    
C22   H56   S    
C60   C61   S    
C65   H71   S    
C75   C76   S    
C4    C78   A    
C62   C63   S    
C48   H17   S    
C16   O15   A    
C14   C20   A    
C57   H43   S    
C47   C48   S    
C9    H23   S    
C75   H90   S    
C63   H61   S    
C9    C11   A    
C14   O2    S    
C44   H11   S    
C69   O7    S    
C78   H5    S    
C4    C6    A    
C7    H1    S    
C15   O14   A    
C28   C33   S    
C65   C66   S    
C51   H30   S    
C13   O18   S    
C55   C57   S    
C43   C44   S    
C75   H91   S    
C50   H27   S    
C70   H76   S    
C75   O10   S    
C42   C43   S    
C21   H45   S    
C24   N2    A    
C54   H38   S    
C74   H86   S    
C44   H10   S    
C2    C78   A    
C61   H55   S    
C64   H60   S    
C52   H35   S    
C7    C9    A    
C48   H19   S    
C46   C47   S    
C59   H49   S    
C51   H31   S    
C13   C20   A    
C32   C46   S    
C71   O8    S    
C31   C32   A    
C62   H64   S    
C63   C64   S    
C3    C5    A    
C24   H67   S    
C68   H68   S    
C33   O5    S    
C73   O9    S    
C49   H26   S    
C38   O7    S    
C71   H80   S    
C69   H74   S    
C13   C17   A    
C70   H77   S    
C65   H72   S    
C36   C38   A    
C2    C3    A    
C71   C72   S    
C29   C31   A    
C57   H44   S    
C30   C32   A    
C25   N2    A    
C61   H57   S    
C46   H24   S    
C76   H94   S    
C33   C35   S    
C72   H83   S    
C2    H6    S    
C47   H21   S    
C69   C70   S    
C10   C11   A    
C47   H20   S    
Cu1   Cu2   S    
C5    H7    S    
C37   C39   A    
C49   C50   S    
C22   C26   A    
C21   C24   A    
C25   H78   S    
C72   H82   S    
C60   H53   S    
C68   H65   S    
Cu2   O12   S    
C64   H59   S    
