data_mof_unit_53943.cif
_audit_creation_date              2012-12-10T18:40:36-0500
_audit_creation_method            fapswitch 2.2
_symmetry_space_group_name_H-M    P1
_symmetry_Int_Tables_number       1
_space_group_crystal_system       triclinic
_cell_length_a                    21.413389
_cell_length_b                    21.087026
_cell_length_c                    13.909107
_cell_angle_alpha                 89.886416
_cell_angle_beta                  90.114039
_cell_angle_gamma                 90.043176
_cell_volume                      6280.55687056

loop_
_atom_site_label
_atom_site_type_symbol
_atom_type_description
_atom_site_fract_x
_atom_site_fract_y
_atom_site_fract_z
_atom_type_partial_charge
C1    C     C_R   0.085196 0.414826 0.500125 0.844430
C2    C     C_R   0.915178 0.584891 0.499963 0.829082
C3    C     C_R   0.914950 0.414742 0.499999 0.843017
C4    C     C_R   0.085189 0.584760 0.500123 0.822481
C5    C     C_R   0.585205 0.914864 0.499957 0.828869
C6    C     C_R   0.414743 0.084309 0.499953 0.830188
C7    C     C_R   0.414936 0.915196 0.500118 0.825468
C8    C     C_R   0.585013 0.084597 0.499880 0.834422
C9    C     C_R   0.789212 0.303876 0.585287 0.438691
C10   C     C_R   0.169706 0.738027 0.462754 0.418502
C11   C     C_R   0.233839 0.668386 0.563392 0.465284
C12   C     C_R   0.806488 0.286531 0.413395 0.420820
C13   C     C_R   0.209356 0.302743 0.413786 0.446732
C14   C     C_R   0.837754 0.744101 0.507086 0.437690
C15   C     C_R   0.758825 0.661119 0.483118 0.441285
C16   C     C_R   0.195723 0.288497 0.586643 0.427886
C17   C     C_R   0.264805 0.833066 0.559347 0.473006
C18   C     C_R   0.663519 0.241801 0.511573 0.437614
C19   C     C_R   0.742284 0.159717 0.485623 0.454912
C20   C     C_R   0.331662 0.761152 0.467096 0.412768
C21   C     C_R   0.714664 0.809574 0.411118 0.432936
C22   C     C_R   0.336582 0.241819 0.484352 0.424284
C23   C     C_R   0.257616 0.160014 0.515673 0.439536
C24   C     C_R   0.692268 0.783437 0.578934 0.424120
C25   C     C_R   0.834069 0.351932 0.584310 -0.337697
C26   C     C_R   0.124592 0.690603 0.456163 -0.291138
C27   C     C_R   0.188107 0.621206 0.555129 -0.335004
C28   C     C_R   0.853480 0.332712 0.415115 -0.341477
C29   C     C_R   0.164363 0.350465 0.414670 -0.334210
C30   C     C_R   0.883710 0.696411 0.511448 -0.332240
C31   C     C_R   0.805144 0.615033 0.486409 -0.307488
C32   C     C_R   0.149320 0.334721 0.586060 -0.299925
C33   C     C_R   0.310848 0.880153 0.550557 -0.351749
C34   C     C_R   0.617337 0.195439 0.512530 -0.322557
C35   C     C_R   0.695270 0.113998 0.484348 -0.304389
C36   C     C_R   0.376984 0.808336 0.460659 -0.281093
C37   C     C_R   0.668998 0.857050 0.414907 -0.330805
C38   C     C_R   0.382512 0.194710 0.482564 -0.365710
C39   C     C_R   0.304853 0.114176 0.518084 -0.335595
C40   C     C_R   0.645604 0.829476 0.580524 -0.306595
C41   C     C_R   0.866758 0.365837 0.499851 -0.145380
C42   C     C_R   0.133992 0.632360 0.501598 -0.132628
C43   C     C_R   0.133671 0.366108 0.500356 -0.162455
C44   C     C_R   0.867174 0.632845 0.499873 -0.110489
C45   C     C_R   0.366286 0.867599 0.501580 -0.130575
C46   C     C_R   0.633321 0.132024 0.499230 -0.122789
C47   C     C_R   0.633986 0.866502 0.498811 -0.153331
C48   C     C_R   0.366511 0.131768 0.500002 -0.093249
C49   C     C_R   0.011434 0.554927 0.107162 -0.388939
C50   C     C_R   0.009888 0.443478 0.891842 -0.390019
C51   C     C_R   0.990221 0.443468 0.108279 -0.388860
C52   C     C_R   0.990189 0.555332 0.892296 -0.392098
C53   C     C_R   0.512453 0.054373 0.106759 -0.384142
C54   C     C_R   0.511742 0.943653 0.892169 -0.388577
C55   C     C_R   0.488384 0.943520 0.108410 -0.385995
C56   C     C_R   0.486512 0.054171 0.892989 -0.389184
C57   C     C_R   0.775071 0.272104 0.499311 0.007342
C58   C     C_R   0.225187 0.726262 0.514691 -0.032814
C59   C     C_R   0.225527 0.272358 0.500149 -0.010441
C60   C     C_R   0.775270 0.725384 0.493342 0.001081
C61   C     C_R   0.274968 0.774038 0.514888 -0.030841
C62   C     C_R   0.726234 0.223803 0.498868 -0.031030
C63   C     C_R   0.726283 0.773435 0.494088 0.012202
C64   C     C_R   0.274117 0.223790 0.499992 0.015838
C65   C     C_R   0.006997 0.555593 0.208588 0.565143
C66   C     C_R   0.006568 0.443865 0.790078 0.576051
C67   C     C_R   0.993191 0.443884 0.210102 0.575944
C68   C     C_R   0.993232 0.555628 0.790789 0.561643
C69   C     C_R   0.509252 0.055280 0.208368 0.564796
C70   C     C_R   0.508844 0.944214 0.790476 0.564194
C71   C     C_R   0.491721 0.944035 0.210188 0.581072
C72   C     C_R   0.490126 0.055160 0.791396 0.561779
C73   C     C_R   0.000799 0.499086 0.054547 0.082263
C74   C     C_R   0.000287 0.499246 0.945228 0.082416
C75   C     C_R   0.499875 0.998791 0.054638 0.078217
C76   C     C_R   0.499498 0.998755 0.945544 0.083272
Cu1   Cu    Cu3+1 1.000000 0.500000 0.596430 0.991744
Cu2   Cu    Cu3+1 0.000000 0.500000 0.403570 0.992697
Cu3   Cu    Cu3+1 0.500000 0.000000 0.596430 0.988394
Cu4   Cu    Cu3+1 0.500000 0.000000 0.403570 0.994530
H1    H     H_    0.023460 0.598480 0.070616 0.146951
H2    H     H_    0.020621 0.399482 0.928002 0.150870
H3    H     H_    0.979028 0.399516 0.072464 0.149892
H4    H     H_    0.979224 0.599197 0.928477 0.147388
H5    H     H_    0.526160 0.097124 0.069265 0.149994
H6    H     H_    0.523966 0.899976 0.928399 0.151174
H7    H     H_    0.476792 0.899701 0.072404 0.149909
H8    H     H_    0.472480 0.096836 0.930117 0.148760
H9    H     H_    0.843053 0.378393 0.649522 0.167663
H10   H     H_    0.081359 0.700128 0.418694 0.159052
H11   H     H_    0.194707 0.575749 0.589967 0.150005
H12   H     H_    0.880126 0.342295 0.350833 0.199676
H13   H     H_    0.153656 0.375110 0.348266 0.170372
H14   H     H_    0.932428 0.707800 0.521418 0.116447
H15   H     H_    0.792745 0.565455 0.478673 0.147775
H16   H     H_    0.125793 0.345877 0.652742 0.206221
H17   H     H_    0.303717 0.926854 0.580600 0.140928
H18   H     H_    0.569113 0.208984 0.522860 0.143052
H19   H     H_    0.707114 0.064621 0.472915 0.154750
H20   H     H_    0.421322 0.798026 0.426702 0.166190
H21   H     H_    0.661452 0.887321 0.353072 0.161796
H22   H     H_    0.430615 0.206632 0.467885 0.137206
H23   H     H_    0.293847 0.065111 0.533909 0.128488
H24   H     H_    0.618561 0.835941 0.645431 0.206494
N1    N     N_R   0.000000 0.500000 0.258690 -0.237417
N2    N     N_R   0.000000 0.500000 0.741310 -0.237847
N3    N     N_R   0.500000 0.000000 0.258690 -0.239322
N4    N     N_R   0.500000 0.000000 0.741310 -0.236594
O1    O     O_R   0.064280 0.435730 0.581430 -0.544931
O2    O     O_R   0.935720 0.564270 0.418570 -0.582116
O3    O     O_R   0.935720 0.564270 0.581430 -0.531468
O4    O     O_R   0.064280 0.435730 0.418570 -0.581619
O5    O     O_R   0.935720 0.435730 0.418570 -0.543783
O6    O     O_R   0.064280 0.564270 0.581430 -0.583399
O7    O     O_R   0.064280 0.564270 0.418570 -0.535162
O8    O     O_R   0.935720 0.435730 0.581430 -0.581561
O9    O     O_R   0.564280 0.935730 0.581430 -0.540792
O10   O     O_R   0.435720 0.064270 0.418570 -0.588688
O11   O     O_R   0.435720 0.064270 0.581430 -0.531465
O12   O     O_R   0.564280 0.935730 0.418570 -0.585046
O13   O     O_R   0.435720 0.935730 0.418570 -0.534004
O14   O     O_R   0.564280 0.064270 0.581430 -0.587729
O15   O     O_R   0.564280 0.064270 0.418570 -0.526055
O16   O     O_R   0.435720 0.935730 0.581430 -0.583585
O17   O     O_3   0.754943 0.291069 0.667566 -0.569149
C77   C     C_3   0.793907 0.268785 0.742906 0.060441
H25   H     H_    0.844481 0.265970 0.724311 0.074164
H26   H     H_    0.779308 0.219712 0.761541 0.142152
C78   C     C_3   0.786658 0.310906 0.831643 -0.348405
H27   H     H_    0.819204 0.294150 0.888615 0.159678
H28   H     H_    0.799427 0.360523 0.813151 0.206191
C79   C     C_3   0.720084 0.309345 0.870893 -0.763321
H29   H     H_    0.686611 0.327706 0.816463 0.285853
H30   H     H_    0.717158 0.339623 0.935944 0.214472
H31   H     H_    0.706790 0.260140 0.890942 0.228821
O18   O     O_3   0.155965 0.798181 0.429148 -0.556950
C80   C     C_3   0.173938 0.803202 0.332000 0.064844
H32   H     H_    0.146476 0.769638 0.286823 0.096218
H33   H     H_    0.224586 0.793251 0.322917 0.107487
C81   C     C_3   0.161261 0.870651 0.296327 -0.330300
H34   H     H_    0.172355 0.873436 0.218408 0.159537
H35   H     H_    0.110941 0.881996 0.305612 0.214601
C82   C     C_3   0.200661 0.919671 0.350085 -0.771786
H36   H     H_    0.187997 0.920527 0.427452 0.286795
H37   H     H_    0.192034 0.967524 0.319406 0.213987
H38   H     H_    0.251154 0.908584 0.342981 0.241968
O19   O     O_3   0.288997 0.657539 0.613260 -0.564253
C83   C     C_3   0.277484 0.641815 0.710821 0.074170
H39   H     H_    0.227374 0.644395 0.732623 0.070337
H40   H     H_    0.302332 0.676734 0.756766 0.148267
C84   C     C_3   0.302456 0.575355 0.733241 -0.366080
H41   H     H_    0.291456 0.563352 0.809183 0.167192
H42   H     H_    0.278933 0.539958 0.686567 0.204730
C85   C     C_3   0.373007 0.570934 0.718796 -0.766231
H43   H     H_    0.385485 0.581876 0.643081 0.281947
H44   H     H_    0.388950 0.522062 0.735673 0.222146
H45   H     H_    0.397533 0.604459 0.767403 0.234873
O20   O     O_3   0.793337 0.251167 0.331523 -0.563532
C86   C     C_3   0.785621 0.290364 0.249717 0.060933
H46   H     H_    0.832034 0.301588 0.218289 0.110767
H47   H     H_    0.760951 0.335564 0.266826 0.117578
C87   C     C_3   0.747976 0.254705 0.173509 -0.325763
H48   H     H_    0.746413 0.283499 0.106523 0.163377
H49   H     H_    0.771463 0.209043 0.156846 0.227183
C88   C     C_3   0.681244 0.241603 0.206660 -0.790511
H50   H     H_    0.681168 0.212517 0.273358 0.282849
H51   H     H_    0.655752 0.215247 0.149751 0.231606
H52   H     H_    0.656398 0.286913 0.220219 0.212258
O21   O     O_3   0.240086 0.287660 0.329566 -0.560400
C89   C     C_3   0.200603 0.249374 0.272500 0.057398
H53   H     H_    0.163418 0.279129 0.239407 0.102027
H54   H     H_    0.178114 0.210700 0.315120 0.124594
C90   C     C_3   0.238570 0.219274 0.191577 -0.327848
H55   H     H_    0.206347 0.193857 0.142121 0.164184
H56   H     H_    0.262666 0.257060 0.149905 0.218593
C91   C     C_3   0.286901 0.172345 0.230153 -0.787856
H57   H     H_    0.319695 0.196328 0.280075 0.276628
H58   H     H_    0.314121 0.152422 0.169453 0.217905
H59   H     H_    0.263503 0.132768 0.268581 0.225036
O22   O     O_3   0.850821 0.809027 0.508338 -0.576808
C92   C     C_3   0.905181 0.824634 0.560953 0.067398
H60   H     H_    0.947503 0.811429 0.519356 0.115456
H61   H     H_    0.905653 0.800716 0.632399 0.116883
C93   C     C_3   0.907923 0.896396 0.576283 -0.319389
H62   H     H_    0.952656 0.908621 0.612523 0.166013
H63   H     H_    0.906922 0.920892 0.505438 0.222068
C94   C     C_3   0.853791 0.920168 0.637737 -0.810196
H64   H     H_    0.808422 0.910481 0.601735 0.273091
H65   H     H_    0.858358 0.972140 0.648252 0.217354
H66   H     H_    0.854481 0.896769 0.709343 0.225440
O23   O     O_3   0.697072 0.642953 0.473486 -0.594777
C95   C     C_3   0.680017 0.642778 0.375041 0.049906
H67   H     H_    0.716240 0.662524 0.325652 0.131562
H68   H     H_    0.637733 0.672784 0.366844 0.153569
C96   C     C_3   0.664304 0.575203 0.343697 -0.344034
H69   H     H_    0.706170 0.544665 0.352797 0.214415
H70   H     H_    0.626162 0.556223 0.389576 0.230697
C97   C     C_3   0.643625 0.573065 0.238717 -0.938276
H71   H     H_    0.600526 0.601507 0.228334 0.261043
H72   H     H_    0.633664 0.523246 0.217976 0.253802
H73   H     H_    0.681034 0.591872 0.191303 0.260512
O24   O     O_3   0.209666 0.256681 0.670951 -0.559482
C98   C     C_3   0.256881 0.290431 0.720128 0.058591
H74   H     H_    0.236752 0.333905 0.753061 0.106478
H75   H     H_    0.295772 0.304723 0.671580 0.127436
C99   C     C_3   0.284165 0.249036 0.800222 -0.372885
H76   H     H_    0.319866 0.276883 0.840082 0.161391
H77   H     H_    0.246633 0.235581 0.851469 0.218612
C100  C     C_3   0.314713 0.189062 0.760601 -0.710130
H78   H     H_    0.278877 0.157406 0.728512 0.281956
H79   H     H_    0.338449 0.163081 0.819778 0.224704
H80   H     H_    0.349876 0.201297 0.705004 0.236401
O25   O     O_3   0.207322 0.844296 0.602655 -0.565294
C101  C     C_3   0.212263 0.877148 0.691114 0.063584
H81   H     H_    0.260654 0.880144 0.720532 0.074892
H82   H     H_    0.185271 0.850317 0.745840 0.151049
C102  C     C_3   0.184039 0.943670 0.681874 -0.340830
H83   H     H_    0.188470 0.968439 0.752005 0.173048
H84   H     H_    0.210149 0.971560 0.627493 0.196313
C103  C     C_3   0.115142 0.941459 0.653211 -0.781763
H85   H     H_    0.109417 0.918768 0.581732 0.280375
H86   H     H_    0.096419 0.990470 0.648978 0.226600
H87   H     H_    0.087798 0.914538 0.707448 0.231306
O26   O     O_3   0.647827 0.304020 0.530602 -0.564601
C104  C     C_3   0.634371 0.335072 0.443039 0.059590
H88   H     H_    0.589780 0.316743 0.412465 0.100439
H89   H     H_    0.672261 0.328285 0.389232 0.133672
C105  C     C_3   0.627121 0.406140 0.461342 -0.352387
H90   H     H_    0.614453 0.430130 0.392813 0.163354
H91   H     H_    0.588682 0.414025 0.513574 0.215048
C106  C     C_3   0.687350 0.435422 0.500468 -0.752003
H92   H     H_    0.700293 0.413330 0.570227 0.294767
H93   H     H_    0.680443 0.486924 0.512645 0.232479
H94   H     H_    0.726138 0.428890 0.448483 0.223165
O27   O     O_3   0.803637 0.142297 0.469860 -0.551257
C107  C     C_3   0.830649 0.124217 0.558505 0.066062
H95   H     H_    0.812462 0.076916 0.580464 0.104833
H96   H     H_    0.820346 0.158868 0.616821 0.106071
C108  C     C_3   0.901581 0.119538 0.547802 -0.340382
H97   H     H_    0.921892 0.102191 0.616593 0.161962
H98   H     H_    0.913163 0.084681 0.490715 0.221276
C109  C     C_3   0.930870 0.183644 0.523050 -0.752888
H99   H     H_    0.915113 0.199764 0.450939 0.284766
H100  H     H_    0.982497 0.179108 0.522063 0.221006
H101  H     H_    0.917926 0.219818 0.577417 0.223063
O28   O     O_3   0.346219 0.700476 0.437203 -0.555040
C110  C     C_3   0.326780 0.692391 0.341079 0.067516
H102  H     H_    0.349590 0.727880 0.293183 0.088687
H103  H     H_    0.275248 0.696997 0.334391 0.111333
C111  C     C_3   0.345225 0.626119 0.307046 -0.339190
H104  H     H_    0.332512 0.620985 0.229940 0.160436
H105  H     H_    0.396632 0.620190 0.313834 0.217008
C112  C     C_3   0.312302 0.574254 0.364904 -0.737915
H106  H     H_    0.325884 0.576875 0.441901 0.286912
H107  H     H_    0.325898 0.526974 0.336903 0.221544
H108  H     H_    0.260807 0.579309 0.358671 0.237429
O29   O     O_3   0.752100 0.800820 0.330694 -0.599282
C113  C     C_3   0.715568 0.793628 0.246562 0.031672
H109  H     H_    0.701395 0.840917 0.218597 0.148257
H110  H     H_    0.673002 0.764462 0.260086 0.122379
C114  C     C_3   0.754946 0.760811 0.169801 -0.316827
H111  H     H_    0.794651 0.792064 0.149621 0.223329
H112  H     H_    0.774287 0.715849 0.199087 0.208788
C115  C     C_3   0.716508 0.745858 0.080208 -0.959127
H113  H     H_    0.678446 0.712070 0.098110 0.262237
H114  H     H_    0.747006 0.723656 0.025341 0.253136
H115  H     H_    0.696121 0.789942 0.049616 0.256617
O30   O     O_3   0.349988 0.304718 0.462711 -0.566380
C116  C     C_3   0.400101 0.327804 0.519060 0.060716
H116  H     H_    0.445321 0.312044 0.488144 0.111342
H117  H     H_    0.397263 0.311507 0.595281 0.115764
C117  C     C_3   0.399541 0.400308 0.517039 -0.322288
H118  H     H_    0.440830 0.418416 0.557061 0.162014
H119  H     H_    0.403084 0.416979 0.441358 0.220615
C118  C     C_3   0.340296 0.427398 0.562122 -0.800560
H120  H     H_    0.298038 0.409643 0.524308 0.278449
H121  H     H_    0.341077 0.479864 0.556223 0.236461
H122  H     H_    0.337680 0.414235 0.639349 0.219296
O31   O     O_3   0.195836 0.144935 0.535535 -0.588666
C119  C     C_3   0.173942 0.096717 0.473545 0.038842
H123  H     H_    0.188153 0.049546 0.501769 0.149904
H124  H     H_    0.191956 0.102566 0.398850 0.121978
C120  C     C_3   0.102685 0.099698 0.469943 -0.313025
H125  H     H_    0.083647 0.095166 0.543942 0.227343
H126  H     H_    0.088084 0.146392 0.440218 0.209897
C121  C     C_3   0.075569 0.046994 0.407477 -0.946914
H127  H     H_    0.093281 0.051100 0.332710 0.257427
H128  H     H_    0.023867 0.050895 0.406079 0.259009
H129  H     H_    0.088380 0.999818 0.437147 0.263224
O32   O     O_3   0.702923 0.745793 0.658796 -0.570100
C122  C     C_3   0.740811 0.779643 0.724273 0.057756
H130  H     H_    0.712644 0.816967 0.760383 0.115650
H131  H     H_    0.781423 0.802596 0.688132 0.148161
C123  C     C_3   0.765803 0.734394 0.801263 -0.371505
H132  H     H_    0.790629 0.762371 0.857189 0.166088
H133  H     H_    0.726154 0.709313 0.836125 0.230568
C124  C     C_3   0.811039 0.685772 0.759315 -0.715421
H134  H     H_    0.787261 0.656210 0.704309 0.281035
H135  H     H_    0.828361 0.654211 0.817514 0.226636
H136  H     H_    0.851716 0.710004 0.726107 0.230626
O33   O     O_3   0.014264 0.611957 0.258108 -0.582399
C125  C     C_3   0.964078 0.653184 0.236073 0.047935
H137  H     H_    0.918765 0.630989 0.256715 0.155466
H138  H     H_    0.962774 0.665422 0.158248 0.117328
C126  C     C_3   0.972359 0.714841 0.291977 -0.352191
H139  H     H_    0.976565 0.703792 0.369546 0.217587
H140  H     H_    0.016038 0.738791 0.268542 0.209139
C127  C     C_3   0.917263 0.759587 0.276584 -0.859999
H141  H     H_    0.913251 0.772716 0.199457 0.236294
H142  H     H_    0.924374 0.803415 0.319357 0.273719
H143  H     H_    0.873204 0.736645 0.300285 0.275607
O34   O     O_3   0.016444 0.388786 0.738136 -0.589071
C128  C     C_3   0.974436 0.339799 0.764408 0.029371
H144  H     H_    0.948690 0.325378 0.698608 0.169686
H145  H     H_    0.938391 0.353850 0.818223 0.109041
C129  C     C_3   0.011376 0.282506 0.800999 -0.335638
H146  H     H_    0.045307 0.267467 0.745106 0.240966
H147  H     H_    0.037983 0.295750 0.866569 0.208927
C130  C     C_3   0.968451 0.226855 0.824657 -0.943959
H148  H     H_    0.933601 0.240860 0.879713 0.247499
H149  H     H_    0.996602 0.186881 0.853445 0.263972
H150  H     H_    0.943832 0.210479 0.758899 0.249904
O35   O     O_3   0.982318 0.388868 0.262001 -0.594230
C131  C     C_3   0.024766 0.339944 0.237819 0.030379
H151  H     H_    0.050399 0.326624 0.304288 0.171903
H152  H     H_    0.060778 0.353517 0.183561 0.113015
C132  C     C_3   0.988435 0.281790 0.203174 -0.353044
H153  H     H_    0.953956 0.267598 0.258882 0.231896
H154  H     H_    0.962567 0.293644 0.136219 0.205474
C133  C     C_3   0.031921 0.225973 0.183769 -0.931025
H155  H     H_    0.066730 0.238768 0.127862 0.247184
H156  H     H_    0.004209 0.184876 0.157853 0.264703
H157  H     H_    0.056657 0.211886 0.250774 0.246658
O36   O     O_3   0.984342 0.611478 0.740401 -0.579741
C134  C     C_3   0.034808 0.653209 0.757651 0.062776
H158  H     H_    0.080509 0.628992 0.746166 0.142681
H159  H     H_    0.032954 0.671980 0.832297 0.115601
C135  C     C_3   0.029959 0.709074 0.687936 -0.328790
H160  H     H_    0.028898 0.691172 0.612970 0.220615
H161  H     H_    0.985772 0.735017 0.701601 0.196209
C136  C     C_3   0.084792 0.754686 0.699018 -0.903367
H162  H     H_    0.085228 0.775398 0.772364 0.235813
H163  H     H_    0.080270 0.793686 0.645710 0.284392
H164  H     H_    0.129626 0.729701 0.686155 0.262014
O37   O     O_3   0.524075 0.110210 0.257605 -0.575221
C137  C     C_3   0.479379 0.158082 0.239278 0.052830
H165  H     H_    0.434402 0.145653 0.274514 0.164039
H166  H     H_    0.470823 0.165436 0.161119 0.115809
C138  C     C_3   0.503746 0.220499 0.280650 -0.353321
H167  H     H_    0.513069 0.214777 0.358704 0.211429
H168  H     H_    0.548485 0.232928 0.245109 0.221886
C139  C     C_3   0.457529 0.274603 0.265105 -0.911374
H169  H     H_    0.449899 0.282743 0.187046 0.254416
H170  H     H_    0.476410 0.318745 0.297490 0.246624
H171  H     H_    0.412180 0.263487 0.299572 0.292742
O38   O     O_3   0.519293 0.888956 0.739802 -0.591744
C140  C     C_3   0.469754 0.845929 0.755797 0.042533
H172  H     H_    0.423553 0.869243 0.744299 0.148817
H173  H     H_    0.471883 0.826520 0.830183 0.121036
C141  C     C_3   0.475860 0.790795 0.685261 -0.316544
H174  H     H_    0.477854 0.809414 0.610571 0.225445
H175  H     H_    0.520026 0.764799 0.699857 0.221604
C142  C     C_3   0.420988 0.744978 0.693983 -0.875347
H176  H     H_    0.419526 0.724151 0.767332 0.234371
H177  H     H_    0.426256 0.706107 0.640889 0.289325
H178  H     H_    0.376294 0.769941 0.679462 0.258403
O39   O     O_3   0.481689 0.888871 0.262076 -0.583049
C143  C     C_3   0.525563 0.841163 0.238142 0.040870
H179  H     H_    0.551623 0.828510 0.304579 0.166812
H180  H     H_    0.561309 0.855737 0.183999 0.112307
C144  C     C_3   0.490812 0.782168 0.203108 -0.350535
H181  H     H_    0.458795 0.765287 0.260463 0.220953
H182  H     H_    0.462415 0.794137 0.138682 0.207787
C145  C     C_3   0.536023 0.728991 0.177700 -0.953980
H183  H     H_    0.567200 0.744161 0.118245 0.261249
H184  H     H_    0.509367 0.686568 0.154173 0.256405
H185  H     H_    0.564624 0.716018 0.241382 0.247829
O40   O     O_3   0.476041 0.110345 0.742003 -0.580497
C146  C     C_3   0.521570 0.157381 0.760626 0.058122
H186  H     H_    0.566968 0.143301 0.728235 0.163710
H187  H     H_    0.528556 0.165621 0.838909 0.115506
C147  C     C_3   0.499945 0.219898 0.715871 -0.360812
H188  H     H_    0.490508 0.212947 0.638096 0.212361
H189  H     H_    0.455738 0.235115 0.750526 0.213862
C148  C     C_3   0.548655 0.272091 0.728933 -0.887451
H190  H     H_    0.554612 0.283135 0.806463 0.245781
H191  H     H_    0.533115 0.315663 0.690847 0.256302
H192  H     H_    0.594346 0.257130 0.699110 0.295451

loop_
_geom_bond_atom_site_label_1
_geom_bond_atom_site_label_2
_ccdc_geom_bond_type
C140  H172  S    
C33   C45   A    
Cu2   O7    S    
C83   C84   S    
C53   C69   A    
O33   C125  S    
C98   H75   S    
Cu4   N3    S    
C77   H25   S    
C14   C30   A    
C87   H48   S    
C35   H19   S    
C111  H105  S    
C82   H36   S    
C22   C38   A    
C104  C105  S    
C52   H4    S    
C141  H174  S    
C17   C61   A    
C91   H59   S    
C122  H130  S    
C131  H151  S    
C56   C72   A    
C109  H100  S    
C86   H47   S    
C127  H143  S    
C96   C97   S    
C58   C61   S    
C90   H56   S    
C53   C75   A    
C16   O24   S    
C105  H91   S    
C105  H90   S    
C87   H49   S    
Cu4   O13   S    
C92   H61   S    
C80   C81   S    
C2    O3    A    
C109  H101  S    
O24   C98   S    
O35   C131  S    
C95   C96   S    
C81   H34   S    
C25   C41   A    
C134  H159  S    
C99   H76   S    
C67   N1    A    
C77   C78   S    
O25   C101  S    
C129  H146  S    
C75   C76   S    
C87   C88   S    
C54   C70   A    
C11   C27   A    
C139  H169  S    
C142  H176  S    
C131  C132  S    
C85   H43   S    
C23   C64   A    
C24   C63   A    
C116  H117  S    
O20   C86   S    
C49   C73   A    
Cu2   O5    S    
C51   H3    S    
C132  H154  S    
C110  C111  S    
C13   C29   A    
C15   O23   S    
C23   O31   S    
C121  H129  S    
C8    O15   A    
C26   H10   S    
C93   H63   S    
C30   H14   S    
C19   C35   A    
C121  H128  S    
C21   O29   S    
C117  C118  S    
C70   O38   S    
Cu3   N4    S    
C106  H94   S    
C33   H17   S    
C84   H42   S    
C96   H69   S    
C132  H153  S    
C79   H30   S    
C97   H72   S    
O40   C146  S    
C143  C144  S    
C55   C71   A    
C148  H191  S    
Cu4   O15   S    
C130  H149  S    
C138  H167  S    
C15   C60   A    
C4    O7    A    
O19   C83   S    
C81   C82   S    
C69   N3    A    
C129  C130  S    
Cu1   N2    S    
C122  H131  S    
C83   H40   S    
C52   C74   A    
C3    O8    A    
C50   C74   A    
C1    O4    A    
C112  H106  S    
C101  H82   S    
C56   H8    S    
C89   H53   S    
C139  H171  S    
C93   H62   S    
O29   C113  S    
C20   C61   A    
C145  H183  S    
C1    C43   S    
C72   N4    A    
C2    C44   S    
C115  H113  S    
C126  H140  S    
C27   H11   S    
C34   C46   A    
C37   C47   A    
C11   C58   A    
C38   C48   A    
C72   O40   S    
C91   H58   S    
C88   H51   S    
C120  C121  S    
C124  H135  S    
C7    O13   A    
C65   N1    A    
C103  H85   S    
C127  H142  S    
C136  H163  S    
C125  H138  S    
C118  H122  S    
C119  H123  S    
Cu2   O2    S    
C54   H6    S    
C66   O34   S    
O36   C134  S    
C18   C62   A    
C146  C147  S    
C65   O33   S    
C102  H83   S    
C9    O17   S    
C134  H158  S    
C139  H170  S    
C145  H185  S    
C95   H68   S    
C18   C34   A    
C137  H166  S    
C84   H41   S    
C144  C145  S    
C100  H78   S    
C108  H98   S    
C51   C67   A    
Cu1   O1    S    
C67   O35   S    
C12   C57   A    
C138  C139  S    
C135  H161  S    
C142  H178  S    
C6    O11   A    
C26   C42   A    
C137  C138  S    
C78   H27   S    
O28   C110  S    
C77   H26   S    
O18   C80   S    
C71   O39   S    
C112  H108  S    
C53   H5    S    
C15   C31   A    
C13   C59   A    
C16   C32   A    
C135  C136  S    
C14   C60   A    
Cu3   O16   S    
C93   C94   S    
C113  H109  S    
C31   H15   S    
C70   N4    A    
C37   H21   S    
C27   C42   A    
C8    O14   A    
C4    C42   S    
C111  C112  S    
C115  H115  S    
C104  H89   S    
C32   C43   A    
C105  C106  S    
C55   H7    S    
C8    C46   S    
C131  H152  S    
C120  H125  S    
C12   O20   S    
C141  C142  S    
C24   O32   S    
C96   H70   S    
C82   H38   S    
C147  H188  S    
C71   N3    A    
C73   C74   S    
C108  H97   S    
C119  C120  S    
O26   C104  S    
C143  H180  S    
C9    C25   A    
C146  H186  S    
C92   H60   S    
C102  C103  S    
C80   H33   S    
C133  H156  S    
C12   C28   A    
C4    O6    A    
C81   H35   S    
C14   O22   S    
C123  H132  S    
C99   H77   S    
C136  H164  S    
C144  H181  S    
C28   C41   A    
C100  H80   S    
C129  H147  S    
O32   C122  S    
C124  H134  S    
C49   H1    S    
Cu1   O3    S    
C143  H179  S    
C94   H66   S    
C1    O1    A    
C133  H157  S    
Cu3   O11   S    
O27   C107  S    
C18   O26   S    
C85   H44   S    
C78   C79   S    
C140  H173  S    
C116  H116  S    
C29   C43   A    
C30   C44   A    
C17   C33   A    
C141  H175  S    
Cu3   O14   S    
C110  H103  S    
C98   C99   S    
Cu4   O10   S    
C5    O12   A    
C85   H45   S    
C133  H155  S    
C147  C148  S    
C111  H104  S    
C136  H162  S    
O23   C95   S    
C114  C115  S    
C86   H46   S    
C109  H99   S    
C86   C87   S    
C36   H20   S    
C6    C48   S    
C123  C124  S    
C60   C63   S    
O17   C77   S    
Cu1   O6    S    
O22   C92   S    
C50   H2    S    
C148  H190  S    
C92   C93   S    
C2    O2    A    
C10   C58   A    
C10   O18   S    
C19   O27   S    
C134  C135  S    
C107  C108  S    
C39   H23   S    
C140  C141  S    
C25   H9    S    
O31   C119  S    
C94   H64   S    
C29   H13   S    
C11   O19   S    
C128  H144  S    
C114  H111  S    
C89   H54   S    
C69   O37   S    
Cu3   O9    S    
C34   H18   S    
C107  H96   S    
C145  H184  S    
C21   C63   A    
C128  H145  S    
C22   C64   A    
C130  H148  S    
C20   C36   A    
C21   C37   A    
O30   C116  S    
C115  H114  S    
C126  H139  S    
C116  C117  S    
Cu2   O4    S    
C35   C46   A    
C39   C48   A    
C89   C90   S    
C40   C47   A    
C98   H74   S    
Cu4   O12   S    
C88   H50   S    
C56   C76   A    
C120  H126  S    
O21   C89   S    
O39   C143  S    
C7    O16   A    
C103  H86   S    
C57   C62   S    
C90   H55   S    
C107  H95   S    
C5    C47   S    
C125  C126  S    
C59   C64   S    
C49   C65   A    
Cu2   N1    S    
C7    C45   S    
C118  H121  S    
C119  H124  S    
C121  H127  S    
C146  H187  S    
C19   C62   A    
C84   C85   S    
C24   C40   A    
C79   H29   S    
C144  H182  S    
C97   H71   S    
Cu1   O8    S    
C52   C68   A    
Cu1   Cu2   S    
C148  H192  S    
C10   C26   A    
C20   O28   S    
C130  H150  S    
C138  H168  S    
C142  H177  S    
C68   N2    A    
C66   N2    A    
C17   O25   S    
C31   C44   A    
C122  C123  S    
C83   H39   S    
C106  H93   S    
C3    O5    A    
C114  H112  S    
C101  H81   S    
C128  C129  S    
C5    O9    A    
C16   C59   A    
C113  H110  S    
O34   C128  S    
C40   H24   S    
C112  H107  S    
C126  C127  S    
C97   H73   S    
C104  H88   S    
C36   C45   A    
C28   H12   S    
C50   C66   A    
C54   C76   A    
C117  H119  S    
C91   H57   S    
C32   H16   S    
C118  H120  S    
C88   H52   S    
C124  H136  S    
C113  C114  S    
C117  H118  S    
C127  H141  S    
C90   C91   S    
C82   H37   S    
C125  H137  S    
C3    C41   S    
C147  H189  S    
C51   C73   A    
C101  C102  S    
C132  C133  S    
C110  H102  S    
C102  H84   S    
C80   H32   S    
C95   H67   S    
C55   C75   A    
C38   H22   S    
C123  H133  S    
C99   C100  S    
C137  H165  S    
C79   H31   S    
C23   C39   A    
C13   O21   S    
O38   C140  S    
C100  H79   S    
C108  C109  S    
C9    C57   A    
C103  H87   S    
C68   O36   S    
C94   H65   S    
Cu3   Cu4   S    
C22   O30   S    
C135  H160  S    
C106  H92   S    
O37   C137  S    
C6    O10   A    
C78   H28   S    
