data_mof_unit_22080.cif
_audit_creation_date              2012-10-26T19:57:53-0400
_audit_creation_method            fapswitch 2.2
_symmetry_space_group_name_H-M    P1
_symmetry_Int_Tables_number       1
_space_group_crystal_system       triclinic
_cell_length_a                    7.457788
_cell_length_b                    8.670517
_cell_length_c                    12.912565
_cell_angle_alpha                 88.026019
_cell_angle_beta                  79.804432
_cell_angle_gamma                 102.905731
_cell_volume                      798.634602273

loop_
_atom_site_label
_atom_site_type_symbol
_atom_type_description
_atom_site_fract_x
_atom_site_fract_y
_atom_site_fract_z
_atom_type_partial_charge
Br1   Br    Br    0.266763 0.226551 0.220670 -0.397501
Br2   Br    Br    0.577312 0.804387 0.803593 -0.382300
Br3   Br    Br    0.814906 0.821324 0.197979 -0.441306
Br4   Br    Br    0.286541 0.138981 0.781034 -0.437551
C1    C     C_R   0.452859 0.199745 0.502326 0.584366
C2    C     C_R   0.674557 0.655330 0.126932 0.086642
C3    C     C_R   0.540906 0.589763 0.865884 0.154939
C4    C     C_R   0.455043 0.396618 0.134496 0.147131
C5    C     C_R   0.572473 0.558248 0.967923 -0.003767
C6    C     C_R   0.479047 0.408942 0.023358 -0.002806
C7    C     C_2   0.426377 0.031804 0.503368 -0.076579
C8    C     C_2   0.573961 0.968341 0.494703 -0.081895
C9    C     C_2   0.379428 0.112234 0.005204 0.359299
C10   C     C_2   0.847024 0.795894 0.955592 0.345032
C11   C     C_R   0.547314 0.800339 0.496626 0.582764
C12   C     C_R   0.467157 0.490830 0.700822 0.616422
C13   C     C_R   0.532951 0.507143 0.298799 0.605670
C14   C     C_R   0.552138 0.520668 0.184971 0.025688
C15   C     C_R   0.453129 0.465544 0.813240 0.032712
C16   C     C_R   0.406356 0.280247 0.965769 0.036583
C17   C     C_R   0.690042 0.672179 0.017403 0.046425
C18   C     C_R   0.388633 0.310731 0.861275 0.072152
Cu1   Cu    Cu3+1 0.686350 0.517570 0.488220 1.088751
Cu2   Cu    Cu3+1 0.313650 0.482430 0.511780 1.093505
H1    H     H_    0.934388 0.376521 0.583160 0.254516
H2    H     H_    0.065598 0.623453 0.416817 0.257118
H3    H     H_    0.284181 0.960056 0.511784 0.159151
H4    H     H_    0.716154 0.040093 0.486307 0.156313
H5    H     H_    0.261403 0.022343 0.990906 0.170199
H6    H     H_    0.885099 0.913420 0.983133 0.174325
N1    N     N_2   0.033570 0.455950 0.529530 -0.244054
N2    N     N_2   0.966430 0.544050 0.470470 -0.243198
O1    O     O_R   0.621060 0.286250 0.492350 -0.516798
O2    O     O_2   0.940099 0.765216 0.874551 -0.426011
O3    O     O_R   0.378940 0.713750 0.507650 -0.513709
O4    O     O_R   0.306310 0.256580 0.512240 -0.470023
O5    O     O_R   0.693690 0.743420 0.487760 -0.471780
O6    O     O_R   0.631800 0.512400 0.642670 -0.491408
O7    O     O_R   0.368200 0.487600 0.357330 -0.485249
O8    O     O_R   0.317060 0.482730 0.662570 -0.461018
O9    O     O_R   0.682940 0.517270 0.337430 -0.466199
O10   O     O_2   0.494043 0.071820 0.050515 -0.436551

loop_
_geom_bond_atom_site_label_1
_geom_bond_atom_site_label_2
_ccdc_geom_bond_type
C10   O2    D    
C7    C8    D    
C12   O8    A    
H1    N1    S    
Br1   C4    S    
Br4   C18   S    
C5    C6    A    
Br2   C3    S    
Cu1   O9    S    
C8    C11   S    
C7    H3    S    
Cu1   Cu2   S    
Br3   C2    S    
Cu1   N2    S    
C15   C18   A    
C13   C14   S    
Cu2   N1    S    
H2    N2    S    
C5    C17   A    
Cu2   O4    S    
C6    C16   A    
C8    H4    S    
C12   C15   S    
C10   C17   S    
C9    H5    S    
C9    O10   D    
Cu2   O8    S    
C10   H6    S    
C1    C7    S    
C3    C15   A    
C2    C14   A    
C13   O9    A    
Cu2   O3    S    
Cu1   O6    S    
C1    O4    A    
Cu2   O7    S    
C4    C6    A    
C13   O7    A    
C11   O3    A    
C3    C5    A    
C11   O5    A    
C9    C16   S    
C12   O6    A    
Cu1   O5    S    
C2    C17   A    
C4    C14   A    
N1    N2    D    
C16   C18   A    
Cu1   O1    S    
C1    O1    A    
