data_mof_unit_30861.cif
_audit_creation_date              2012-12-10T19:43:25-0500
_audit_creation_method            fapswitch 2.2
_symmetry_space_group_name_H-M    P1
_symmetry_Int_Tables_number       1
_space_group_crystal_system       triclinic
_cell_length_a                    10.876728
_cell_length_b                    10.860644
_cell_length_c                    9.60775
_cell_angle_alpha                 89.367713
_cell_angle_beta                  91.573836
_cell_angle_gamma                 93.32846
_cell_volume                      1132.5542451

loop_
_atom_site_label
_atom_site_type_symbol
_atom_type_description
_atom_site_fract_x
_atom_site_fract_y
_atom_site_fract_z
_atom_type_partial_charge
C1    C     C_R   0.505853 0.262261 0.502136 0.817985
C2    C     C_R   0.163520 0.605485 0.959524 -0.084917
C3    C     C_R   0.931784 0.538610 0.385979 -0.242043
C4    C     C_R   0.871076 0.497439 0.505351 -0.057778
C5    C     C_R   0.939184 0.454352 0.621276 0.004001
C6    C     C_R   0.066850 0.456988 0.615459 -0.231924
C7    C     C_R   0.127760 0.497467 0.495182 -0.064183
C8    C     C_R   0.058424 0.535372 0.377550 -0.003997
C9    C     C_R   0.873230 0.467785 0.867272 -0.087420
C10   C     C_R   0.824358 0.412738 0.987440 -0.154676
C11   C     C_R   0.784082 0.288220 0.987368 -0.107393
C12   C     C_R   0.262184 0.499262 0.498023 0.802848
C13   C     C_R   0.793126 0.218375 0.867131 -0.158049
C14   C     C_R   0.840820 0.273372 0.746279 -0.158611
C15   C     C_R   0.881430 0.398397 0.745994 0.122219
C16   C     C_R   0.496331 0.108067 0.769711 -0.163827
C17   C     C_R   0.450989 0.042113 0.884261 -0.255548
C18   C     C_R   0.391642 0.926867 0.865699 -0.206660
C19   C     C_R   0.388046 0.872531 0.734987 0.622377
C20   C     C_R   0.449221 0.931932 0.621953 -0.004753
C21   C     C_R   0.485800 0.058144 0.633465 -0.034091
C22   C     C_R   0.510121 0.127104 0.508373 -0.211485
C23   C     C_R   0.489821 0.736420 0.499252 0.927662
C24   C     C_R   0.524737 0.064030 0.383342 0.581110
C25   C     C_R   0.513218 0.936850 0.380741 -0.298855
C26   C     C_R   0.477546 0.869648 0.499181 -0.185231
C27   C     C_R   0.652730 0.673900 0.151124 -0.180569
C28   C     C_R   0.722813 0.765760 0.085625 -0.337512
C29   C     C_R   0.724757 0.769516 0.943492 -0.228059
C30   C     C_R   0.658282 0.680671 0.865029 0.609100
C31   C     C_R   0.575662 0.588321 0.927385 0.099686
C32   C     C_R   0.574389 0.587155 0.077274 0.146177
C33   C     C_R   0.432242 0.414967 0.072575 0.007174
C34   C     C_R   0.737334 0.497973 0.502039 0.827998
C35   C     C_R   0.431934 0.415234 0.924896 -0.077686
C36   C     C_R   0.146118 0.704425 0.047313 -0.142893
C37   C     C_R   0.119051 0.682679 0.187154 -0.153752
C38   C     C_R   0.109529 0.561488 0.239416 0.143987
C39   C     C_R   0.126594 0.462670 0.150665 -0.114263
C40   C     C_R   0.153429 0.484804 0.011269 -0.172825
Cu1   Cu    Cu3+1 0.499990 0.499990 0.640660 1.017770
Cu2   Cu    Cu3+1 0.500010 0.500010 0.359340 0.969511
H1    H     H_    0.181627 0.621696 0.850748 0.212251
H2    H     H_    0.746406 0.245772 0.080570 0.184955
H3    H     H_    0.763007 0.121612 0.867530 0.147544
H4    H     H_    0.847602 0.218417 0.653707 0.126142
H5    H     H_    0.544917 0.194569 0.793285 0.196917
H6    H     H_    0.350141 0.878841 0.953279 0.155397
H7    H     H_    0.150034 0.797614 0.006235 0.140053
H8    H     H_    0.779960 0.831720 0.146009 0.186106
H9    H     H_    0.784652 0.838527 0.892944 0.178306
H10   H     H_    0.375322 0.346089 0.868898 0.125716
H11   H     H_    0.101396 0.759453 0.253311 0.131452
H12   H     H_    0.164125 0.407873 0.943133 0.121466
H13   H     H_    0.118643 0.422503 0.703908 0.144901
H14   H     H_    0.818177 0.466471 0.080728 0.144328
N1    N     N_R   0.501190 0.501210 0.147910 -0.184778
N2    N     N_R   0.501230 0.501290 0.852040 -0.176382
O1    O     O_R   0.499990 0.319640 0.618810 -0.617980
O2    O     O_R   0.500000 0.319660 0.381240 -0.524348
O3    O     O_R   0.319640 0.500000 0.618780 -0.562893
O4    O     O_R   0.319650 0.500020 0.381210 -0.589885
O5    O     O_R   0.500000 0.680340 0.618760 -0.474865
O6    O     O_R   0.500010 0.680360 0.381190 -0.628556
O7    O     O_R   0.680350 0.499980 0.618790 -0.508975
O8    O     O_R   0.680360 0.500000 0.381220 -0.624555
F1    F     F_    0.555534 0.124612 0.263698 -0.694699
H15   H     H_    0.459048 0.082142 0.987056 0.209687
F2    F     F_    0.317299 0.766696 0.717155 -0.705050
H16   H     H_    0.533801 0.890961 0.285303 0.194329
H17   H     H_    0.375970 0.345409 0.126600 0.139910
H18   H     H_    0.666956 0.674246 0.260318 0.220944
F3    F     F_    0.690430 0.686806 0.731933 -0.671715
H19   H     H_    0.115013 0.368465 0.188414 0.120019
H20   H     H_    0.879973 0.570760 0.296061 0.153189
H21   H     H_    0.905022 0.564101 0.868736 0.150463

loop_
_geom_bond_atom_site_label_1
_geom_bond_atom_site_label_2
_ccdc_geom_bond_type
C16   C21   A    
Cu1   Cu2   S    
C19   C20   A    
Cu1   O3    S    
C6    H13   S    
C34   O8    A    
C7    C8    A    
C14   H4    S    
C37   C38   A    
C35   N2    A    
C5    C6    A    
C31   N2    A    
C36   C37   A    
Cu1   N2    S    
C1    O1    A    
C30   C31   A    
C23   C26   S    
C34   O7    A    
C18   C19   A    
C39   H19   S    
C24   F1    S    
C28   H8    S    
C16   C17   A    
C9    H21   S    
C10   H14   S    
C9    C10   A    
Cu2   O4    S    
C37   H11   S    
C23   O5    A    
C1    C22   S    
C21   C22   A    
C8    C38   S    
C32   N1    A    
Cu2   N1    S    
C7    C12   S    
C4    C34   S    
C24   C25   A    
Cu1   O1    S    
C3    C8    A    
C1    O2    A    
Cu2   O2    S    
C39   C40   A    
C30   F3    S    
C16   H5    S    
Cu1   O7    S    
C25   C26   A    
C29   C30   A    
C12   O4    A    
C31   C32   A    
C2    H1    S    
C17   C18   A    
C11   H2    S    
C23   O6    A    
C40   H12   S    
C22   C24   A    
C19   F2    S    
Cu1   O5    S    
C3    C4    A    
Cu2   O6    S    
C27   C28   A    
C3    H20   S    
C29   H9    S    
C2    C36   A    
C28   C29   A    
C17   H15   S    
C33   N1    A    
C27   C32   A    
C4    C5    A    
C18   H6    S    
C27   H18   S    
C6    C7    A    
C9    C15   A    
C13   H3    S    
C12   O3    A    
C11   C13   A    
C38   C39   A    
C20   C26   A    
C33   C35   A    
C5    C15   S    
C10   C11   A    
C33   H17   S    
C2    C40   A    
C20   C21   A    
C35   H10   S    
Cu2   O8    S    
C14   C15   A    
C25   H16   S    
C13   C14   A    
C36   H7    S    
