data_mof_unit_54069.cif
_audit_creation_date              2012-12-10T17:50:15-0500
_audit_creation_method            fapswitch 2.2
_symmetry_space_group_name_H-M    P1
_symmetry_Int_Tables_number       1
_space_group_crystal_system       triclinic
_cell_length_a                    10.66727
_cell_length_b                    14.765074
_cell_length_c                    14.774284
_cell_angle_alpha                 64.907741
_cell_angle_beta                  104.942208
_cell_angle_gamma                 103.187067
_cell_volume                      2017.27935386

loop_
_atom_site_label
_atom_site_type_symbol
_atom_type_description
_atom_site_fract_x
_atom_site_fract_y
_atom_site_fract_z
_atom_type_partial_charge
C1    C     C_R   0.477395 0.119730 0.311673 0.825721
C2    C     C_R   0.475608 0.531308 0.945361 0.095452
C3    C     C_R   0.430174 0.491390 0.869411 -0.232139
C4    C     C_R   0.579713 0.495944 0.121363 -0.228935
C5    C     C_R   0.415065 0.388028 0.893346 -0.210255
C6    C     C_R   0.630133 0.596289 0.096902 -0.220404
C7    C     C_R   0.756308 0.310318 0.630702 0.371544
C8    C     C_R   0.274660 0.707522 0.335547 0.380141
C9    C     C_R   0.707279 0.217797 0.619247 0.247594
C10   C     C_R   0.306496 0.790507 0.364777 0.240600
C11   C     C_R   0.509865 0.280721 0.518379 -0.043448
C12   C     C_R   0.518620 0.880508 0.688862 0.810799
C13   C     C_R   0.488093 0.718014 0.484631 -0.016263
C14   C     C_R   0.544823 0.368988 0.542152 -0.119007
C15   C     C_R   0.442863 0.623478 0.473122 -0.130283
C16   C     C_R   0.259601 0.998866 0.501535 0.830904
C17   C     C_R   0.740214 0.999582 0.500619 0.850265
C18   C     C_R   0.672583 0.383915 0.597713 -0.126621
C19   C     C_R   0.331181 0.619030 0.397911 -0.115119
C20   C     C_R   0.461998 0.446742 0.506118 0.003019
C21   C     C_R   0.509016 0.535828 0.528124 -0.004135
C22   C     C_R   0.621097 0.533142 0.604333 0.023591
C23   C     C_R   0.445752 0.288918 0.171526 0.080274
C24   C     C_R   0.331622 0.438064 0.452758 0.002872
C25   C     C_R   0.712533 0.470205 0.622740 0.466747
C26   C     C_R   0.274097 0.526076 0.388759 0.447622
C27   C     C_3   0.020001 0.041672 0.407190 0.074571
C28   C     C_3   0.976386 0.952246 0.598860 0.071030
C29   C     C_3   0.973759 0.093879 0.461699 -0.290577
C30   C     C_3   0.024426 0.899803 0.545076 -0.373144
C31   C     C_3   0.876538 0.998021 0.502600 -0.120602
C32   C     C_3   0.122535 0.996940 0.503097 -0.167107
C33   C     C_3   0.922894 0.946540 0.448618 0.504212
C34   C     C_R   0.467422 0.712806 0.826775 0.078948
C35   C     C_3   0.075041 0.046898 0.558114 0.504598
C36   C     C_R   0.462382 0.187089 0.202059 -0.132352
C37   C     C_R   0.530854 0.813275 0.799641 -0.124804
C38   C     C_R   0.430891 0.214784 0.022584 0.193594
C39   C     C_R   0.651006 0.771244 0.974941 0.176423
C40   C     C_R   0.466276 0.152328 0.126609 0.110383
C41   C     C_R   0.609056 0.844664 0.878080 0.130554
C42   C     C_3   0.212233 0.867818 0.316731 -0.789592
C43   C     C_3   0.795442 0.136199 0.673925 -0.761407
C44   C     C_3   0.978580 0.344831 0.632050 0.119905
C45   C     C_R   0.459318 0.357143 0.072028 0.030584
C46   C     C_3   0.104975 0.311951 0.704861 -0.805088
C47   C     C_3   0.246378 0.766633 0.163391 0.049263
C48   C     C_3   0.145898 0.781433 0.065892 -0.796594
C49   C     C_3   0.634670 0.578181 0.681965 -0.816338
C50   C     C_3   0.240953 0.338976 0.482260 -0.781605
C51   C     C_3   0.043691 0.092886 0.298441 -0.863830
C52   C     C_3   0.942009 0.897714 0.704713 -0.898721
C53   C     C_3   0.883442 0.836744 0.365945 0.075345
C54   C     C_3   0.775144 0.762660 0.335122 -0.817777
C55   C     C_3   0.217779 0.044205 0.706856 0.091998
C56   C     C_R   0.511875 0.637361 0.922348 0.026717
C57   C     C_3   0.341886 0.104189 0.741401 -0.823792
C58   C     C_3   0.332738 0.695419 0.765760 -0.866021
C59   C     C_3   0.393502 0.322243 0.237377 -0.852182
C60   C     C_3   0.635814 0.953896 0.866587 -0.853819
C61   C     C_3   0.515251 0.053198 0.155741 -0.808052
C62   C     C_3   0.393912 0.171276 0.941834 -0.913091
C63   C     C_3   0.754132 0.801504 0.053766 -0.892254
C64   C     C_3   0.904704 0.576525 0.607723 0.074328
C65   C     C_3   0.044306 0.595356 0.660922 -0.797799
C66   C     C_3   0.151536 0.497227 0.248969 0.116312
C67   C     C_R   0.433264 0.319357 0.995134 0.074450
C68   C     C_3   0.012468 0.485366 0.191217 -0.769347
C69   C     C_R   0.598812 0.668541 0.997958 0.064008
C70   C     C_R   0.499899 0.461798 0.047475 0.093122
Cu1   Cu    Cu3+1 0.465750 0.918270 0.475680 0.938111
Cu2   Cu    Cu3+1 0.534250 0.081730 0.524320 0.919635
H1    H     H_    0.951489 0.172659 0.429144 0.162322
H2    H     H_    0.259952 0.945323 0.282456 0.244216
H3    H     H_    0.136329 0.856384 0.253979 0.220263
H4    H     H_    0.744501 0.060273 0.688262 0.263685
H5    H     H_    0.872646 0.148381 0.630580 0.225198
H6    H     H_    0.843972 0.135725 0.750202 0.220080
H7    H     H_    0.995623 0.427109 0.588605 0.160883
H8    H     H_    0.955692 0.309125 0.575802 0.115566
H9    H     H_    0.125893 0.341841 0.765462 0.260284
H10   H     H_    0.095762 0.228263 0.740444 0.247400
H11   H     H_    0.188326 0.341317 0.663627 0.207208
H12   H     H_    0.048712 0.821616 0.580263 0.160341
H13   H     H_    0.322770 0.725368 0.164999 0.130225
H14   H     H_    0.293325 0.842873 0.161079 0.135900
H15   H     H_    0.098079 0.707394 0.063085 0.248731
H16   H     H_    0.070249 0.824330 0.061903 0.245908
H17   H     H_    0.194921 0.824576 0.999105 0.197762
H18   H     H_    0.654381 0.519256 0.759831 0.257107
H19   H     H_    0.716083 0.641278 0.674583 0.224698
H20   H     H_    0.543289 0.605101 0.676039 0.218052
H21   H     H_    0.145016 0.350614 0.488730 0.245776
H22   H     H_    0.222046 0.304648 0.425507 0.220959
H23   H     H_    0.581245 0.731524 0.529732 0.177231
H24   H     H_    0.281346 0.285186 0.558069 0.268243
H25   H     H_    0.949246 0.109480 0.245434 0.248802
H26   H     H_    0.110320 0.164550 0.288897 0.227653
H27   H     H_    0.088638 0.043090 0.280747 0.223925
H28   H     H_    0.026131 0.861114 0.759755 0.226668
H29   H     H_    0.916840 0.952011 0.728693 0.231787
H30   H     H_    0.856669 0.838578 0.703747 0.240596
H31   H     H_    0.954057 0.791593 0.430168 0.127952
H32   H     H_    0.932334 0.885130 0.300025 0.161329
H33   H     H_    0.699781 0.804182 0.272904 0.251031
H34   H     H_    0.423733 0.271963 0.464700 0.175235
H35   H     H_    0.816681 0.717531 0.308860 0.210640
H36   H     H_    0.727915 0.710662 0.401011 0.234987
H37   H     H_    0.245192 0.975389 0.707430 0.132507
H38   H     H_    0.152041 0.021790 0.762301 0.156701
H39   H     H_    0.319369 0.175202 0.738472 0.247681
H40   H     H_    0.385513 0.058641 0.820468 0.203896
H41   H     H_    0.413319 0.122968 0.691299 0.274579
H42   H     H_    0.339535 0.684025 0.697751 0.250151
H43   H     H_    0.270921 0.629941 0.812981 0.237606
H44   H     H_    0.280061 0.761486 0.739841 0.218077
H45   H     H_    0.391841 0.363366 0.830929 0.164705
H46   H     H_    0.472714 0.336587 0.296940 0.239648
H47   H     H_    0.347500 0.392178 0.191347 0.218981
H48   H     H_    0.316065 0.263750 0.273912 0.221803
H49   H     H_    0.567505 0.002282 0.805588 0.257478
H50   H     H_    0.620048 0.959183 0.935560 0.230115
H51   H     H_    0.738574 0.984632 0.857539 0.227764
H52   H     H_    0.598458 0.041431 0.220944 0.250798
H53   H     H_    0.434851 0.989759 0.175182 0.228391
H54   H     H_    0.555612 0.052684 0.093877 0.226409
H55   H     H_    0.376146 0.087645 0.973806 0.242878
H56   H     H_    0.693101 0.615862 0.157957 0.164187
H57   H     H_    0.300078 0.195633 0.892174 0.232577
H58   H     H_    0.472251 0.197601 0.895794 0.243341
H59   H     H_    0.804041 0.879866 0.023863 0.243981
H60   H     H_    0.708045 0.792407 0.116822 0.228632
H61   H     H_    0.833738 0.753565 0.083630 0.237722
H62   H     H_    0.858097 0.644731 0.585522 0.144503
H63   H     H_    0.907018 0.568357 0.536654 0.119840
H64   H     H_    0.093754 0.527327 0.690137 0.262293
H65   H     H_    0.100229 0.658877 0.606618 0.195398
H66   H     H_    0.043300 0.614845 0.725496 0.249116
H67   H     H_    0.417249 0.538766 0.790174 0.167491
H68   H     H_    0.192905 0.426670 0.271773 0.122713
H69   H     H_    0.211196 0.559812 0.196871 0.146685
H70   H     H_    0.966680 0.554233 0.167866 0.261443
H71   H     H_    0.013803 0.473147 0.122324 0.198874
H72   H     H_    0.952908 0.419468 0.240353 0.237758
H73   H     H_    0.613446 0.444080 0.197463 0.165991
H74   H     H_    0.155615 0.859223 0.373124 0.220142
N1    N     N_R   0.585750 0.204560 0.560800 -0.207978
N2    N     N_R   0.414250 0.795440 0.439200 -0.193211
O1    O     O_R   0.454850 0.022100 0.338110 -0.581323
O2    O     O_3   0.183552 0.711608 0.248368 -0.547805
O3    O     O_3   0.827113 0.897153 0.392639 -0.571160
O4    O     O_3   0.156450 0.106092 0.610141 -0.591745
O5    O     O_3   0.837796 0.488699 0.674025 -0.520495
O6    O     O_3   0.148287 0.517633 0.333564 -0.543549
O7    O     O_R   0.545150 0.977900 0.661890 -0.598952
O8    O     O_R   0.512700 0.160150 0.379180 -0.572938
O9    O     O_R   0.487300 0.839850 0.620820 -0.573939
O10   O     O_R   0.287930 0.931000 0.479440 -0.587902
O11   O     O_R   0.712070 0.069000 0.520560 -0.594712
O12   O     O_R   0.345780 0.069050 0.520520 -0.561476
O13   O     O_R   0.654220 0.930950 0.479480 -0.543920
O14   O     O_3   0.879083 0.320896 0.689406 -0.533127

loop_
_geom_bond_atom_site_label_1
_geom_bond_atom_site_label_2
_ccdc_geom_bond_type
C51   H25   S    
C6    C69   A    
C66   C68   S    
C34   C56   A    
C59   H48   S    
Cu2   O8    S    
C16   O12   A    
C34   C37   A    
C14   C18   A    
C8    O2    S    
C49   H18   S    
C5    C67   A    
C50   H24   S    
C4    C70   A    
C55   O4    S    
C39   C41   A    
C66   H69   S    
Cu1   O1    S    
C53   C54   S    
C27   C33   S    
C43   H6    S    
C23   C59   S    
C52   H30   S    
C42   H3    S    
Cu2   O11   S    
C54   H35   S    
C13   H23   S    
C61   H52   S    
C23   C45   A    
C47   H13   S    
C24   C26   A    
C62   H55   S    
C11   C14   A    
C57   H40   S    
C29   H1    S    
C53   H32   S    
C34   C58   S    
C30   H12   S    
C27   C29   S    
C68   H71   S    
C12   C37   S    
C19   C26   A    
C62   H58   S    
C16   C32   S    
C46   H10   S    
C20   C24   A    
C28   C35   S    
C44   C46   S    
C22   C25   A    
C45   C67   A    
C48   H16   S    
C68   H70   S    
C61   H54   S    
C63   H59   S    
C12   O9    A    
C30   C32   S    
C54   H33   S    
C65   H65   S    
C51   H26   S    
Cu1   N2    S    
C45   C70   A    
C64   H63   S    
Cu2   O7    S    
C21   C22   A    
C55   H37   S    
C58   H44   S    
C62   H57   S    
C18   C25   A    
C44   O14   S    
C49   H19   S    
C27   C51   S    
C28   C31   S    
C24   C50   S    
Cu1   O9    S    
C7    O14   S    
C64   H62   S    
C52   H29   S    
C42   H2    S    
C8    C19   A    
C9    C43   S    
C25   O5    S    
C47   H14   S    
C14   C20   A    
C44   H8    S    
C4    C6    A    
C33   O3    S    
C66   O6    S    
C50   H22   S    
C57   H41   S    
C16   O10   A    
C64   O5    S    
C9    N1    A    
C40   C61   S    
C5    H45   S    
C1    O8    A    
C15   C19   A    
C32   C35   S    
C46   H9    S    
C47   C48   S    
C47   O2    S    
C36   C40   A    
C7    C18   A    
C11   H34   S    
C31   C33   S    
C39   C69   A    
C48   H15   S    
C63   H60   S    
C38   C67   A    
C1    O1    A    
C10   C42   S    
C17   O13   A    
C22   C49   S    
C65   H66   S    
C23   C36   A    
C59   H46   S    
C48   H17   S    
C55   C57   S    
C55   H38   S    
C58   H43   S    
C17   C31   S    
C26   O6    S    
C3    H67   S    
C35   O4    S    
C49   H20   S    
C51   H27   S    
C42   H74   S    
C63   H61   S    
C58   H42   S    
C43   H4    S    
C7    C9    A    
Cu1   O10   S    
C59   H47   S    
Cu1   O13   S    
C30   C33   S    
C27   C32   S    
C44   H7    S    
C41   C60   S    
C3    C5    A    
C50   H21   S    
C43   H5    S    
Cu2   N1    S    
C39   C63   S    
C29   C35   S    
Cu2   O12   S    
C54   H36   S    
C64   C65   S    
C13   C15   A    
C2    C3    A    
C6    H56   S    
Cu1   Cu2   S    
C29   C31   S    
C2    C56   A    
C38   C40   A    
C28   C52   S    
C11   N1    A    
C57   H39   S    
C53   H31   S    
C4    H73   S    
C28   C30   S    
C52   H28   S    
C68   H72   S    
C37   C41   A    
C60   H49   S    
C17   O11   A    
C65   H64   S    
C46   H11   S    
C60   H50   S    
C15   C21   A    
C60   H51   S    
C66   H68   S    
C20   C21   A    
C8    C10   A    
C56   C69   A    
C53   O3    S    
C61   H53   S    
C12   O7    A    
C13   N2    A    
C2    C70   A    
C1    C36   S    
C10   N2    A    
C38   C62   S    
