data_mof_unit_18239.cif
_audit_creation_date              2012-12-10T17:50:40-0500
_audit_creation_method            fapswitch 2.2
_symmetry_space_group_name_H-M    P1
_symmetry_Int_Tables_number       1
_space_group_crystal_system       triclinic
_cell_length_a                    15.73308
_cell_length_b                    10.699594
_cell_length_c                    9.92188
_cell_angle_alpha                 92.061071
_cell_angle_beta                  90.970627
_cell_angle_gamma                 92.355464
_cell_volume                      1667.4505866

loop_
_atom_site_label
_atom_site_type_symbol
_atom_type_description
_atom_site_fract_x
_atom_site_fract_y
_atom_site_fract_z
_atom_type_partial_charge
C1    C     C_R   0.503644 0.259359 0.498130 0.921150
C2    C     C_R   0.572563 0.064965 0.849576 -0.230631
C3    C     C_R   0.522385 0.957631 0.870630 -0.081968
C4    C     C_R   0.338085 0.499288 0.498923 0.872506
C5    C     C_R   0.477201 0.897025 0.763028 0.530034
C6    C     C_R   0.487388 0.941575 0.629926 -0.115429
C7    C     C_R   0.521819 0.062441 0.615661 -0.017491
C8    C     C_R   0.502482 0.123989 0.495551 -0.187468
C9    C     C_R   0.463954 0.057268 0.383814 0.323257
C10   C     C_R   0.452730 0.927574 0.388092 0.346527
C11   C     C_R   0.469658 0.869549 0.509614 -0.242367
C12   C     C_3   0.083231 0.495306 0.496591 -0.136434
C13   C     C_R   0.383943 0.342347 0.130937 -0.095240
C14   C     C_R   0.325753 0.264827 0.057100 -0.321065
C15   C     C_R   0.326343 0.261751 0.916453 0.472095
C16   C     C_R   0.488747 0.738132 0.502588 0.947673
C17   C     C_R   0.384968 0.338559 0.851267 -0.102952
C18   C     C_R   0.443211 0.420850 0.923226 0.007564
C19   C     C_R   0.442957 0.421770 0.067612 0.126838
C20   C     C_R   0.554270 0.575241 0.077193 -0.068988
C21   C     C_R   0.554553 0.576510 0.934865 0.495054
C22   C     C_R   0.661937 0.500252 0.501090 0.879306
C23   C     C_3   0.977906 0.572286 0.603093 0.274312
C24   C     C_3   0.969370 0.380233 0.516546 0.330091
C25   C     C_3   0.023752 0.418294 0.395282 -0.421825
C26   C     C_1   0.249252 0.497672 0.496548 -0.143039
C27   C     C_1   0.750782 0.499104 0.503485 -0.142224
C28   C     C_3   0.029327 0.453969 0.616908 0.397558
C29   C     C_3   0.993507 0.584817 0.161898 -0.273411
C30   C     C_3   0.008973 0.820882 0.443587 -0.253456
C31   C     C_3   0.014930 0.704899 0.784766 -0.265974
C32   C     C_3   0.005401 0.365461 0.822067 -0.253786
C33   C     C_3   0.916807 0.497183 0.503297 -0.111590
C34   C     C_3   0.030690 0.613201 0.482013 0.357833
C35   C     C_3   0.971054 0.536832 0.382973 0.434861
C36   C     C_1   0.174011 0.496269 0.495644 0.132179
C37   C     C_1   0.825998 0.498019 0.504397 0.158828
C38   C     C_R   0.571456 0.118594 0.723663 -0.109223
H1    H     H_    0.045057 0.354646 0.312910 0.180786
H2    H     H_    0.445562 0.896420 0.193725 0.340948
H3    H     H_    0.233613 0.136183 0.900452 0.336424
H4    H     H_    0.602854 0.655539 0.780964 0.389757
H5    H     H_    0.981476 0.203781 0.530637 0.340301
H6    H     H_    0.009440 0.488900 0.127138 0.158880
H7    H     H_    0.052216 0.640191 0.194296 0.185653
H8    H     H_    0.965391 0.631176 0.074533 0.191563
H9    H     H_    0.960931 0.820972 0.524471 0.194924
H10   H     H_    0.977122 0.806457 0.343292 0.199164
H11   H     H_    0.041204 0.915129 0.446199 0.182414
H12   H     H_    0.517683 0.922155 0.971143 0.158294
H13   H     H_    0.058742 0.761553 0.722350 0.203010
H14   H     H_    0.050651 0.633818 0.838437 0.189499
H15   H     H_    0.989013 0.769285 0.862410 0.178301
H16   H     H_    0.976724 0.274494 0.783121 0.201657
H17   H     H_    0.955087 0.433831 0.840405 0.186678
H18   H     H_    0.036163 0.348699 0.920797 0.170408
H19   H     H_    0.387977 0.073555 0.229807 0.338717
H20   H     H_    0.598358 0.636776 0.135562 0.171877
H21   H     H_    0.382152 0.336029 0.237636 0.236786
H22   H     H_    0.280978 0.205663 0.110074 0.148304
H23   H     H_    0.382692 0.330461 0.744156 0.218570
H24   H     H_    0.609676 0.203737 0.711651 0.169710
H25   H     H_    0.609056 0.110105 0.932457 0.172467
H26   H     H_    0.377159 0.791366 0.717206 0.339964
N1    N     N_R   0.499210 0.498800 0.142780 -0.149644
N2    N     N_R   0.499180 0.498720 0.857170 -0.159846
O1    O     O_R   0.500000 0.316780 0.614690 -0.663960
O2    O     O_3   0.424759 0.855960 0.275863 -0.738144
O3    O     O_3   0.270795 0.184406 0.839496 -0.753058
O4    O     O_3   0.612265 0.658471 0.878886 -0.771136
O5    O     O_3   0.933195 0.260430 0.533444 -0.752219
O6    O     O_3   0.932988 0.580441 0.264762 -0.591848
O7    O     O_3   0.070923 0.731456 0.462928 -0.607029
O8    O     O_3   0.946421 0.649317 0.707767 -0.599938
O9    O     O_3   0.068255 0.410576 0.734605 -0.593124
O10   O     O_3   0.438057 0.119616 0.272086 -0.780532
O11   O     O_R   0.499990 0.316750 0.385360 -0.572104
O12   O     O_R   0.376780 0.500000 0.614650 -0.622466
O13   O     O_R   0.376770 0.499980 0.385310 -0.632280
O14   O     O_R   0.500010 0.683250 0.614640 -0.630937
O15   O     O_R   0.500000 0.683220 0.385310 -0.557133
O16   O     O_R   0.623230 0.500020 0.614690 -0.633571
O17   O     O_R   0.623220 0.500000 0.385350 -0.611987
O18   O     O_3   0.418498 0.803319 0.793612 -0.745819
Zn1   Zn    Zn3+2 0.500010 0.500020 0.653130 0.957921
Zn2   Zn    Zn3+2 0.499990 0.499980 0.346870 0.990698

loop_
_geom_bond_atom_site_label_1
_geom_bond_atom_site_label_2
_ccdc_geom_bond_type
C21   N2    A    
C1    C8    S    
C1    O11   A    
C5    O18   S    
C31   H14   S    
N2    Zn1   S    
N1    Zn2   S    
C12   C28   S    
C22   O16   A    
H19   O10   S    
C30   H10   S    
C18   C19   A    
C5    C6    A    
H4    O4    S    
C34   C35   S    
H26   O18   S    
C17   H23   S    
C8    C9    A    
C23   C33   S    
C9    O10   S    
C12   C36   S    
C9    C10   A    
C32   H17   S    
O15   Zn2   S    
C29   O6    S    
C13   C14   A    
C32   O9    S    
C32   H16   S    
C3    H12   S    
C15   O3    S    
O1    Zn1   S    
C13   C19   A    
C20   N1    A    
C7    C8    A    
C24   C25   S    
C4    O13   A    
C6    C11   A    
C30   O7    S    
C31   O8    S    
C33   C37   S    
C1    O1    A    
C29   H7    S    
C16   O14   A    
C4    O12   A    
O14   Zn1   S    
C30   H9    S    
C11   C16   S    
C2    C38   A    
C23   C34   S    
C17   C18   A    
C23   C28   S    
C31   H15   S    
C25   C35   S    
O12   Zn1   S    
C26   C36   T    
C30   H11   S    
C35   O6    S    
C22   C27   S    
C29   H6    S    
C12   C25   S    
C12   C34   S    
C2    H25   S    
H3    O3    S    
C15   C17   A    
H5    O5    S    
C24   C28   S    
C31   H13   S    
C3    C5    A    
O11   Zn2   S    
C4    C26   S    
C6    C7    A    
C13   H21   S    
C10   O2    S    
C18   N2    A    
O16   Zn1   S    
C14   H22   S    
C21   O4    S    
C24   C33   S    
C29   H8    S    
C22   O17   A    
C2    C3    A    
C25   H1    S    
C27   C37   T    
C16   O15   A    
C33   C35   S    
C7    C38   A    
C19   N1    A    
C10   C11   A    
C34   O7    S    
O17   Zn2   S    
C20   C21   A    
H2    O2    S    
C14   C15   A    
C23   O8    S    
C28   O9    S    
C20   H20   S    
C32   H18   S    
O13   Zn2   S    
C24   O5    S    
C38   H24   S    
