data_mof_unit_48781.cif
_audit_creation_date              2013-03-05T16:39:16-0500
_audit_creation_method            fapswitch 2.2
_symmetry_space_group_name_H-M    P1
_symmetry_Int_Tables_number       1
_space_group_crystal_system       triclinic
_cell_length_a                    19.162918
_cell_length_b                    18.417545
_cell_length_c                    27.799136
_cell_angle_alpha                 89.911287
_cell_angle_beta                  90.178602
_cell_angle_gamma                 89.903004
_cell_volume                      9811.18404562

loop_
_atom_site_label
_atom_site_type_symbol
_atom_site_description
_atom_site_fract_x
_atom_site_fract_y
_atom_site_fract_z
_atom_type_partial_charge
O1    O     O_R   0.398180 0.560840 0.499990 -0.627575
O2    O     O_R   0.601820 0.439160 0.500010 -0.617452
O3    O     O_R   0.601820 0.560840 0.500010 -0.627362
O4    O     O_R   0.398180 0.439160 0.499990 -0.600334
C1    C     C_R   0.365869 0.500103 0.499952 0.902810
C2    C     C_R   0.634314 0.499969 0.499466 0.884902
O5    O     O_R   0.500010 0.560810 0.428750 -0.614653
O6    O     O_R   0.499990 0.439190 0.571250 -0.587550
O7    O     O_R   0.499990 0.560810 0.571250 -0.615531
O8    O     O_R   0.500010 0.439190 0.428750 -0.606865
C3    C     C_R   0.500511 0.500215 0.405949 0.922158
C4    C     C_R   0.498851 0.500072 0.594154 0.873245
Zn1   Zn    Zn3+2 0.500000 0.581210 0.500000 0.961213
Zn2   Zn    Zn3+2 0.500000 0.418790 0.500000 0.988441
C5    C     C_R   0.448640 0.520648 0.177614 0.560832
C6    C     C_R   0.565458 0.521464 0.822616 0.562697
O9    O     O_2   0.390044 0.535162 0.202726 -0.549138
O10   O     O_2   0.624826 0.531518 0.797456 -0.548777
N1    N     N_R   0.509197 0.504901 0.201271 -0.336200
N2    N     N_R   0.503797 0.511584 0.798996 -0.335707
C7    C     C_R   0.569742 0.490386 0.177365 0.525605
C8    C     C_R   0.442544 0.501214 0.822984 0.519568
C9    C     C_R   0.544603 0.558405 0.278800 -0.001377
C10   C     C_R   0.468164 0.566110 0.721667 -0.005934
C11   C     C_R   0.543036 0.556180 0.329436 -0.133267
C12   C     C_R   0.463806 0.560855 0.671152 -0.122963
C13   C     C_R   0.467442 0.448263 0.326013 -0.070042
C14   C     C_R   0.530551 0.446738 0.674295 -0.052700
C15   C     C_R   0.472499 0.449542 0.276135 -0.152375
C16   C     C_R   0.533567 0.452554 0.724018 -0.160179
C17   C     C_R   0.509157 0.504310 0.252662 0.212171
C18   C     C_R   0.503116 0.511156 0.747594 0.220322
C19   C     C_R   0.509594 0.510897 0.101726 -0.058197
C20   C     C_R   0.504209 0.514652 0.898596 -0.058582
C21   C     C_R   0.447168 0.521723 0.127505 -0.018242
C22   C     C_R   0.567196 0.520854 0.872792 -0.021042
C23   C     C_R   0.384740 0.534596 0.102960 -0.136581
C24   C     C_R   0.630455 0.527243 0.897419 -0.137870
C25   C     C_R   0.572757 0.497909 0.126891 -0.058741
C26   C     C_R   0.440223 0.507898 0.873441 -0.059554
C27   C     C_R   0.503489 0.501412 0.353175 -0.181216
C28   C     C_R   0.496357 0.501407 0.647137 -0.179561
H1    H     H_    0.445274 0.409243 0.254788 0.174778
H2    H     H_    0.559184 0.410538 0.745031 0.156590
H3    H     H_    0.336585 0.544866 0.122135 0.191662
H4    H     H_    0.679216 0.533798 0.878276 0.190505
C29   C     C_R   0.442144 0.514768 0.975382 0.032762
C30   C     C_R   0.571704 0.508238 0.024940 0.032592
C31   C     C_R   0.570564 0.515628 0.974202 0.056399
C32   C     C_R   0.443793 0.520341 0.026154 0.056666
C33   C     C_R   0.505577 0.515036 0.949526 0.073453
C34   C     C_R   0.508444 0.513136 0.050808 0.073287
C35   C     C_R   0.378868 0.508852 0.949676 -0.259491
C36   C     C_R   0.634225 0.496015 0.050616 -0.258918
C37   C     C_R   0.377009 0.506578 0.899604 0.013553
C38   C     C_R   0.635717 0.491844 0.100691 0.012412
O11   O     O_2   0.384897 0.483216 0.797736 -0.546045
O12   O     O_2   0.625912 0.467866 0.202687 -0.548544
C39   C     C_R   0.382873 0.533631 0.053223 -0.215483
C40   C     C_R   0.632305 0.524280 0.947179 -0.214757
H5    H     H_    0.329320 0.504886 0.967759 0.142824
H6    H     H_    0.683361 0.488440 0.032488 0.142865
H7    H     H_    0.333050 0.545802 0.037012 0.144990
H8    H     H_    0.682943 0.531185 0.963488 0.144628
C41   C     C_R   0.738799 0.453591 0.459745 -0.244828
C42   C     C_R   0.263485 0.517254 0.449353 -0.197666
C43   C     C_R   0.249250 0.483425 0.533011 -0.271552
C44   C     C_R   0.749327 0.550080 0.518469 -0.236595
H9    H     H_    0.705634 0.417309 0.439201 0.173373
H10   H     H_    0.298208 0.529452 0.419683 0.196250
H11   H     H_    0.272870 0.471368 0.567607 0.159187
H12   H     H_    0.724685 0.585877 0.544334 0.175257
C45   C     C_R   0.810077 0.456648 0.450313 -0.018285
C46   C     C_R   0.191617 0.514706 0.441935 -0.030477
C47   C     C_R   0.176948 0.485295 0.527956 -0.000579
C48   C     C_R   0.821390 0.551425 0.512416 -0.012348
C49   C     C_R   0.852101 0.504481 0.477871 -0.081059
C50   C     C_R   0.147834 0.499624 0.481763 -0.081867
C51   C     C_R   0.708925 0.500175 0.493349 -0.066090
C52   C     C_R   0.291546 0.500469 0.494221 -0.061668
C53   C     C_R   0.965108 0.563798 0.460091 -0.089849
C54   C     C_R   0.035039 0.435550 0.485328 -0.092082
C55   C     C_R   0.037452 0.562932 0.462101 -0.081967
C56   C     C_R   0.962804 0.437163 0.485066 -0.083852
H13   H     H_    0.938094 0.613538 0.450601 0.118003
H14   H     H_    0.061953 0.385955 0.495296 0.125067
H15   H     H_    0.066252 0.612119 0.454346 0.118750
H16   H     H_    0.934092 0.388915 0.495220 0.126317
C57   C     C_R   0.072306 0.499074 0.475478 0.188203
C58   C     C_R   0.927817 0.501587 0.473225 0.188348
C59   C     C_R   0.552587 0.725276 0.522452 -0.017592
C60   C     C_R   0.547744 0.274673 0.472985 -0.013334
C61   C     C_R   0.447993 0.725902 0.477149 -0.024583
C62   C     C_R   0.452594 0.274024 0.526903 0.008968
H17   H     H_    0.593533 0.694150 0.539784 0.142147
H18   H     H_    0.585027 0.305872 0.452350 0.139892
H19   H     H_    0.406863 0.695265 0.459817 0.143319
H20   H     H_    0.415047 0.304695 0.547674 0.154889
C63   C     C_R   0.555241 0.801503 0.522302 -0.097126
C64   C     C_R   0.550165 0.198354 0.472425 -0.076991
C65   C     C_R   0.446318 0.802184 0.476749 -0.094928
C66   C     C_R   0.451045 0.197666 0.527290 -0.088626
C67   C     C_R   0.500961 0.841437 0.499476 -0.009762
C68   C     C_R   0.500829 0.158387 0.499811 -0.001095
N3    N     N_R   0.500000 0.689440 0.500000 -0.096451
N4    N     N_R   0.500000 0.310560 0.500000 -0.106572
C69   C     C_R   0.497547 0.962046 0.456120 -0.169632
C70   C     C_R   0.506130 0.037676 0.543018 -0.166593
C71   C     C_R   0.505156 0.961603 0.542971 -0.169753
C72   C     C_R   0.496521 0.038130 0.456255 -0.164859
H21   H     H_    0.495139 0.933646 0.422079 0.141322
H22   H     H_    0.510398 0.066042 0.576985 0.146524
H23   H     H_    0.507552 0.932859 0.576949 0.139168
H24   H     H_    0.492190 0.066852 0.422359 0.150630
C73   C     C_R   0.501221 0.076915 0.499689 0.103023
C74   C     C_R   0.501267 0.922846 0.499505 0.112387
C75   C     C_2   0.420513 0.393319 0.347925 0.946773
O13   O     O_2   0.419136 0.331490 0.331947 -0.634564
O14   O     O_R   0.375878 0.412796 0.385466 -0.805437
H25   H     H_    0.346266 0.370738 0.397068 0.347348
C76   C     C_2   0.565698 0.383582 0.652323 0.942018
O15   O     O_2   0.629358 0.379390 0.653230 -0.613051
O16   O     O_R   0.525940 0.327652 0.632291 -0.806011
H26   H     H_    0.555846 0.287266 0.618563 0.334138
C77   C     C_2   0.838459 0.410870 0.410746 0.891851
O17   O     O_2   0.809306 0.354152 0.399840 -0.624217
O18   O     O_R   0.897163 0.433321 0.384945 -0.790491
H27   H     H_    0.910932 0.397612 0.358914 0.354472
C78   C     C_2   0.164606 0.525432 0.392105 0.902196
O19   O     O_2   0.196665 0.563854 0.363871 -0.614271
O20   O     O_R   0.103972 0.490051 0.376785 -0.788801
H28   H     H_    0.091463 0.501648 0.342150 0.354770
C79   C     C_2   0.133896 0.474625 0.571885 0.885054
O21   O     O_2   0.154815 0.434803 0.604131 -0.618436
O22   O     O_R   0.070744 0.511769 0.577323 -0.779206
H29   H     H_    0.046792 0.500079 0.608860 0.362128
C80   C     C_2   0.862612 0.600065 0.544310 0.890898
O23   O     O_2   0.838956 0.659276 0.555791 -0.632930
O24   O     O_R   0.927080 0.577515 0.562700 -0.772614
H30   H     H_    0.949569 0.615425 0.584101 0.357995
C81   C     C_R   0.616208 0.837134 0.544990 0.109130
C82   C     C_R   0.632620 0.823004 0.593408 -0.169959
C83   C     C_R   0.690393 0.856110 0.614904 -0.098674
C84   C     C_R   0.732387 0.903114 0.588195 -0.089025
C85   C     C_R   0.716782 0.916948 0.539908 -0.135040
C86   C     C_R   0.659016 0.884036 0.518249 -0.127750
H31   H     H_    0.600365 0.786854 0.614551 0.123736
H32   H     H_    0.702622 0.845301 0.652273 0.140823
H33   H     H_    0.777152 0.928641 0.604874 0.131392
H34   H     H_    0.749696 0.952929 0.519251 0.122845
H35   H     H_    0.647889 0.894756 0.480673 0.126748
C87   C     C_R   0.605643 0.162656 0.443842 0.100381
C88   C     C_R   0.612338 0.178291 0.394569 -0.159780
C89   C     C_R   0.664579 0.144901 0.367418 -0.098141
C90   C     C_R   0.710723 0.096049 0.389245 -0.096858
C91   C     C_R   0.704871 0.080700 0.438299 -0.138565
C92   C     C_R   0.652722 0.113955 0.465626 -0.111398
H36   H     H_    0.576720 0.215803 0.377127 0.149859
H37   H     H_    0.669258 0.156879 0.329437 0.143277
H38   H     H_    0.751155 0.070252 0.368177 0.131264
H39   H     H_    0.740978 0.043244 0.455141 0.123137
H40   H     H_    0.649213 0.101964 0.503695 0.135587
C93   C     C_R   0.386249 0.838610 0.453268 0.107062
C94   C     C_R   0.370782 0.824357 0.404755 -0.170920
C95   C     C_R   0.314071 0.858445 0.382396 -0.108336
C96   C     C_R   0.272209 0.906581 0.408326 -0.103039
C97   C     C_R   0.286865 0.920554 0.456699 -0.141127
C98   C     C_R   0.343555 0.886640 0.479232 -0.130703
H41   H     H_    0.403008 0.787389 0.384193 0.127388
H42   H     H_    0.302584 0.847548 0.344955 0.144086
H43   H     H_    0.228285 0.932897 0.390973 0.132445
H44   H     H_    0.254066 0.957467 0.476726 0.123332
H45   H     H_    0.353999 0.897563 0.516846 0.127753
C99   C     C_R   0.396099 0.161116 0.555852 0.100489
C100  C     C_R   0.389808 0.175575 0.605276 -0.170122
C101  C     C_R   0.338345 0.141031 0.632467 -0.114087
C102  C     C_R   0.292566 0.092187 0.610532 -0.102599
C103  C     C_R   0.298002 0.078003 0.561329 -0.142848
C104  C     C_R   0.349382 0.112412 0.533961 -0.111687
H46   H     H_    0.425190 0.212975 0.622819 0.169708
H47   H     H_    0.334010 0.152080 0.670570 0.143374
H48   H     H_    0.252750 0.065475 0.631634 0.131442
H49   H     H_    0.262197 0.040509 0.544425 0.122690
H50   H     H_    0.352654 0.101225 0.495795 0.137400
C105  C     C_R   0.425971 0.618040 0.643609 0.196525
C106  C     C_R   0.362605 0.601835 0.620547 -0.069309
C107  C     C_R   0.328733 0.654605 0.592737 -0.112244
C108  C     C_R   0.357788 0.723809 0.587908 -0.101982
C109  C     C_R   0.420647 0.740449 0.611004 -0.132585
C110  C     C_R   0.454760 0.687795 0.638771 -0.111700
H51   H     H_    0.340001 0.548248 0.623846 0.114698
H52   H     H_    0.280173 0.641711 0.574710 0.136800
H53   H     H_    0.331749 0.764459 0.566126 0.126362
H54   H     H_    0.443254 0.793941 0.607021 0.126201
H55   H     H_    0.503930 0.700901 0.655963 0.116583
C111  C     C_R   0.581429 0.612181 0.357357 0.183625
C112  C     C_R   0.644458 0.594588 0.380518 -0.072958
C113  C     C_R   0.679138 0.646713 0.408197 -0.104337
C114  C     C_R   0.650867 0.716316 0.413212 -0.103482
C115  C     C_R   0.588193 0.734182 0.390171 -0.136214
C116  C     C_R   0.553587 0.682410 0.362173 -0.104904
H56   H     H_    0.666347 0.540566 0.377304 0.118972
H57   H     H_    0.727734 0.633037 0.425980 0.142804
H58   H     H_    0.677431 0.756359 0.435032 0.131793
H59   H     H_    0.566209 0.787999 0.394267 0.127194
H60   H     H_    0.504707 0.696537 0.344850 0.121197
C117  C     C_2   0.435854 0.628160 0.747794 0.908584
O25   O     O_2   0.467859 0.658217 0.780249 -0.637223
O26   O     O_R   0.368546 0.651501 0.735748 -0.789316
H61   H     H_    0.352272 0.693618 0.756322 0.337274
C118  C     C_2   0.582784 0.616973 0.252946 0.913441
O27   O     O_2   0.555441 0.647894 0.218768 -0.636778
O28   O     O_R   0.650206 0.636239 0.267388 -0.791723
H62   H     H_    0.670719 0.676333 0.246822 0.338751
C119  C     C_R   0.307298 0.508625 0.876465 0.174065
C120  C     C_R   0.261697 0.449418 0.880828 -0.137340
C121  C     C_R   0.195687 0.451890 0.859287 -0.125190
C122  C     C_R   0.174728 0.513533 0.833586 -0.096375
C123  C     C_R   0.219629 0.572956 0.829532 -0.108735
C124  C     C_R   0.285609 0.570781 0.851087 -0.072809
H63   H     H_    0.277457 0.401392 0.900631 0.131895
H64   H     H_    0.160777 0.406018 0.862512 0.138447
H65   H     H_    0.123647 0.515307 0.816899 0.138349
H66   H     H_    0.203294 0.620718 0.809724 0.140242
H67   H     H_    0.319983 0.617152 0.847804 0.136664
C125  C     C_R   0.705232 0.486564 0.123856 0.174055
C126  C     C_R   0.745287 0.423077 0.119281 -0.136462
C127  C     C_R   0.811177 0.418583 0.140861 -0.126947
C128  C     C_R   0.837552 0.477496 0.166806 -0.098302
C129  C     C_R   0.798209 0.541138 0.171064 -0.110707
C130  C     C_R   0.732368 0.545919 0.149477 -0.073763
H68   H     H_    0.725302 0.377128 0.099281 0.131880
H69   H     H_    0.841796 0.369432 0.137476 0.137643
H70   H     H_    0.888526 0.473880 0.183524 0.137633
H71   H     H_    0.818743 0.586773 0.191060 0.140453
H72   H     H_    0.702309 0.595498 0.152936 0.137453

loop_
_geom_bond_atom_site_label_1
_geom_bond_atom_site_label_2
_geom_bond_distance
_ccdc_geom_bond_type
C11   C27   1.425108 A    
C55   H15   1.083313 S    
C95   C96   1.397226 A    
C41   C51   1.393054 A    
C79   O21   1.223480 D    
C13   C15   1.390400 A    
C75   O13   1.223242 D    
C59   N3    1.356574 A    
C63   C67   1.420345 A    
C93   C94   1.405147 A    
C64   C68   1.421399 A    
O3    C2    1.281626 A    
N1    C17   1.428650 S    
C8    O11   1.349048 S    
C103  C104  1.398263 A    
C122  C123  1.397936 A    
C97   H44   1.081241 S    
O22   H29   1.013853 S    
C42   H10   1.084828 S    
C48   C80   1.487656 S    
C64   C87   1.482677 S    
C19   C34   1.416129 A    
C30   C36   1.410260 A    
C80   O24   1.397755 S    
C60   C64   1.406411 A    
C20   C33   1.415980 A    
C115  H59   1.082624 S    
C54   C57   1.398868 A    
O1    C1    1.279462 A    
C32   C39   1.412131 A    
C70   C73   1.406521 A    
C94   C95   1.397767 A    
C21   C23   1.395113 A    
C10   C12   1.409965 A    
C66   C99   1.482634 S    
C104  H50   1.083096 S    
C30   C34   1.414233 A    
C75   O14   1.398237 S    
C37   C119  1.481247 S    
C12   C105  1.487491 S    
C41   H9    1.084875 S    
C83   C84   1.397265 A    
C122  H65   1.082324 S    
C62   H20   1.082771 S    
C125  C130  1.405265 A    
C42   C46   1.392801 A    
C60   H18   1.082859 S    
C41   C45   1.392844 A    
C70   C71   1.401246 A    
C78   O20   1.398722 S    
C91   C92   1.398205 A    
C14   C28   1.416131 A    
C88   H36   1.083319 S    
O7    Zn1   2.015438 S    
C120  H63   1.083133 S    
C4    C28   1.474050 S    
C71   C74   1.406192 A    
C61   N3    1.356526 A    
C123  H66   1.082349 S    
C99   C100  1.405424 A    
C35   H5    1.078262 S    
C109  H54   1.082562 S    
C19   C25   1.415932 A    
C62   N4    1.357247 A    
C126  C127  1.398487 A    
C115  C116  1.398559 A    
C31   C33   1.419967 A    
C32   C34   1.419875 A    
C116  H60   1.083037 S    
C113  C114  1.398193 A    
C112  C113  1.398779 A    
C72   H24   1.082775 S    
C43   H11   1.084160 S    
C85   H34   1.081304 S    
O3    Zn1   1.986282 S    
C71   H23   1.082884 S    
C29   C35   1.410005 A    
C23   C39   1.383148 A    
C44   C51   1.390292 A    
C13   C75   1.486063 S    
C126  H68   1.083135 S    
C96   H43   1.082340 S    
C65   C67   1.420598 A    
C15   H1    1.084409 S    
C79   O22   1.397850 S    
C98   H45   1.083235 S    
C16   H2    1.084678 S    
C94   H41   1.083352 S    
O2    C2    1.282421 A    
C56   C58   1.400157 A    
C5    C21   1.393308 A    
C127  C128  1.398191 A    
C53   C55   1.387346 A    
N2    C18   1.428970 S    
C40   H8    1.077588 S    
C85   C86   1.398075 A    
C29   C32   1.415564 A    
C35   C37   1.393005 A    
C50   C57   1.457370 S    
C101  H47   1.082328 S    
C55   C57   1.400727 A    
C36   C38   1.394243 A    
C49   C58   1.457965 S    
C90   C91   1.397129 A    
C24   H4    1.083578 S    
C117  O25   1.223040 D    
C56   H16   1.083458 S    
O16   H26   1.013960 S    
C48   C49   1.421426 A    
Zn1   N3    1.993329 S    
O8    Zn2   2.015438 S    
C61   C65   1.405260 A    
C97   C98   1.398176 A    
C14   C76   1.477094 S    
O4    C1    1.280959 A    
C29   C33   1.414099 A    
C36   H6    1.078327 S    
C121  C122  1.398173 A    
O28   H62   1.013781 S    
C59   H17   1.082453 S    
C129  C130  1.398026 A    
C70   H22   1.082783 S    
C44   H12   1.084993 S    
C9    C17   1.408325 A    
C5    N1    1.362626 A    
C119  C120  1.403881 A    
C10   C18   1.408859 A    
C118  O27   1.223016 D    
C128  C129  1.397967 A    
C68   C73   1.500528 S    
C13   C27   1.416631 A    
O5    C3    1.284339 A    
C25   C38   1.415578 A    
C7    C25   1.411125 A    
C65   C93   1.480723 S    
O6    C4    1.290507 A    
C26   C37   1.415089 A    
C8    C26   1.409094 A    
C77   O17   1.223564 D    
O26   H61   1.013777 S    
C89   C90   1.397086 A    
O14   H25   1.013837 S    
C129  H71   1.082348 S    
C6    N2    1.362612 A    
C120  C121  1.398472 A    
C1    C52   1.432649 S    
C66   C68   1.421590 A    
C31   C40   1.412561 A    
C76   O15   1.222410 D    
C130  H72   1.083359 S    
C11   C111  1.486277 S    
C81   C86   1.405673 A    
C102  C103  1.397089 A    
C24   C40   1.384634 A    
C53   C58   1.399952 A    
C110  H55   1.082957 S    
C60   N4    1.357085 A    
C101  C102  1.397045 A    
C118  O28   1.398258 S    
N2    C8    1.365354 A    
C91   H39   1.081282 S    
C128  H70   1.082333 S    
C54   C56   1.384483 A    
C114  H58   1.082431 S    
C69   C72   1.401409 A    
C20   C26   1.415412 A    
C46   C78   1.490003 S    
C43   C47   1.392541 A    
C23   H3    1.083613 S    
O18   H27   1.013850 S    
C61   H19   1.082478 S    
C123  C124  1.397970 A    
C89   H37   1.082329 S    
C12   C28   1.426927 A    
C117  O26   1.398399 S    
C78   O19   1.223509 D    
C106  H51   1.082351 S    
C83   H32   1.082314 S    
C121  H64   1.082320 S    
C5    O9    1.350569 S    
C87   C92   1.406174 A    
C30   C31   1.416902 A    
O6    Zn2   2.016581 S    
C84   H33   1.082327 S    
N1    C7    1.365108 A    
C90   H38   1.082363 S    
O7    C4    1.286544 A    
C69   H21   1.082856 S    
C82   H31   1.083172 S    
C63   C81   1.480769 S    
C43   C52   1.386921 A    
C103  H49   1.081225 S    
C111  C112  1.404133 A    
O20   H28   1.013834 S    
C108  H53   1.082391 S    
C72   C73   1.406567 A    
O24   H30   1.013838 S    
C47   C79   1.488836 S    
C100  H46   1.082856 S    
C38   C125  1.480769 S    
C44   C48   1.391924 A    
C42   C52   1.390866 A    
C80   O23   1.223472 D    
C10   C117  1.489927 S    
C39   H7    1.077573 S    
C112  H56   1.083023 S    
C84   C85   1.397286 A    
C14   C16   1.387612 A    
C93   C98   1.405703 A    
C111  C116  1.405082 A    
C7    O12   1.348698 S    
C15   C17   1.392827 A    
C100  C101  1.397839 A    
C54   H14   1.083452 S    
C81   C82   1.405092 A    
C6    C22   1.395187 A    
C16   C18   1.391891 A    
C105  C106  1.404110 A    
C96   C97   1.397284 A    
C9    C118  1.489628 S    
C67   C74   1.499369 S    
C45   C77   1.490488 S    
C99   C104  1.406206 A    
C22   C24   1.395548 A    
C19   C21   1.410443 A    
C107  H52   1.082432 S    
C124  H67   1.083341 S    
C3    C27   1.468480 S    
C20   C22   1.410720 A    
C9    C11   1.408580 A    
O4    Zn2   1.986286 S    
C109  C110  1.398568 A    
O2    Zn2   1.987530 S    
C47   C50   1.422628 A    
C69   C74   1.406239 A    
C76   O16   1.397654 S    
O8    C3    1.289565 A    
C114  C115  1.397932 A    
C2    C51   1.440389 S    
C86   H35   1.083237 S    
C105  C110  1.405439 A    
O5    Zn1   2.016581 S    
O1    Zn1   1.987534 S    
C87   C88   1.405580 A    
C62   C66   1.406717 A    
C6    O10   1.350201 S    
C125  C126  1.403780 A    
C46   C50   1.418656 A    
Zn2   N4    1.993329 S    
C113  H57   1.082113 S    
C77   O18   1.398785 S    
C45   C49   1.418515 A    
C82   C83   1.397781 A    
C108  C109  1.397911 A    
C107  C108  1.398179 A    
C59   C63   1.404921 A    
C106  C107  1.398562 A    
C119  C124  1.405357 A    
C92   H40   1.083078 S    
C95   H42   1.082320 S    
C53   H13   1.083314 S    
C102  H48   1.082354 S    
C88   C89   1.397876 A    
C127  H69   1.082320 S    
