data_mof_unit_54353.cif
_audit_creation_date              2012-12-11T20:19:33-0500
_audit_creation_method            fapswitch 2.2
_symmetry_space_group_name_H-M    P1
_symmetry_Int_Tables_number       1
_space_group_crystal_system       triclinic
_cell_length_a                    8.237281
_cell_length_b                    17.375607
_cell_length_c                    22.87377
_cell_angle_alpha                 99.685472
_cell_angle_beta                  89.484126
_cell_angle_gamma                 98.385212
_cell_volume                      3192.30246241

loop_
_atom_site_label
_atom_site_type_symbol
_atom_type_description
_atom_site_fract_x
_atom_site_fract_y
_atom_site_fract_z
_atom_type_partial_charge
Ba1   Ba    Ba6+2 0.857050 0.537370 0.474190 1.646940
Ba2   Ba    Ba6+2 0.332790 0.462700 0.525820 1.643196
C1    C     C_3   0.688978 0.822795 0.325681 -0.367091
C2    C     C_R   0.125129 0.564109 0.941258 -0.026859
C3    C     C_R   0.077907 0.559865 0.881038 0.596588
C4    C     C_3   0.124083 0.723042 0.323367 0.349353
C5    C     C_R   0.927303 0.430411 0.880414 0.573733
C6    C     C_R   0.969356 0.433696 0.940614 -0.014776
C7    C     C_R   0.069611 0.500635 0.971096 -0.053673
C8    C     C_R   0.226658 0.630501 0.972522 -0.073904
C9    C     C_R   0.269292 0.634152 0.032201 -0.074799
C10   C     C_R   0.213234 0.571226 0.062622 -0.019860
C11   C     C_R   0.114786 0.503888 0.031641 -0.052589
C12   C     C_3   0.656389 0.742529 0.345233 0.362599
C13   C     C_R   0.913522 0.370703 0.970933 -0.073766
C14   C     C_R   0.959586 0.373383 0.029912 -0.076294
C15   C     C_R   0.061753 0.439525 0.060871 -0.023745
C16   C     C_3   0.106706 0.760917 0.268829 -0.367760
C17   C     C_R   0.112849 0.442196 0.120172 0.589078
C18   C     C_R   0.253039 0.574332 0.123258 0.580856
C19   C     C_2   0.782914 0.453490 0.766564 -0.087898
C20   C     C_3   0.756692 0.425252 0.700804 -0.056363
C21   C     C_1   0.006677 0.514787 0.686264 0.031455
C22   C     C_2   0.054447 0.517374 0.742518 -0.102818
C23   C     C_3   0.478775 0.345084 0.342709 0.298727
C24   C     C_2   0.934494 0.488117 0.787510 0.187980
C25   C     C_R   0.414274 0.544351 0.234625 -0.101116
C26   C     C_R   0.458158 0.549545 0.294451 -0.025924
C27   C     C_R   0.188362 0.484189 0.314271 0.032190
C28   C     C_3   0.231159 0.702944 0.604484 0.314173
C29   C     C_R   0.140656 0.482113 0.254902 -0.093892
C30   C     C_R   0.252889 0.512557 0.213900 0.200011
C31   C     C_2   0.864655 0.475280 0.664119 -0.288797
C32   C     C_2   0.446969 0.719405 0.481796 -0.254355
C33   C     C_3   0.372606 0.769549 0.444453 -0.045998
C34   C     C_3   0.469411 0.323510 0.275461 -0.365567
C35   C     C_2   0.422755 0.856337 0.464574 -0.106204
C36   C     C_2   0.554186 0.883311 0.501192 0.007372
C37   C     C_2   0.636563 0.825465 0.527049 -0.127957
C38   C     C_1   0.575871 0.749469 0.516891 0.058649
C39   C     C_R   0.796242 0.136628 0.529108 -0.125855
C40   C     C_3   0.259120 0.792352 0.621763 -0.371286
C41   C     C_R   0.853756 0.217455 0.537511 0.011284
C42   C     C_R   0.618545 0.239476 0.483297 0.039705
C43   C     C_R   0.561191 0.158771 0.474014 -0.115459
C44   C     C_R   0.647918 0.106907 0.497689 0.013863
C45   C     C_3   0.037452 0.289619 0.679281 0.342267
C46   C     C_2   0.617351 0.968853 0.517041 -0.072646
C47   C     C_2   0.588653 0.021603 0.482966 -0.073092
C48   C     C_R   0.760912 0.268950 0.517086 -0.280255
C49   C     C_3   0.963763 0.295832 0.394788 0.310424
C50   C     C_3   0.937575 0.206589 0.375944 -0.380323
C51   C     C_3   0.711769 0.638465 0.655016 0.302473
C52   C     C_3   0.716513 0.658588 0.722381 -0.355728
C53   C     C_3   0.049449 0.264371 0.739305 -0.366169
C54   C     C_3   0.496514 0.255119 0.655498 0.372205
C55   C     C_3   0.451992 0.178630 0.679829 -0.361532
C56   C     C_R   0.344821 0.520445 0.333799 -0.300095
H1    H     H_    0.709038 0.748395 0.390622 0.067650
H2    H     H_    0.833410 0.624840 0.639478 0.007857
H3    H     H_    0.617219 0.586071 0.641691 0.074568
H4    H     H_    0.822440 0.844875 0.327317 0.140006
H5    H     H_    0.813530 0.709472 0.737107 0.131924
H6    H     H_    0.743279 0.607404 0.741777 0.069777
H7    H     H_    0.595945 0.673897 0.738757 0.136385
H8    H     H_    0.522099 0.724798 0.345481 -0.059897
H9    H     H_    0.626206 0.865709 0.355734 0.067277
H10   H     H_    0.356562 0.358039 0.358808 0.020844
H11   H     H_    0.571505 0.398643 0.354569 0.056838
H12   H     H_    0.351958 0.810435 0.658219 0.121659
H13   H     H_    0.376414 0.270480 0.262058 0.136305
H14   H     H_    0.433855 0.373186 0.256039 0.068439
H15   H     H_    0.590820 0.311020 0.257989 0.132490
H16   H     H_    0.641456 0.818238 0.279835 0.127670
H17   H     H_    0.161631 0.727166 0.230056 0.131613
H18   H     H_    0.108342 0.349608 0.681450 0.072455
H19   H     H_    0.906262 0.290924 0.669778 -0.055448
H20   H     H_    0.179241 0.264880 0.751757 0.150929
H21   H     H_    0.995862 0.305805 0.773193 0.139234
H22   H     H_    0.981237 0.204233 0.738135 0.117634
H23   H     H_    0.303538 0.820068 0.583221 0.074027
H24   H     H_    0.632126 0.265224 0.651472 -0.076266
H25   H     H_    0.439757 0.247848 0.610660 0.083908
H26   H     H_    0.500062 0.129916 0.650197 0.068641
H27   H     H_    0.316978 0.163550 0.682403 0.150661
H28   H     H_    0.052823 0.662854 0.316138 0.086919
H29   H     H_    0.507039 0.184791 0.724816 0.121886
H30   H     H_    0.913942 0.323449 0.051320 0.124118
H31   H     H_    0.834006 0.318694 0.949053 0.124604
H32   H     H_    0.347735 0.686374 0.054356 0.121762
H33   H     H_    0.506155 0.564939 0.204494 0.120029
H34   H     H_    0.142397 0.813588 0.636703 0.132735
H35   H     H_    0.273856 0.680016 0.950898 0.123282
H36   H     H_    0.182478 0.537492 0.755333 0.140331
H37   H     H_    0.686383 0.435822 0.796254 0.128598
H38   H     H_    0.016775 0.456332 0.240865 0.136994
H39   H     H_    0.381366 0.522837 0.379512 0.080689
H40   H     H_    0.255809 0.717952 0.327686 -0.063969
H41   H     H_    0.839244 0.464730 0.616723 0.081334
H42   H     H_    0.517304 0.002512 0.442203 0.068203
H43   H     H_    0.744270 0.846530 0.555476 0.083347
H44   H     H_    0.871680 0.097312 0.543809 0.074919
H45   H     H_    0.846083 0.315653 0.408768 0.002221
H46   H     H_    0.691218 0.988174 0.557289 0.071882
H47   H     H_    0.353982 0.895800 0.446595 0.070947
H48   H     H_    0.451729 0.136203 0.446959 0.075636
H49   H     H_    0.401768 0.656881 0.474803 0.074410
H50   H     H_    0.806861 0.331387 0.522904 0.065032
H51   H     H_    0.976014 0.761178 0.258458 0.151224
H52   H     H_    0.171204 0.822360 0.276595 0.111309
H53   H     H_    0.349134 0.682417 0.591936 -0.000841
H54   H     H_    0.144488 0.686769 0.566098 0.082800
H55   H     H_    0.052577 0.311500 0.432494 0.074489
H56   H     H_    0.842570 0.189056 0.340196 0.131688
H57   H     H_    0.896933 0.177062 0.413896 0.063111
H58   H     H_    0.054208 0.186538 0.359410 0.127151
N1    N     N_R   0.980154 0.493193 0.850533 -0.421363
N2    N     N_R   0.205173 0.509763 0.151708 -0.422447
O1    O     O_2   0.889310 0.456460 0.358460 -0.458009
O2    O     O_2   0.189320 0.219299 0.525681 -0.483386
O3    O     O_3   0.102291 0.235542 0.636269 -0.597450
O4    O     O_3   0.129890 0.457280 0.429550 -0.494832
O5    O     O_3   0.576930 0.595420 0.534060 -0.494457
O6    O     O_2   0.340570 0.306450 0.462190 -0.459099
O7    O     O_3   0.523500 0.281575 0.366515 -0.639383
O8    O     O_2   0.438326 0.469866 0.707112 -0.492213
O9    O     O_3   0.438250 0.317355 0.693626 -0.588516
O10   O     O_2   0.122364 0.616157 0.856250 -0.596563
O11   O     O_2   0.844737 0.370531 0.854509 -0.621303
O12   O     O_3   0.674334 0.703660 0.631979 -0.633587
O13   O     O_2   0.077319 0.383544 0.143251 -0.599888
O14   O     O_2   0.328841 0.635082 0.150768 -0.613428
O15   O     O_3   0.674650 0.600620 0.400940 -0.485096
O16   O     O_2   0.794431 0.543974 0.295490 -0.491239
O17   O     O_3   0.022592 0.330204 0.346243 -0.626708
O18   O     O_3   0.728730 0.687168 0.305644 -0.594560
O19   O     O_2   0.849130 0.693580 0.537840 -0.459392
O20   O     O_3   0.093680 0.641380 0.431770 -0.486312
O21   O     O_2   0.055791 0.783882 0.490164 -0.482162
O22   O     O_3   0.065794 0.769298 0.373643 -0.589126
O23   O     O_2   0.300380 0.543560 0.641570 -0.458002
O24   O     O_3   0.059830 0.542790 0.570460 -0.499077
O25   O     O_3   0.515070 0.399440 0.599070 -0.477278
O26   O     O_3   0.168011 0.669962 0.653209 -0.623428
O27   O     O_3   0.612780 0.404640 0.465950 -0.481868
O28   O     O_3   0.096040 0.358680 0.568240 -0.490646
P1    P     P_3+3 0.055640 0.433080 0.366120 0.995644
P2    P     P_3+3 0.671420 0.681950 0.554390 0.982438
P3    P     P_3+3 0.145808 0.742753 0.436806 0.952723
P4    P     P_3+3 0.134070 0.566990 0.633890 0.994068
P5    P     P_3+3 0.060977 0.256756 0.566455 0.948704
P6    P     P_3+3 0.663926 0.593625 0.323588 0.958189
P7    P     P_3+3 0.524798 0.305804 0.443965 0.950868
P8    P     P_3+3 0.537348 0.406205 0.675730 0.953494

loop_
_geom_bond_atom_site_label_1
_geom_bond_atom_site_label_2
_ccdc_geom_bond_type
Ba2   P4    S    
C19   C24   D    
C16   H17   S    
C5    N1    Am   
O19   P2    D    
Ba1   O27   S    
C24   N1    S    
C18   N2    Am   
Ba1   O19   S    
C5    C6    A    
C52   H7    S    
C51   C52   S    
C39   H44   S    
Ba2   O27   S    
C12   H1    S    
C56   H39   S    
C44   C47   S    
C49   H55   S    
C12   O18   S    
C32   C38   D    
C32   H49   S    
C4    H40   S    
C33   C35   S    
C22   C24   S    
C45   H18   S    
C32   C33   S    
C36   C37   S    
C50   H57   S    
C52   H5    S    
O1    P1    D    
C29   H38   S    
C46   H46   S    
C40   H12   S    
C28   O26   S    
C54   C55   S    
Ba1   Ba2   S    
Ba1   O1    S    
C54   O9    S    
C1    H16   S    
C7    C11   A    
Ba1   O4    S    
O26   P4    S    
Ba1   O24   S    
C49   O17   S    
C34   H14   S    
C17   N2    Am   
C6    C7    A    
C21   C31   D    
C21   C22   D    
C16   H51   S    
C25   H33   S    
C36   C46   S    
C34   H13   S    
O27   P7    S    
Ba2   O4    S    
O6    P7    D    
C48   H50   S    
Ba2   O25   S    
C39   C41   A    
C23   H10   S    
C51   H3    S    
C18   O14   D    
Ba1   O15   S    
O9    P8    S    
O18   P6    S    
C51   H2    S    
O7    P7    S    
O23   P4    D    
C37   H43   S    
C50   H58   S    
O20   P3    S    
C17   O13   D    
C4    C16   S    
C38   P2    S    
C40   H23   S    
O12   P2    S    
C49   C50   S    
C8    C9    A    
C37   C38   D    
C53   H20   S    
C14   C15   A    
O25   P8    S    
C19   H37   S    
C8    H35   S    
C43   C44   A    
O21   P3    D    
O3    P5    S    
C3    N1    Am   
C31   H41   S    
Ba1   O5    S    
C35   H47   S    
C35   C36   D    
C22   H36   S    
C13   H31   S    
C53   H21   S    
C29   C30   A    
C39   C44   A    
O16   P6    D    
C10   C18   A    
C12   H8    S    
C55   H26   S    
O4    P1    S    
C10   C11   A    
C54   H24   S    
C1    C12   S    
O8    P8    D    
C46   C47   D    
C21   P4    S    
O15   P6    S    
C6    C13   A    
C50   H56   S    
Ba2   O24   S    
Ba1   P1    S    
C23   H11   S    
C42   P7    S    
C2    C8    A    
C41   P5    S    
C43   H48   S    
C54   H25   S    
C45   C53   S    
C20   P8    S    
C1    H4    S    
C42   C48   A    
C20   C31   S    
O2    P5    D    
Ba2   O6    S    
C25   C30   A    
C1    H9    S    
C42   C43   A    
C16   H52   S    
C30   N2    S    
C2    C3    A    
C27   P1    S    
C9    C10   A    
C41   C48   A    
C26   P6    S    
C26   C56   A    
Ba2   O28   S    
O17   P1    S    
C4    H28   S    
C11   C15   A    
C28   H53   S    
O24   P4    S    
C27   C29   A    
C47   H42   S    
C53   H22   S    
C9    H32   S    
C27   C56   A    
C52   H6    S    
C3    O10   D    
C23   O7    S    
C15   C17   A    
C55   H27   S    
C40   H34   S    
C4    O22   S    
C5    O11   D    
C45   O3    S    
C34   H15   S    
C23   C34   S    
O28   P5    S    
C55   H29   S    
O5    P2    S    
C28   H54   S    
C25   C26   A    
C14   H30   S    
Ba2   O23   S    
C45   H19   S    
C28   C40   S    
Ba1   P2    S    
C51   O12   S    
C33   P3    S    
C2    C7    A    
C19   C20   S    
C49   H45   S    
O22   P3    S    
Ba2   O5    S    
Ba1   O20   S    
C13   C14   A    
