data_mof_unit_14991.cif
_audit_creation_date              2012-12-10T17:09:54-0500
_audit_creation_method            fapswitch 2.2
_symmetry_space_group_name_H-M    P1
_symmetry_Int_Tables_number       1
_space_group_crystal_system       triclinic
_cell_length_a                    10.82658
_cell_length_b                    13.034904
_cell_length_c                    11.626969
_cell_angle_alpha                 99.826089
_cell_angle_beta                  93.318082
_cell_angle_gamma                 90.418162
_cell_volume                      1613.81073593

loop_
_atom_site_label
_atom_site_type_symbol
_atom_type_description
_atom_site_fract_x
_atom_site_fract_y
_atom_site_fract_z
_atom_type_partial_charge
C1    C     C_R   0.498295 0.298925 0.478768 0.884005
C2    C     C_R   0.064764 0.506727 0.610451 -0.058856
C3    C     C_R   0.126078 0.499511 0.504606 -0.095706
C4    C     C_R   0.059152 0.468745 0.397397 -0.183688
C5    C     C_R   0.932129 0.450685 0.391193 0.119624
C6    C     C_R   0.870105 0.462318 0.496500 -0.110723
C7    C     C_R   0.502552 0.813849 0.533041 -0.034156
C8    C     C_R   0.498685 0.185400 0.466403 -0.221017
C9    C     C_R   0.501656 0.015467 0.339446 0.142331
C10   C     C_R   0.500091 0.124588 0.354771 -0.252789
C11   C     C_R   0.498584 0.137817 0.565582 0.551442
C12   C     C_R   0.261396 0.503861 0.501876 0.812673
C13   C     C_R   0.500391 0.029993 0.553563 0.032057
C14   C     C_R   0.501740 0.967945 0.440720 0.023921
C15   C     C_R   0.502879 0.859596 0.432609 -0.227484
C16   C     C_R   0.501982 0.876038 0.643546 -0.223560
C17   C     C_R   0.500802 0.983391 0.653778 -0.119948
C18   C     C_R   0.389545 0.397362 0.021421 -0.327268
C19   C     C_R   0.399611 0.407272 0.143790 0.799643
C20   C     C_R   0.544600 0.546619 0.157359 -0.087071
C21   C     C_R   0.538728 0.538463 0.034331 0.057342
C22   C     C_R   0.459804 0.462883 0.965678 -0.008952
C23   C     C_R   0.501929 0.700848 0.521262 0.795654
C24   C     C_R   0.453102 0.455099 0.842768 0.161528
C25   C     C_R   0.600675 0.592449 0.855832 0.110381
C26   C     C_R   0.609675 0.603541 0.978376 -0.309349
C27   C     C_R   0.736250 0.483973 0.497734 0.826361
C28   C     C_R   0.121572 0.546560 0.722289 -0.258952
C29   C     C_R   0.067408 0.530426 0.823801 0.563370
C30   C     C_R   0.956886 0.474108 0.815702 -0.297830
C31   C     C_R   0.894106 0.443180 0.707038 0.565455
C32   C     C_R   0.941258 0.470360 0.604524 -0.060371
Cu1   Cu    Cu3+1 0.509250 0.507730 0.615930 1.009313
Cu2   Cu    Cu3+1 0.490750 0.492270 0.384070 0.986166
H1    H     H_    0.106216 0.456986 0.316497 0.201364
H2    H     H_    0.499996 0.029669 0.740486 0.194668
H3    H     H_    0.500397 0.163627 0.280026 0.215149
H4    H     H_    0.391664 0.398045 0.789026 0.149116
H5    H     H_    0.655604 0.642796 0.813165 0.121240
H6    H     H_    0.327579 0.338718 0.970824 0.176759
H7    H     H_    0.671646 0.662283 0.028764 0.141140
H8    H     H_    0.603414 0.605487 0.211257 0.144570
H9    H     H_    0.206033 0.592510 0.733613 0.197899
H10   H     H_    0.919036 0.455135 0.893826 0.187035
H11   H     H_    0.503941 0.809635 0.348362 0.147611
H12   H     H_    0.501781 0.841838 0.722158 0.157911
N1    N     N_R   0.523180 0.519350 0.790130 -0.183692
N2    N     N_R   0.476820 0.480650 0.209890 -0.228715
O1    O     O_R   0.506570 0.354460 0.582000 -0.498700
O2    O     O_R   0.490940 0.341410 0.386200 -0.567314
O3    O     O_R   0.327470 0.506530 0.597920 -0.610677
O4    O     O_R   0.311840 0.493480 0.402120 -0.542063
O5    O     O_R   0.509060 0.658590 0.613800 -0.605910
O6    O     O_R   0.493430 0.645540 0.418000 -0.595737
O7    O     O_R   0.688160 0.506520 0.597880 -0.540120
O8    O     O_R   0.672530 0.493470 0.402080 -0.603206
F1    F     F_    0.496215 0.195918 0.674407 -0.661849
F2    F     F_    0.330930 0.343307 0.196171 -0.669292
F3    F     F_    0.125129 0.565659 0.930010 -0.665020
F4    F     F_    0.793602 0.379121 0.701452 -0.630058
C33   C     C_3   0.870861 0.410356 0.271102 -0.373341
C34   C     C_3   0.859612 0.496476 0.197192 -0.773429
H13   H     H_    0.804486 0.467325 0.114359 0.243388
H14   H     H_    0.813758 0.565197 0.245292 0.249084
H15   H     H_    0.952614 0.520932 0.175246 0.262408
H16   H     H_    0.927825 0.347229 0.225313 0.207462
H17   H     H_    0.779529 0.372794 0.275505 0.217287
C35   C     C_3   0.503364 0.949174 0.217570 -0.389405
C36   C     C_3   0.503504 0.008103 0.114398 -0.810444
H18   H     H_    0.418612 0.055006 0.110355 0.268573
H19   H     H_    0.587269 0.059007 0.121375 0.250911
H20   H     H_    0.504804 0.951327 0.031583 0.240679
H21   H     H_    0.587385 0.900505 0.214135 0.197781
H22   H     H_    0.420638 0.896541 0.203282 0.213388

loop_
_geom_bond_atom_site_label_1
_geom_bond_atom_site_label_2
_ccdc_geom_bond_type
Cu1   O7    S    
C6    C32   A    
C21   C26   A    
Cu2   O8    S    
C1    C8    S    
C27   O8    A    
C34   H13   S    
C10   H3    S    
C21   C22   A    
C28   C29   A    
C5    C6    A    
C27   O7    A    
Cu1   O1    S    
C2    C32   A    
C18   C19   A    
C36   H19   S    
C18   H6    S    
C34   H14   S    
C3    C12   S    
C33   H16   S    
C31   C32   A    
C16   C17   A    
C24   H4    S    
C17   H2    S    
C1    O2    A    
C25   N1    A    
C7    C15   A    
C4    H1    S    
C13   C14   A    
C30   H10   S    
C36   H18   S    
C12   O4    A    
C23   O5    A    
C19   F2    S    
Cu1   O5    S    
Cu2   O2    S    
C29   F3    S    
C16   H12   S    
C19   N2    A    
C35   C36   S    
C25   C26   A    
C31   F4    S    
C36   H20   S    
C9    C14   A    
C29   C30   A    
C33   H17   S    
C6    C27   S    
Cu1   Cu2   S    
C5    C33   S    
C20   N2    A    
C7    C16   A    
Cu2   O6    S    
Cu1   N1    S    
C22   C24   A    
Cu2   N2    S    
C15   H11   S    
C3    C4    A    
C12   O3    A    
C23   O6    A    
C9    C10   A    
C34   H15   S    
C18   C22   A    
C24   N1    A    
C4    C5    A    
C20   H8    S    
Cu1   O3    S    
C28   H9    S    
Cu2   O4    S    
C13   C17   A    
C2    C3    A    
C35   H21   S    
C9    C35   S    
C25   H5    S    
C11   C13   A    
C30   C31   A    
C1    O1    A    
C8    C11   A    
C7    C23   S    
C33   C34   S    
C20   C21   A    
C8    C10   A    
C14   C15   A    
C2    C28   A    
C11   F1    S    
C35   H22   S    
C26   H7    S    
