data_mof_unit_12741.cif
_audit_creation_date              2012-12-10T17:01:27-0500
_audit_creation_method            fapswitch 2.2
_symmetry_space_group_name_H-M    P1
_symmetry_Int_Tables_number       1
_space_group_crystal_system       triclinic
_cell_length_a                    12.904597
_cell_length_b                    10.710389
_cell_length_c                    9.996671
_cell_angle_alpha                 89.856582
_cell_angle_beta                  97.148999
_cell_angle_gamma                 90.230707
_cell_volume                      1370.91722271

loop_
_atom_site_label
_atom_site_type_symbol
_atom_type_description
_atom_site_fract_x
_atom_site_fract_y
_atom_site_fract_z
_atom_type_partial_charge
C1    C     C_R   0.502338 0.262721 0.500304 0.895120
C2    C     C_2   0.511640 0.131264 0.498581 0.216581
C3    C     C_2   0.537694 0.590837 0.931010 -0.289935
C4    C     C_R   0.298121 0.499099 0.473627 0.855579
C5    C     C_2   0.551205 0.582728 0.084143 0.509561
C6    C     C_R   0.492753 0.737298 0.498494 0.963814
C7    C     C_R   0.702009 0.497010 0.526699 0.922036
C8    C     C_R   0.814414 0.488532 0.543578 -0.166480
C9    C     C_R   0.186024 0.495072 0.458091 -0.047143
C10   C     C_R   0.019841 0.494745 0.319129 -0.199624
C11   C     C_R   0.127851 0.498120 0.330100 -0.204099
C12   C     C_R   0.029848 0.484474 0.564552 0.115756
C13   C     C_R   0.136888 0.487266 0.574544 -0.245137
C14   C     C_3   0.708728 0.686830 0.121848 0.084726
C15   C     C_3   0.774122 0.768184 0.224867 -0.754342
C16   C     C_3   0.822382 0.349046 0.832459 0.133620
C17   C     C_3   0.773945 0.343522 0.963472 -0.809169
C18   C     C_3   0.445960 0.968509 0.148861 0.120319
C19   C     C_3   0.458670 0.903673 0.016815 -0.768533
C20   C     C_R   0.970854 0.488702 0.436157 0.192102
C21   C     C_R   0.863769 0.489355 0.426758 -0.354009
C22   C     C_R   0.873131 0.478052 0.672133 0.473657
C23   C     C_R   0.981354 0.478591 0.681511 -0.319846
C24   C     C_2   0.459070 0.936634 0.383065 0.561693
C25   C     C_2   0.467452 0.867132 0.495426 -0.354189
C26   C     C_2   0.448129 0.070211 0.404314 -0.442619
Cl1   Cl    Cl    0.621105 0.066493 0.599357 -0.674620
H1    H     H_    0.819173 0.492738 0.327560 0.184221
H2    H     H_    0.388191 0.120463 0.339559 0.125011
H3    H     H_    0.705936 0.733889 0.022317 0.145093
H4    H     H_    0.747849 0.594681 0.117986 0.132123
H5    H     H_    0.775844 0.727330 0.327267 0.263111
H6    H     H_    0.855259 0.775127 0.199296 0.200874
H7    H     H_    0.740109 0.863299 0.224916 0.263683
H8    H     H_    0.902150 0.308233 0.851799 0.126543
H9    H     H_    0.773618 0.291446 0.755869 0.182443
H10   H     H_    0.694265 0.383790 0.948487 0.253924
H11   H     H_    0.768738 0.244950 0.996803 0.218053
H12   H     H_    0.562007 0.675689 0.884444 0.191175
H13   H     H_    0.822891 0.396796 0.043148 0.228917
H14   H     H_    0.502727 0.047507 0.161165 0.154023
H15   H     H_    0.364520 0.004018 0.141642 0.122761
H16   H     H_    0.408040 0.819359 0.004254 0.253403
H17   H     H_    0.436258 0.968263 0.931105 0.202396
H18   H     H_    0.541374 0.876433 0.015651 0.263718
H19   H     H_    0.486121 0.417221 0.895696 0.154474
H20   H     H_    0.449749 0.442107 0.092735 0.098348
H21   H     H_    0.974871 0.498213 0.220088 0.136276
H22   H     H_    0.027061 0.475072 0.780122 0.152249
H23   H     H_    0.165535 0.503725 0.239308 0.162635
H24   H     H_    0.181637 0.484007 0.673834 0.163785
H25   H     H_    0.455262 0.908450 0.591659 0.154164
N1    N     N_2   0.501130 0.501330 0.852280 -0.203870
N2    N     N_2   0.501160 0.501360 0.147950 -0.216519
O1    O     O_R   0.499980 0.319060 0.613040 -0.603905
O2    O     O_3   0.826006 0.474449 0.789036 -0.601873
O3    O     O_3   0.464852 0.882514 0.256638 -0.554682
O4    O     O_R   0.500020 0.319100 0.386900 -0.640432
O5    O     O_R   0.346340 0.499960 0.594380 -0.624911
O6    O     O_R   0.346380 0.500000 0.368250 -0.632710
O7    O     O_R   0.499980 0.680900 0.613100 -0.627199
O8    O     O_R   0.500020 0.680940 0.386960 -0.503415
O9    O     O_R   0.653620 0.500000 0.631750 -0.560890
O10   O     O_R   0.653660 0.500040 0.405620 -0.604696
O11   O     O_3   0.607755 0.673673 0.160626 -0.536346
Zn1   Zn    Zn3+2 0.499980 0.499970 0.650990 0.967852
Zn2   Zn    Zn3+2 0.500020 0.500030 0.349010 0.995376

loop_
_geom_bond_atom_site_label_1
_geom_bond_atom_site_label_2
_ccdc_geom_bond_type
C8    C22   A    
C16   O2    S    
C2    Cl1   S    
C6    O7    A    
C3    N1    D    
C4    C9    S    
C5    N2    D    
C18   O3    S    
C14   H4    S    
C4    O6    A    
C19   H18   S    
C8    C21   A    
C1    O1    A    
C25   H25   S    
C3    H12   S    
C15   H5    S    
C2    C26   D    
C11   H23   S    
C17   H10   S    
C1    O4    A    
C16   H9    S    
N1    Zn1   S    
C9    C11   A    
C12   C23   A    
C7    O9    A    
C6    O8    A    
C12   C20   A    
C14   H3    S    
H20   N2    S    
O8    Zn2   S    
C4    O5    A    
C14   O11   S    
C19   H16   S    
C1    C2    S    
C17   H11   S    
C18   H15   S    
C16   H8    S    
C10   H21   S    
C7    O10   A    
O9    Zn1   S    
C6    C25   S    
C23   H22   S    
C10   C11   A    
C21   H1    S    
O10   Zn2   S    
C19   H17   S    
O4    Zn2   S    
C7    C8    S    
O1    Zn1   S    
C24   C25   D    
H19   N1    S    
C26   H2    S    
C5    O11   S    
C18   C19   S    
C24   O3    S    
C18   H14   S    
C10   C20   A    
C9    C13   A    
C14   C15   S    
C16   C17   S    
C22   O2    S    
N2    Zn2   S    
C15   H7    S    
C12   C13   A    
C20   C21   A    
C13   H24   S    
O7    Zn1   S    
C15   H6    S    
C22   C23   A    
O6    Zn2   S    
C24   C26   S    
O5    Zn1   S    
C3    C5    S    
C17   H13   S    
