data_mof_unit_48458.cif
_audit_creation_date              2012-12-10T17:48:56-0500
_audit_creation_method            fapswitch 2.2
_symmetry_space_group_name_H-M    P1
_symmetry_Int_Tables_number       1
_space_group_crystal_system       triclinic
_cell_length_a                    10.718458
_cell_length_b                    14.671793
_cell_length_c                    14.805367
_cell_angle_alpha                 64.885993
_cell_angle_beta                  103.588147
_cell_angle_gamma                 103.136502
_cell_volume                      2027.52912225

loop_
_atom_site_label
_atom_site_type_symbol
_atom_type_description
_atom_site_fract_x
_atom_site_fract_y
_atom_site_fract_z
_atom_type_partial_charge
C1    C     C_R   0.474497 0.119816 0.312775 0.792544
C2    C     C_3   0.878372 0.000276 0.500196 0.147531
C3    C     C_3   0.922215 0.898291 0.579134 -0.394572
C4    C     C_3   0.965109 0.088515 0.527337 -0.363903
C5    C     C_R   0.433853 0.187629 0.208762 -0.041713
C6    C     C_R   0.521870 0.811839 0.795571 -0.081802
C7    C     C_R   0.263724 0.228868 0.064430 -0.188148
C8    C     C_R   0.323849 0.156609 0.150365 -0.195941
C9    C     C_R   0.488807 0.289855 0.176970 -0.236691
C10   C     C_R   0.427327 0.364770 0.092899 0.117973
C11   C     C_R   0.312309 0.332661 0.037004 0.164500
C12   C     C_R   0.259990 0.000293 0.500036 0.775247
C13   C     C_R   0.475042 0.470467 0.063867 0.101470
C14   C     C_R   0.415046 0.541153 0.972624 0.035828
C15   C     C_R   0.291931 0.507400 0.928003 -0.210226
C16   C     C_R   0.243379 0.404693 0.957622 -0.201702
C17   C     C_R   0.577010 0.508482 0.124401 -0.205129
C18   C     C_R   0.621037 0.611794 0.094094 -0.210401
C19   C     C_R   0.575883 0.679323 0.997951 0.166480
C20   C     C_R   0.477882 0.643973 0.932308 0.012772
C21   C     C_R   0.632395 0.781235 0.965979 -0.194618
C22   C     C_R   0.604175 0.847088 0.866272 -0.223221
C23   C     C_R   0.516186 0.879872 0.687569 0.826212
C24   C     C_R   0.454531 0.710552 0.828271 -0.066924
C25   C     C_R   0.740670 0.296800 0.646724 -0.281310
C26   C     C_R   0.696771 0.210313 0.625389 0.068191
C27   C     C_R   0.514074 0.282780 0.515080 0.002610
C28   C     C_R   0.560041 0.377296 0.525329 -0.061277
C29   C     C_R   0.672467 0.380755 0.597990 0.128474
C30   C     C_R   0.495816 0.466130 0.469810 -0.023644
C31   C     C_R   0.531387 0.548975 0.502710 0.038350
C32   C     C_R   0.641373 0.547293 0.577380 -0.241436
C33   C     C_R   0.713336 0.467054 0.621682 0.155140
C34   C     C_R   0.740171 0.999906 0.500095 0.753712
C35   C     C_R   0.400559 0.477616 0.381382 -0.027804
C36   C     C_R   0.326082 0.556951 0.342362 -0.170830
C37   C     C_R   0.353031 0.633131 0.379636 0.112879
C38   C     C_R   0.458375 0.632608 0.457768 -0.007801
C39   C     C_R   0.279478 0.713607 0.334630 -0.301037
C40   C     C_R   0.312307 0.794492 0.365392 0.100475
C41   C     C_R   0.485903 0.717178 0.486392 0.028212
C42   C     C_3   0.042585 0.015263 0.394261 -0.388904
C43   C     C_3   0.898464 0.014802 0.394317 -0.370082
C44   C     C_3   0.066247 0.898534 0.579091 -0.324143
C45   C     C_3   0.107960 0.088762 0.527365 -0.369397
C46   C     C_3   0.122270 0.000759 0.500217 0.124929
Cu1   Cu    Cu3+1 0.465900 0.918260 0.475680 0.957739
Cu2   Cu    Cu3+1 0.534100 0.081740 0.524320 0.933055
H1    H     H_    0.050923 0.953186 0.372580 0.167365
H2    H     H_    0.952946 0.080088 0.603295 0.163278
H3    H     H_    0.122360 0.886769 0.655728 0.173759
H4    H     H_    0.908563 0.886672 0.655732 0.156643
H5    H     H_    0.150637 0.381671 0.918873 0.172562
H6    H     H_    0.654675 0.924353 0.843017 0.157955
H7    H     H_    0.696573 0.638248 0.144213 0.139984
H8    H     H_    0.175784 0.204043 0.022057 0.135235
H9    H     H_    0.279386 0.077675 0.174826 0.140181
H10   H     H_    0.577295 0.308688 0.222001 0.131089
H11   H     H_    0.081285 0.088467 0.336630 0.167451
H12   H     H_    0.229250 0.559856 0.871912 0.195593
H13   H     H_    0.621610 0.461074 0.197784 0.130264
H14   H     H_    0.703636 0.809090 0.017251 0.134873
H15   H     H_    0.563960 0.723766 0.544980 0.116849
H16   H     H_    0.257482 0.857703 0.329158 0.110702
H17   H     H_    0.251291 0.563563 0.277099 0.182341
H18   H     H_    0.828111 0.296961 0.700764 0.172311
H19   H     H_    0.751513 0.147060 0.660982 0.119861
H20   H     H_    0.420770 0.269031 0.472502 0.131849
H21   H     H_    0.867270 0.087730 0.336601 0.157236
H22   H     H_    0.676978 0.609135 0.601810 0.150978
H23   H     H_    0.198796 0.715114 0.274321 0.136662
H24   H     H_    0.838070 0.952365 0.372918 0.174534
H25   H     H_    0.074730 0.833890 0.561338 0.213764
H26   H     H_    0.862123 0.833462 0.561595 0.180160
H27   H     H_    0.164113 0.080301 0.603341 0.173003
H28   H     H_    0.147202 0.163346 0.471763 0.184354
H29   H     H_    0.936059 0.163032 0.471709 0.180055
N1    N     N_R   0.585360 0.204570 0.560800 -0.176658
N2    N     N_R   0.414550 0.795430 0.439160 -0.173068
O1    O     O_R   0.455060 0.022100 0.338110 -0.590768
O2    O     O_R   0.512640 0.160150 0.379180 -0.581525
O3    O     O_R   0.288900 0.930980 0.479450 -0.571763
O4    O     O_R   0.346480 0.069030 0.520520 -0.593911
O5    O     O_R   0.487360 0.839850 0.620820 -0.554573
O6    O     O_R   0.544940 0.977900 0.661890 -0.591608
O7    O     O_R   0.653520 0.930970 0.479480 -0.592975
O8    O     O_R   0.711100 0.069020 0.520550 -0.596092
C47   C     C_2   0.373728 0.671661 0.752255 0.358763
H30   H     H_    0.392947 0.603491 0.749386 0.081803
O9    O     O_2   0.281947 0.713066 0.695536 -0.538806
I1    I     I_    0.881060 0.482627 0.727956 -0.448744
C48   C     C_2   0.390461 0.420281 0.317265 0.325911
H31   H     H_    0.472811 0.387618 0.319620 0.074790
O10   O     O_2   0.290939 0.410373 0.259723 -0.543332

loop_
_geom_bond_atom_site_label_1
_geom_bond_atom_site_label_2
_ccdc_geom_bond_type
C43   H24   S    
C15   H12   S    
C19   C20   A    
Cu1   N2    S    
C27   N1    A    
C7    C8    A    
C22   H6    S    
C45   C46   S    
C7    C11   A    
C26   N1    A    
C30   C35   A    
C45   H28   S    
C1    C5    S    
C26   H19   S    
C7    H8    S    
C28   C29   A    
C19   C21   A    
C9    H10   S    
C33   I1    S    
C42   C46   S    
C30   C31   A    
C1    O2    A    
C15   C16   A    
C6    C22   A    
C29   C33   A    
Cu2   O2    S    
C18   C19   A    
C34   O7    A    
Cu1   O3    S    
Cu2   N1    S    
C3    H26   S    
C20   C24   A    
C16   H5    S    
C27   H20   S    
C17   H13   S    
C31   C32   A    
C9    C10   A    
C35   C48   S    
C2    C34   S    
C43   H21   S    
C13   C14   A    
Cu1   O1    S    
C44   C46   S    
C4    C45   S    
C25   C29   A    
C3    C44   S    
Cu2   O8    S    
C23   O5    A    
Cu1   O7    S    
C14   C20   A    
C38   C41   A    
C12   C46   S    
C39   C40   A    
C36   H17   S    
C32   H22   S    
C25   C26   A    
C12   O4    A    
C4    H2    S    
C35   C36   A    
C2    C4    S    
C5    C9    A    
C37   C38   A    
C8    H9    S    
C11   C16   A    
Cu1   Cu2   S    
C2    C43   S    
C6    C24   A    
C48   O10   D    
C17   C18   A    
C40   N2    A    
C12   O3    A    
Cu1   O5    S    
C24   C47   S    
C21   H14   S    
C18   H7    S    
C44   H3    S    
C47   O9    D    
C42   C43   S    
C41   H15   S    
C36   C37   A    
C14   C15   A    
C25   H18   S    
C10   C13   A    
C42   H11   S    
C41   N2    A    
C5    C8    A    
C3    H4    S    
Cu2   O4    S    
C40   H16   S    
C31   C38   A    
C13   C17   A    
C45   H27   S    
C32   C33   A    
C28   C30   A    
C2    C3    S    
C4    H29   S    
C37   C39   A    
C6    C23   S    
C48   H31   S    
C34   O8    A    
C44   H25   S    
C10   C11   A    
C42   H1    S    
C47   H30   S    
C23   O6    A    
C27   C28   A    
C1    O1    A    
C39   H23   S    
Cu2   O6    S    
C21   C22   A    
