data_mof_unit_52946.cif
_audit_creation_date              2012-12-10T20:50:09-0500
_audit_creation_method            fapswitch 2.2
_symmetry_space_group_name_H-M    P1
_symmetry_Int_Tables_number       1
_space_group_crystal_system       triclinic
_cell_length_a                    18.998041
_cell_length_b                    8.931111
_cell_length_c                    8.099893
_cell_angle_alpha                 90.000074
_cell_angle_beta                  89.763251
_cell_angle_gamma                 89.999875
_cell_volume                      1374.32637725

loop_
_atom_site_label
_atom_site_type_symbol
_atom_type_description
_atom_site_fract_x
_atom_site_fract_y
_atom_site_fract_z
_atom_type_partial_charge
C1    C     C_R   0.500000 0.217965 0.500000 0.938657
C2    C     C_R   0.260983 0.374467 0.382491 -0.273759
C3    C     C_R   0.177275 0.482934 0.642287 0.191296
C4    C     C_R   0.822723 0.482928 0.357703 0.191296
C5    C     C_R   0.809338 0.330985 0.607905 0.199715
C6    C     C_R   0.190662 0.330989 0.392087 0.199713
C7    C     C_R   0.147458 0.390004 0.519128 0.006834
C8    C     C_R   0.852541 0.389998 0.480861 0.006835
C9    C     C_R   0.289702 0.468765 0.502071 -0.084056
C10   C     C_R   0.710298 0.468765 0.497927 -0.084056
C11   C     C_R   0.929075 0.370479 0.489816 0.302762
C12   C     C_R   0.500000 0.782038 0.500000 0.937542
C13   C     C_R   0.070925 0.370483 0.510172 0.302766
C14   C     C_3   0.139572 0.462706 0.925286 -0.732463
C15   C     C_3   0.860426 0.462692 0.074705 -0.732462
C16   C     C_3   0.847155 0.077645 0.662127 -0.765405
C17   C     C_3   0.152849 0.077649 0.337856 -0.765406
C18   C     C_R   0.364834 0.497535 0.500369 0.882607
C19   C     C_R   0.635166 0.497535 0.499631 0.882606
C20   C     C_1   0.500000 0.065195 0.500000 -0.197198
C21   C     C_1   0.500000 0.934819 0.500000 -0.199179
C22   C     C_R   0.248345 0.520832 0.632503 -0.268311
C23   C     C_R   0.751654 0.520829 0.367492 -0.268311
C24   C     C_R   0.739018 0.374466 0.617506 -0.273761
H1    H     H_    0.271178 0.591946 0.726628 0.158618
H2    H     H_    0.806464 0.469944 0.022718 0.221076
H3    H     H_    0.874428 0.343226 0.094363 0.254416
H4    H     H_    0.898135 0.511121 0.984228 0.254632
H5    H     H_    0.808833 0.226118 0.836374 0.223713
H6    H     H_    0.870755 0.006457 0.759719 0.241002
H7    H     H_    0.883766 0.079405 0.554922 0.246348
H8    H     H_    0.796189 0.027514 0.624015 0.232329
H9    H     H_    0.191167 0.226130 0.163614 0.223713
H10   H     H_    0.129250 0.006463 0.240263 0.241002
H11   H     H_    0.116238 0.079404 0.445062 0.246348
H12   H     H_    0.728821 0.591943 0.273368 0.158619
H13   H     H_    0.203816 0.027522 0.375966 0.232329
H14   H     H_    0.705911 0.329073 0.714684 0.158480
H15   H     H_    0.294090 0.329072 0.285314 0.158481
H16   H     H_    0.144329 0.657841 0.789096 0.223048
H17   H     H_    0.193533 0.469966 0.977275 0.221075
H18   H     H_    0.125572 0.343239 0.905632 0.254417
H19   H     H_    0.101860 0.511135 0.015759 0.254632
H20   H     H_    0.855667 0.657832 0.210887 0.223048
N1    N     N_1   0.500000 0.500000 0.073640 -0.036084
N2    N     N_2   0.163982 0.227197 0.274133 -0.296982
N3    N     N_1   0.500000 0.500000 0.926360 -0.036084
N4    N     N_R   0.038748 0.368667 0.361127 -0.148515
N5    N     N_R   0.961252 0.368664 0.638862 -0.148515
N6    N     N_R   0.969072 0.368060 0.351143 -0.148041
N7    N     N_R   0.030928 0.368060 0.648846 -0.148041
N8    N     N_2   0.135618 0.544917 0.771677 -0.298816
N9    N     N_2   0.864379 0.544908 0.228310 -0.298816
N10   N     N_2   0.836019 0.227189 0.725855 -0.296982
O1    O     O_R   0.500000 0.285350 0.636850 -0.615151
O2    O     O_R   0.500000 0.714650 0.363150 -0.614063
O3    O     O_R   0.500000 0.714650 0.636850 -0.614063
O4    O     O_R   0.500000 0.285350 0.363150 -0.615151
O5    O     O_R   0.398140 0.500000 0.636920 -0.616654
O6    O     O_R   0.601860 0.500000 0.363080 -0.616654
O7    O     O_R   0.601860 0.500000 0.636920 -0.620514
O8    O     O_R   0.398140 0.500000 0.363080 -0.620515
Zn1   Zn    Zn3+2 0.500000 0.500000 0.682780 0.982026
Zn2   Zn    Zn3+2 0.500000 0.500000 0.317220 0.982026

loop_
_geom_bond_atom_site_label_1
_geom_bond_atom_site_label_2
_ccdc_geom_bond_type
C5    C8    A    
C24   H14   S    
C3    N8    S    
O2    Zn2   S    
C6    C7    A    
C11   N5    A    
C4    N9    S    
C16   H8    S    
C6    N2    S    
C5    N10   S    
N1    Zn2   S    
O5    Zn1   S    
O6    Zn2   S    
C10   C19   S    
C4    C8    A    
C15   H2    S    
N4    N6    A    
C1    O1    A    
C11   N6    A    
C17   H13   S    
C1    O4    A    
C20   C21   T    
C16   H7    S    
O4    Zn2   S    
H9    N2    S    
C2    C9    A    
C15   H4    S    
C2    C6    A    
C5    C24   A    
C18   O5    A    
C19   O7    A    
C14   H17   S    
C12   O3    A    
C2    H15   S    
C12   O2    A    
O3    Zn1   S    
C3    C7    A    
C8    C11   S    
N3    Zn1   S    
C10   C23   A    
C16   N10   S    
C9    C22   A    
C17   H10   S    
C16   H6    S    
C12   C21   S    
C15   N9    S    
C9    C18   S    
C7    C13   S    
C17   N2    S    
C19   O6    A    
C23   H12   S    
H5    N10   S    
N1    N3    T    
O7    Zn1   S    
C4    C23   A    
C18   O8    A    
C1    C20   S    
O8    Zn2   S    
C17   H11   S    
C3    C22   A    
C10   C24   A    
H16   N8    S    
C14   H18   S    
C15   H3    S    
H20   N9    S    
C22   H1    S    
C14   N8    S    
O1    Zn1   S    
C14   H19   S    
N5    N7    A    
C13   N4    A    
C13   N7    A    
