data_mof_unit_42554.cif
_audit_creation_date              2012-12-10T18:59:19-0500
_audit_creation_method            fapswitch 2.2
_symmetry_space_group_name_H-M    P1
_symmetry_Int_Tables_number       1
_space_group_crystal_system       triclinic
_cell_length_a                    9.826999
_cell_length_b                    10.72118
_cell_length_c                    16.634764
_cell_angle_alpha                 89.441711
_cell_angle_beta                  94.324229
_cell_angle_gamma                 90.005489
_cell_volume                      1747.51689797

loop_
_atom_site_label
_atom_site_type_symbol
_atom_type_description
_atom_site_fract_x
_atom_site_fract_y
_atom_site_fract_z
_atom_type_partial_charge
C1    C     C_R   0.499952 0.259821 0.500072 0.869202
C2    C     C_R   0.078393 0.421497 0.549950 -0.074095
C3    C     C_R   0.517517 0.494570 0.653862 0.883767
C4    C     C_R   0.482483 0.505428 0.346139 0.883764
C5    C     C_R   0.527263 0.476027 0.740749 -0.079846
C6    C     C_R   0.472733 0.523966 0.259251 -0.079831
C7    C     C_R   0.413837 0.429945 0.777872 -0.230665
C8    C     C_R   0.586142 0.570083 0.222127 -0.230677
C9    C     C_R   0.419627 0.413152 0.861030 0.220744
C10   C     C_R   0.580349 0.586864 0.138967 0.220716
C11   C     C_R   0.540023 0.447098 0.907232 0.313139
C12   C     C_R   0.500048 0.740179 0.499928 0.869202
C13   C     C_R   0.459965 0.552884 0.092768 0.313156
C14   C     C_R   0.655806 0.485043 0.869806 -0.237236
C15   C     C_R   0.344197 0.514893 0.130195 -0.237219
C16   C     C_R   0.649782 0.499416 0.786622 -0.225164
C17   C     C_R   0.350226 0.500525 0.213380 -0.225167
C18   C     C_R   0.376389 0.064081 0.485733 -0.196201
C19   C     C_R   0.623611 0.935919 0.514267 -0.196200
C20   C     C_3   0.703847 0.638418 0.101659 -0.924237
C21   C     C_3   0.296113 0.361609 0.898332 -0.924282
C22   C     C_R   0.376438 0.936303 0.485601 -0.192484
C23   C     C_R   0.623562 0.063697 0.514399 -0.192483
C24   C     C_R   0.500045 0.872600 0.499897 -0.013746
C25   C     C_R   0.499955 0.127400 0.500103 -0.013744
C26   C     C_R   0.065600 0.578533 0.450031 -0.077082
C27   C     C_R   0.934400 0.421467 0.549969 -0.077085
C28   C     C_R   0.921607 0.578503 0.450050 -0.074091
H1    H     H_    0.679490 0.593331 0.257766 0.163284
H2    H     H_    0.719679 0.112177 0.526091 0.153724
H3    H     H_    0.115168 0.641266 0.410121 0.123986
H4    H     H_    0.884832 0.358735 0.589879 0.123983
H5    H     H_    0.861819 0.641205 0.410139 0.122287
H6    H     H_    0.138181 0.358795 0.589860 0.122287
H7    H     H_    0.683384 0.659659 0.036471 0.256018
H8    H     H_    0.735922 0.726755 0.131818 0.236573
H9    H     H_    0.788945 0.570237 0.109575 0.242909
H10   H     H_    0.316578 0.340335 0.963512 0.256018
H11   H     H_    0.211042 0.429816 0.890436 0.242916
H12   H     H_    0.320479 0.406730 0.742232 0.163295
H13   H     H_    0.263997 0.273294 0.868160 0.236575
H14   H     H_    0.748221 0.510109 0.905623 0.151820
H15   H     H_    0.251793 0.489789 0.094380 0.151816
H16   H     H_    0.739054 0.532762 0.758580 0.167632
H17   H     H_    0.260968 0.467144 0.241423 0.167628
H18   H     H_    0.280240 0.112872 0.474141 0.157054
H19   H     H_    0.719760 0.887128 0.525858 0.157055
H20   H     H_    0.280321 0.887823 0.473909 0.153724
N1    N     N_2   0.541234 0.459264 0.990961 -0.189525
N2    N     N_2   0.458754 0.540719 0.009040 -0.189528
N3    N     N_R   0.857210 0.499970 0.500020 -0.077563
N4    N     N_R   0.142790 0.500030 0.499980 -0.077564
O1    O     O_R   0.614620 0.316750 0.500010 -0.623800
O2    O     O_R   0.385380 0.683250 0.499990 -0.623799
O3    O     O_R   0.385290 0.316780 0.500000 -0.628044
O4    O     O_R   0.614710 0.683220 0.500000 -0.628044
O5    O     O_R   0.627460 0.498830 0.616130 -0.618859
O6    O     O_R   0.372540 0.501170 0.383870 -0.618858
O7    O     O_R   0.398130 0.498850 0.616130 -0.618137
O8    O     O_R   0.601870 0.501150 0.383870 -0.618132
Zn1   Zn    Zn3+2 0.653130 0.499980 0.500000 0.944560
Zn2   Zn    Zn3+2 0.346870 0.500020 0.500000 0.944559

loop_
_geom_bond_atom_site_label_1
_geom_bond_atom_site_label_2
_ccdc_geom_bond_type
O6    Zn2   S    
C19   C23   A    
C7    H12   S    
C23   H2    S    
O5    Zn1   S    
C2    C27   A    
C11   N1    S    
C10   C20   S    
C26   N4    A    
C5    C7    A    
C12   C24   S    
C26   C28   A    
N3    Zn1   S    
C14   H14   S    
C7    C9    A    
C2    H6    S    
C13   C15   A    
C19   C24   A    
C1    O3    A    
C15   H15   S    
C26   H3    S    
N4    Zn2   S    
C1    C25   S    
C20   H9    S    
C9    C11   A    
C9    C21   S    
C12   O4    A    
C18   C25   A    
C2    N4    A    
C21   H13   S    
C8    H1    S    
C3    O5    A    
C4    C6    S    
C11   C14   A    
C27   N3    A    
C28   H5    S    
C22   C24   A    
C23   C25   A    
C28   N3    A    
C14   C16   A    
C13   N2    S    
C20   H8    S    
O3    Zn2   S    
C18   H18   S    
C22   H20   S    
C8    C10   A    
N1    N2    D    
C19   H19   S    
C4    O6    A    
C15   C17   A    
C6    C17   A    
C1    O1    A    
O4    Zn1   S    
C5    C16   A    
C6    C8    A    
O2    Zn2   S    
C3    C5    S    
C27   H4    S    
C18   C22   A    
C20   H7    S    
O1    Zn1   S    
C21   H11   S    
C16   H16   S    
C12   O2    A    
C21   H10   S    
C4    O8    A    
C17   H17   S    
O8    Zn1   S    
O7    Zn2   S    
C10   C13   A    
C3    O7    A    
