data_mof_unit_59349.cif
_audit_creation_date              2012-12-10T18:14:34-0500
_audit_creation_method            fapswitch 2.2
_symmetry_space_group_name_H-M    P1
_symmetry_Int_Tables_number       1
_space_group_crystal_system       triclinic
_cell_length_a                    10.724585
_cell_length_b                    9.422423
_cell_length_c                    27.823603
_cell_angle_alpha                 90.0853
_cell_angle_beta                  90.07718
_cell_angle_gamma                 89.998066
_cell_volume                      2811.61327526

loop_
_atom_site_label
_atom_site_type_symbol
_atom_type_description
_atom_site_fract_x
_atom_site_fract_y
_atom_site_fract_z
_atom_type_partial_charge
C1    C     C_R   0.259676 0.499806 0.499993 0.775618
C2    C     C_R   0.385576 0.473766 0.974556 0.043363
C3    C     C_R   0.614829 0.500418 0.974890 0.043545
C4    C     C_R   0.499624 0.499873 0.407493 0.822848
C5    C     C_R   0.500402 0.486569 0.949484 0.068259
C6    C     C_R   0.273954 0.466984 0.947399 -0.204272
C7    C     C_R   0.275475 0.468248 0.897493 -0.145114
C8    C     C_R   0.388045 0.476757 0.872548 -0.023212
C9    C     C_R   0.500797 0.485888 0.898363 -0.044433
C10   C     C_R   0.613934 0.494756 0.872920 -0.023804
C11   C     C_R   0.612223 0.494887 0.822466 0.540550
C12   C     C_R   0.485994 0.370304 0.279115 -0.106490
C13   C     C_R   0.390399 0.478162 0.822090 0.538874
C14   C     C_R   0.466856 0.371697 0.720195 -0.103348
C15   C     C_R   0.467211 0.375676 0.670181 -0.313582
C16   C     C_R   0.740067 0.499803 0.500010 0.754938
C17   C     C_R   0.538130 0.621336 0.672244 0.377691
C18   C     C_R   0.537145 0.615702 0.722755 -0.202914
C19   C     C_R   0.501676 0.491550 0.746624 0.318740
C20   C     C_R   0.385807 0.469461 0.025642 0.043048
C21   C     C_R   0.499521 0.489967 0.051017 0.067932
C22   C     C_R   0.613714 0.508314 0.025918 0.042931
C23   C     C_R   0.497863 0.497754 0.253768 0.358047
C24   C     C_R   0.275927 0.444607 0.052514 -0.205098
C25   C     C_R   0.721083 0.539389 0.102859 -0.144375
C26   C     C_R   0.726939 0.505161 0.948116 -0.204381
C27   C     C_R   0.726188 0.502700 0.898217 -0.145450
C28   C     C_R   0.500917 0.500184 0.592583 0.832795
C29   C     C_R   0.723100 0.535432 0.052976 -0.205566
C30   C     C_3   0.071988 0.576019 0.545405 -0.389314
C31   C     C_3   0.071172 0.344527 0.499883 -0.375046
C32   C     C_3   0.928048 0.576307 0.545362 -0.360415
C33   C     C_3   0.928493 0.344501 0.500058 -0.377459
C34   C     C_R   0.499028 0.492267 0.102130 -0.043855
C35   C     C_3   0.071630 0.576033 0.454677 -0.348980
C36   C     C_3   0.121696 0.499127 0.499996 0.140488
C37   C     C_3   0.878011 0.499114 0.500016 0.156147
C38   C     C_3   0.927704 0.575723 0.454630 -0.389695
C39   C     C_3   0.626267 0.083878 0.511517 -0.309746
C40   C     C_3   0.626177 0.916175 0.511703 -0.303028
C41   C     C_3   0.416399 0.083773 0.538691 -0.245900
C42   C     C_3   0.416008 0.916601 0.538565 -0.243710
C43   C     C_3   0.462360 0.083865 0.453352 0.368260
C44   C     C_3   0.462895 0.915798 0.453285 0.366437
C45   C     C_R   0.387440 0.469915 0.127650 -0.022186
C46   C     C_R   0.389076 0.472249 0.178107 0.537711
C47   C     C_R   0.607546 0.519069 0.178310 0.533881
C48   C     C_R   0.510041 0.626067 0.278763 -0.102523
C49   C     C_R   0.510240 0.627063 0.328888 -0.199785
C50   C     C_R   0.486746 0.370883 0.329214 -0.206370
C51   C     C_R   0.276984 0.445111 0.102425 -0.144288
C52   C     C_R   0.610120 0.516962 0.127865 -0.020175
C53   C     C_R   0.498888 0.499339 0.354579 -0.054309
C54   C     C_R   0.502123 0.499893 0.645662 -0.077481
Cu1   Cu    Cu3+1 0.499860 0.642410 0.500020 0.949816
Cu2   Cu    Cu3+1 0.499860 0.357590 0.500020 0.929405
H1    H     H_    0.477511 0.270887 0.348002 0.178245
H2    H     H_    0.106820 0.521983 0.578343 0.160563
H3    H     H_    0.105734 0.286150 0.532024 0.158093
H4    H     H_    0.893146 0.522809 0.578353 0.163910
H5    H     H_    0.894700 0.286778 0.532423 0.165031
H6    H     H_    0.476737 0.270793 0.259919 0.141935
H7    H     H_    0.893860 0.687842 0.546238 0.168042
H8    H     H_    0.894068 0.286216 0.467817 0.164273
H9    H     H_    0.105681 0.687565 0.453849 0.178636
H10   H     H_    0.106574 0.522398 0.421664 0.174144
H11   H     H_    0.893186 0.687102 0.453610 0.163919
H12   H     H_    0.519100 0.724934 0.259286 0.140509
H13   H     H_    0.892893 0.521482 0.421673 0.162036
H14   H     H_    0.660422 0.124047 0.546789 0.181451
H15   H     H_    0.659664 0.876917 0.547151 0.202364
H16   H     H_    0.694325 0.120864 0.484145 0.143526
H17   H     H_    0.694717 0.878321 0.484600 0.141009
H18   H     H_    0.447291 0.120550 0.574765 0.165196
H19   H     H_    0.445976 0.879422 0.574656 0.206784
H20   H     H_    0.533411 0.116907 0.426453 0.081136
H21   H     H_    0.534760 0.883366 0.426588 0.079926
H22   H     H_    0.320019 0.124686 0.534895 0.136220
H23   H     H_    0.807515 0.560367 0.121792 0.188409
H24   H     H_    0.319481 0.876361 0.534486 0.131260
H25   H     H_    0.190196 0.425788 0.121207 0.188007
H26   H     H_    0.439109 0.281418 0.650666 0.165629
H27   H     H_    0.439687 0.275201 0.738497 0.152600
H28   H     H_    0.187326 0.462941 0.878496 0.186983
H29   H     H_    0.182818 0.463450 0.963497 0.135371
H30   H     H_    0.187134 0.421728 0.036186 0.137255
H31   H     H_    0.519778 0.727584 0.347440 0.164154
H32   H     H_    0.597726 0.816702 0.672485 0.316287
H33   H     H_    0.281314 0.114068 0.458682 0.306336
H34   H     H_    0.817822 0.508424 0.964536 0.135335
H35   H     H_    0.282176 0.881581 0.458362 0.306814
H36   H     H_    0.814641 0.507285 0.879506 0.186739
H37   H     H_    0.564141 0.707695 0.743724 0.137591
H38   H     H_    0.812183 0.556985 0.036786 0.137545
H39   H     H_    0.106488 0.687412 0.546453 0.162473
H40   H     H_    0.104690 0.287015 0.467401 0.182556
N1    N     N_R   0.498098 0.496665 0.202266 -0.469435
N2    N     N_R   0.501439 0.487442 0.798170 -0.458235
N3    N     N_3   0.500250 0.143650 0.501060 -0.149129
N4    N     N_3   0.500250 0.856350 0.501060 -0.154760
O1    O     O_R   0.317570 0.620260 0.500030 -0.573613
O2    O     O_2   0.282558 0.471797 0.797115 -0.535740
O3    O     O_2   0.713650 0.542185 0.203265 -0.534007
O4    O     O_2   0.720399 0.501875 0.797841 -0.534813
O5    O     O_3   0.575973 0.742636 0.648540 -0.751476
O6    O     O_3   0.349295 0.142279 0.436777 -0.696685
O7    O     O_3   0.350612 0.856448 0.436211 -0.693692
O8    O     O_R   0.317570 0.379740 0.500030 -0.569119
O9    O     O_R   0.499900 0.620250 0.430280 -0.554782
O10   O     O_R   0.499900 0.379750 0.430280 -0.556431
O11   O     O_R   0.682190 0.620260 0.500010 -0.599840
O12   O     O_R   0.682190 0.379740 0.500010 -0.602890
O13   O     O_R   0.499860 0.620280 0.569750 -0.535122
O14   O     O_R   0.499860 0.379720 0.569750 -0.605349
O15   O     O_2   0.282541 0.451172 0.202861 -0.528196

loop_
_geom_bond_atom_site_label_1
_geom_bond_atom_site_label_2
_ccdc_geom_bond_type
C10   C27   A    
C4    O9    A    
C42   H24   S    
C8    C13   A    
C40   H15   S    
C4    C53   S    
C41   C42   S    
C49   H31   S    
C35   C36   S    
Cu1   Cu2   S    
C7    C8    A    
C45   C46   A    
C12   C23   A    
C42   H19   S    
C37   C38   S    
C6    H29   S    
C46   O15   S    
C11   N2    A    
C44   H21   S    
C22   C29   A    
C43   N3    S    
C42   N4    S    
C29   H38   S    
C45   C51   A    
C31   H40   S    
C40   H17   S    
C18   C19   A    
C31   H3    S    
C13   N2    A    
Cu2   O8    S    
C41   H18   S    
C20   C24   A    
C8    C9    A    
H33   O6    S    
C39   H16   S    
C41   N3    S    
C11   O4    S    
C9    C10   A    
C51   H25   S    
C16   C37   S    
C24   C51   A    
C7    H28   S    
C38   H13   S    
C21   C22   A    
Cu1   O9    S    
C2    C6    A    
C14   H27   S    
Cu2   O10   S    
C19   N2    S    
C15   H26   S    
C25   C29   A    
C50   C53   A    
C47   O3    S    
C2    C20   A    
C15   C54   A    
H35   O7    S    
C35   C38   S    
C38   H11   S    
C28   O13   A    
C41   H22   S    
C28   C54   S    
C21   C34   A    
Cu1   O13   S    
C35   H10   S    
C33   C37   S    
C43   O6    S    
Cu1   N4    S    
C43   C44   S    
C5    C9    A    
C30   H39   S    
C17   O5    S    
C12   H6    S    
C39   N3    S    
C14   C15   A    
C31   C33   S    
C17   C18   A    
C26   C27   A    
C27   H36   S    
C34   C45   A    
C32   C37   S    
C48   H12   S    
C47   C52   A    
C28   O14   A    
C48   C49   A    
C23   N1    S    
C46   N1    A    
C2    C5    A    
C32   H4    S    
C1    O1    A    
C39   C40   S    
C16   O12   A    
C44   O7    S    
C43   H20   S    
C4    O10   A    
Cu2   O14   S    
C23   C48   A    
Cu1   O11   S    
C25   H23   S    
C50   H1    S    
C14   C19   A    
C3    C26   A    
C32   H7    S    
C3    C5    A    
C40   N4    S    
C12   C50   A    
C6    C7    A    
C26   H34   S    
Cu1   O1    S    
C34   C52   A    
C47   N1    A    
C30   C36   S    
C25   C52   A    
C30   C32   S    
H32   O5    S    
C44   N4    S    
C33   H8    S    
C49   C53   A    
C30   H2    S    
C39   H14   S    
C10   C11   A    
C1    O8    A    
C20   C21   A    
C16   O11   A    
C33   H5    S    
C18   H37   S    
C35   H9    S    
C31   C36   S    
C3    C22   A    
Cu2   N3    S    
C13   O2    S    
C24   H30   S    
C17   C54   A    
Cu2   O12   S    
C1    C36   S    
