data_mof_unit_35147.cif
_audit_creation_date              2012-12-10T21:13:11-0500
_audit_creation_method            fapswitch 2.2
_symmetry_space_group_name_H-M    P1
_symmetry_Int_Tables_number       1
_space_group_crystal_system       triclinic
_cell_length_a                    17.481571
_cell_length_b                    16.74627
_cell_length_c                    14.963235
_cell_angle_alpha                 90.556329
_cell_angle_beta                  90.538784
_cell_angle_gamma                 89.914346
_cell_volume                      4380.0991486

loop_
_atom_site_label
_atom_site_type_symbol
_atom_type_description
_atom_site_fract_x
_atom_site_fract_y
_atom_site_fract_z
_atom_type_partial_charge
C1    C     C_R   0.352990 0.500095 0.499671 0.996960
C2    C     C_R   0.646788 0.499895 0.497762 0.989638
C3    C     C_R   0.424414 0.622691 0.047030 0.319437
C4    C     C_R   0.572117 0.373389 0.953711 0.299391
C5    C     C_R   0.850085 0.567871 0.493174 0.415383
C6    C     C_R   0.150706 0.428237 0.486886 0.410113
C7    C     C_R   0.156702 0.565448 0.431642 0.399470
C8    C     C_R   0.840534 0.435154 0.422981 0.378558
C9    C     C_R   0.771899 0.566486 0.508817 -0.230639
C10   C     C_R   0.228909 0.430650 0.504292 -0.219856
C11   C     C_R   0.234067 0.567475 0.453351 -0.168085
C12   C     C_R   0.762928 0.434327 0.441993 -0.204086
C13   C     C_R   0.728743 0.499597 0.484650 -0.186650
C14   C     C_R   0.270422 0.500138 0.488384 -0.188327
C15   C     C_R   0.884590 0.501699 0.450257 -0.173046
C16   C     C_R   0.114439 0.496085 0.450511 -0.196731
C17   C     C_1   0.965401 0.499264 0.442511 0.225590
C18   C     C_1   0.033503 0.497378 0.442507 0.237682
C19   C     C_R   0.445934 0.832056 0.449825 0.328907
C20   C     C_R   0.460478 0.168222 0.565094 0.332427
C21   C     C_R   0.557054 0.831927 0.548271 0.330154
C22   C     C_R   0.542399 0.167960 0.434971 0.324466
C23   C     C_R   0.446282 0.747845 0.452111 -0.022331
C24   C     C_R   0.460531 0.252472 0.563266 -0.020245
C25   C     C_R   0.554620 0.747656 0.547499 -0.038197
C26   C     C_R   0.540576 0.252201 0.436944 -0.045447
C27   C     C_R   0.501803 0.875515 0.499000 -0.177831
C28   C     C_R   0.501724 0.124570 0.499857 -0.176221
C29   C     C_1   0.502159 0.963532 0.499204 0.261740
C30   C     C_1   0.502136 0.036553 0.499461 0.260395
C31   C     C_R   0.499362 0.499484 0.326508 1.034937
C32   C     C_R   0.500934 0.500392 0.673484 1.038802
C33   C     C_R   0.553153 0.449981 0.814843 0.386302
C34   C     C_R   0.444821 0.545559 0.184710 0.396371
C35   C     C_R   0.503062 0.501156 0.769169 -0.348469
C36   C     C_R   0.497605 0.498010 0.230840 -0.343103
C37   C     C_R   0.455476 0.554423 0.814424 0.635587
C38   C     C_R   0.546359 0.445683 0.185817 0.632742
C39   C     C_R   0.458197 0.557904 0.907093 -0.181104
C40   C     C_R   0.542505 0.440939 0.093153 -0.157429
C41   C     C_R   0.500198 0.498972 0.953468 -0.111664
C42   C     C_R   0.499652 0.499075 0.046588 -0.118880
C43   C     C_R   0.542235 0.439614 0.906637 -0.168033
C44   C     C_R   0.456147 0.557109 0.093430 -0.181425
C45   C     C_R   0.421606 0.619946 0.953903 0.663732
C46   C     C_R   0.577695 0.377937 0.046663 0.648554
H1    H     H_    0.744481 0.617188 0.540664 0.231817
H2    H     H_    0.257666 0.378399 0.530377 0.225679
H3    H     H_    0.266500 0.621066 0.440231 0.236417
H4    H     H_    0.728628 0.383304 0.421894 0.201541
H5    H     H_    0.403478 0.714329 0.415570 0.225692
H6    H     H_    0.429081 0.286338 0.612663 0.201076
H7    H     H_    0.596567 0.713853 0.584927 0.205745
H8    H     H_    0.571795 0.285898 0.388009 0.226431
N1    N     N_R   0.500000 0.707230 0.500000 -0.158954
N2    N     N_R   0.500000 0.292770 0.500000 -0.156745
O1    O     O_R   0.389110 0.566570 0.500000 -0.610013
O2    O     O_R   0.610890 0.433430 0.500000 -0.599109
O3    O     O_R   0.610890 0.566570 0.500000 -0.631872
O4    O     O_R   0.389110 0.433430 0.500000 -0.624806
O5    O     O_R   0.499980 0.566550 0.367850 -0.608850
O6    O     O_R   0.500020 0.433450 0.632150 -0.609259
O7    O     O_R   0.500020 0.566550 0.632150 -0.562265
O8    O     O_R   0.499980 0.433450 0.367850 -0.575762
Zn1   Zn    Zn3+2 0.500000 0.588860 0.500000 1.055974
Zn2   Zn    Zn3+2 0.500000 0.411140 0.500000 1.054841
S1    S     S_3+6 0.642929 0.426493 0.765039 0.101615
O9    O     O_2   0.702947 0.412367 0.835750 -0.216872
O10   O     O_2   0.635863 0.353999 0.705577 -0.207157
O11   O     O_3   0.670825 0.504278 0.703116 -0.584523
H9    H     H_    0.724453 0.492213 0.686945 0.390678
S2    S     S_3+6 0.351619 0.557077 0.230192 0.089855
O12   O     O_2   0.348529 0.629183 0.290270 -0.227160
O13   O     O_2   0.293035 0.565063 0.156581 -0.218735
O14   O     O_3   0.330724 0.475472 0.289872 -0.585029
H10   H     H_    0.274136 0.472634 0.289996 0.392029
F1    F     F_    0.408479 0.603925 0.767536 -0.567156
F2    F     F_    0.594783 0.397760 0.232811 -0.583817
F3    F     F_    0.386594 0.680298 0.909142 -0.509505
F4    F     F_    0.612223 0.317517 0.091808 -0.545376
S3    S     S_3+6 0.404007 0.715583 0.100616 0.165076
O15   O     O_2   0.319434 0.723479 0.115466 -0.157343
O16   O     O_2   0.446046 0.722338 0.188468 -0.256756
O17   O     O_3   0.432388 0.790626 0.034823 -0.443476
H11   H     H_    0.418877 0.840039 0.068053 0.407944
S4    S     S_3+6 0.582581 0.277489 0.902945 0.174826
O18   O     O_2   0.537819 0.272278 0.816850 -0.211016
O19   O     O_2   0.665524 0.260561 0.884921 -0.170279
O20   O     O_3   0.548744 0.207483 0.972264 -0.450877
H12   H     H_    0.594372 0.179659 0.996462 0.413369
S5    S     S_3+6 0.902269 0.653770 0.526836 0.100745
O21   O     O_2   0.972616 0.629716 0.578522 -0.246695
O22   O     O_2   0.925315 0.698331 0.444731 -0.190095
O23   O     O_3   0.848120 0.713724 0.591324 -0.508278
H13   H     H_    0.879911 0.761746 0.602638 0.413888
S6    S     S_3+6 0.100558 0.339028 0.509547 0.101924
O24   O     O_2   0.031792 0.357447 0.565715 -0.242318
O25   O     O_2   0.075051 0.302095 0.422377 -0.188035
O26   O     O_3   0.157266 0.274143 0.564176 -0.511331
H14   H     H_    0.125645 0.225602 0.571120 0.418742
S7    S     S_3+6 0.116114 0.651271 0.381656 0.119505
O27   O     O_2   0.048931 0.629502 0.322955 -0.236472
O28   O     O_2   0.090803 0.707687 0.454265 -0.187460
O29   O     O_3   0.182514 0.696684 0.319475 -0.461077
H15   H     H_    0.157191 0.745618 0.297098 0.408484
S8    S     S_3+6 0.879768 0.351134 0.366933 0.129626
O30   O     O_2   0.943972 0.375717 0.307090 -0.194454
O31   O     O_2   0.909982 0.293591 0.435186 -0.200412
O32   O     O_3   0.811976 0.305500 0.304291 -0.449329
H16   H     H_    0.788217 0.265862 0.344122 0.384875
S9    S     S_3+6 0.375702 0.881118 0.384588 0.099246
O33   O     O_2   0.327110 0.932301 0.444551 -0.219140
O34   O     O_2   0.414600 0.933218 0.317626 -0.228573
O35   O     O_3   0.319931 0.814354 0.330407 -0.471747
H17   H     H_    0.286512 0.846641 0.290950 0.410409
S10   S     S_3+6 0.408986 0.119287 0.649601 0.104544
O36   O     O_2   0.349056 0.066745 0.606921 -0.224515
O37   O     O_2   0.463200 0.068555 0.703171 -0.198159
O38   O     O_3   0.366609 0.186144 0.717685 -0.509973
H18   H     H_    0.341093 0.153722 0.763677 0.416081
S11   S     S_3+6 0.629739 0.880943 0.610632 0.094062
O39   O     O_2   0.674937 0.933093 0.549344 -0.223274
O40   O     O_2   0.593590 0.932095 0.681742 -0.204283
O41   O     O_3   0.688603 0.814122 0.658857 -0.513030
H19   H     H_    0.728860 0.846553 0.688776 0.413328
S12   S     S_3+6 0.595994 0.118816 0.351227 0.087298
O42   O     O_2   0.656751 0.068506 0.394845 -0.226893
O43   O     O_2   0.543709 0.065838 0.296860 -0.216838
O44   O     O_3   0.637447 0.185545 0.283772 -0.487163
H20   H     H_    0.666102 0.153026 0.239685 0.419357

loop_
_geom_bond_atom_site_label_1
_geom_bond_atom_site_label_2
_ccdc_geom_bond_type
C24   H6    S    
C38   C40   A    
O7    Zn1   S    
S12   O42   D    
C27   C29   S    
C41   C42   A    
C31   O5    A    
S9    O33   D    
S3    O15   D    
C39   C41   A    
C4    C46   A    
C40   C46   A    
S7    O27   D    
C35   C37   A    
C25   H7    S    
C11   C14   A    
S4    O19   D    
C22   S12   S    
C4    S4    S    
S8    O30   D    
S6    O26   S    
S10   O36   D    
C2    C13   S    
C9    C13   A    
S11   O41   S    
C22   C26   A    
N1    Zn1   S    
O2    Zn2   S    
C20   C24   A    
S6    O25   D    
C3    S3    S    
O11   H9    S    
C19   C27   A    
C39   C45   A    
C40   C42   A    
C21   C27   A    
O4    Zn2   S    
S7    O28   D    
C22   C28   A    
C41   C43   A    
C42   C44   A    
S2    O14   S    
C26   H8    S    
O29   H15   S    
S3    O16   D    
C7    C11   A    
C3    C44   A    
C5    C15   A    
O6    Zn2   S    
S1    O9    D    
C33   C43   A    
C32   C35   S    
C34   C44   A    
O17   H11   S    
S2    O13   D    
C10   C14   A    
C1    O4    A    
S5    O21   D    
C20   S10   S    
S4    O18   D    
C38   F2    S    
S12   O44   S    
C37   F1    S    
C3    C45   A    
C26   N2    A    
S1    O10   D    
O8    Zn2   S    
C19   C23   A    
O14   H10   S    
C45   F3    S    
C5    C9    A    
C29   C30   T    
C11   H3    S    
C1    O1    A    
S5    O22   D    
C23   H5    S    
O26   H14   S    
C8    C12   A    
S6    O24   D    
C17   C18   T    
S9    O34   D    
C23   N1    A    
S11   O39   D    
C5    S5    S    
C7    C16   A    
C9    H1    S    
C8    C15   A    
C6    S6    S    
C10   H2    S    
C24   N2    A    
C34   S2    S    
S3    O17   S    
C33   S1    S    
O44   H20   S    
C15   C17   S    
C21   C25   A    
S12   O43   D    
C2    O3    A    
C31   O8    A    
C25   N1    A    
C32   O7    A    
O1    Zn1   S    
S2    O12   D    
S4    O20   S    
C8    S8    S    
C6    C10   A    
C12   H4    S    
O38   H18   S    
C2    O2    A    
O35   H17   S    
C4    C43   A    
C19   S9    S    
S7    O29   S    
C20   C28   A    
S10   O38   S    
S1    O11   S    
C28   C30   S    
C32   O6    A    
C37   C39   A    
O32   H16   S    
O3    Zn1   S    
S5    O23   S    
C46   F4    S    
S8    O31   D    
N2    Zn2   S    
C36   C38   A    
C33   C35   A    
S10   O37   D    
S9    O35   S    
C34   C36   A    
C21   S11   S    
O23   H13   S    
S11   O40   D    
C6    C16   A    
O5    Zn1   S    
C12   C13   A    
C16   C18   S    
C7    S7    S    
C31   C36   S    
C1    C14   S    
O20   H12   S    
O41   H19   S    
S8    O32   S    
