data_mof_unit_58346.cif
_audit_creation_date              2013-03-05T16:31:28-0500
_audit_creation_method            fapswitch 2.2
_symmetry_space_group_name_H-M    P1
_symmetry_Int_Tables_number       1
_space_group_crystal_system       triclinic
_cell_length_a                    15.110478
_cell_length_b                    10.814684
_cell_length_c                    9.523444
_cell_angle_alpha                 89.90852
_cell_angle_beta                  89.793657
_cell_angle_gamma                 90.200062
_cell_volume                      1556.25243207

loop_
_atom_site_label
_atom_site_type_symbol
_atom_site_description
_atom_site_fract_x
_atom_site_fract_y
_atom_site_fract_z
_atom_type_partial_charge
O1    O     O_R   0.500000 0.319640 0.618810 -0.588215
O2    O     O_R   0.500010 0.319680 0.381230 -0.544188
C1    C     C_R   0.505253 0.262420 0.499850 0.840661
O3    O     O_R   0.370250 0.499950 0.618800 -0.534480
O4    O     O_R   0.370260 0.499990 0.381220 -0.600640
C2    C     C_R   0.328450 0.501865 0.500663 0.828089
Cu1   Cu    Cu3+1 0.500000 0.499980 0.640670 0.965623
Cu2   Cu    Cu3+1 0.500000 0.500020 0.359330 0.979697
O5    O     O_R   0.499990 0.680320 0.618770 -0.586111
O6    O     O_R   0.500000 0.680360 0.381190 -0.590201
O7    O     O_R   0.629740 0.500010 0.618780 -0.592333
O8    O     O_R   0.629750 0.500050 0.381200 -0.569082
C3    C     C_R   0.501690 0.737768 0.499964 0.813441
C4    C     C_R   0.671394 0.498993 0.499711 0.831434
C5    C     C_R   0.813845 0.503273 0.626988 -0.239104
C6    C     C_R   0.768133 0.497438 0.499410 -0.073430
C7    C     C_R   0.815151 0.490393 0.372298 -0.216464
C8    C     C_R   0.907484 0.491347 0.372199 0.104236
C9    C     C_R   0.953096 0.499713 0.500941 0.089317
C10   C     C_R   0.905837 0.505321 0.628659 0.117253
C11   C     C_R   0.954941 0.484527 0.245749 -0.202731
C12   C     C_R   0.047221 0.485929 0.246818 -0.183480
C13   C     C_R   0.093043 0.495020 0.374267 0.108103
C14   C     C_R   0.045956 0.502533 0.502042 -0.004790
C15   C     C_R   0.091372 0.512975 0.630883 0.009149
C16   C     C_R   0.043143 0.517181 0.757386 -0.181884
C17   C     C_R   0.951151 0.513272 0.756152 -0.223343
C18   C     C_R   0.185176 0.495395 0.375849 -0.319702
C19   C     C_R   0.231277 0.505625 0.502967 -0.179196
C20   C     C_R   0.184121 0.519228 0.630995 0.438827
H1    H     H_    0.778077 0.506802 0.725454 0.150809
H2    H     H_    0.780138 0.483981 0.273496 0.160522
H3    H     H_    0.920717 0.477930 0.146191 0.140676
H4    H     H_    0.082766 0.480085 0.147990 0.143050
H5    H     H_    0.221003 0.486919 0.277468 0.182382
H6    H     H_    0.076191 0.523400 0.857871 0.178488
H7    H     H_    0.915419 0.517138 0.854959 0.141195
C21   C     C_R   0.506787 0.063490 0.624873 0.110236
C22   C     C_R   0.519247 0.129508 0.500116 -0.228741
C23   C     C_R   0.544891 0.063388 0.377737 0.327815
C24   C     C_R   0.538820 0.933968 0.378519 -0.278644
H8    H     H_    0.553903 0.883383 0.283533 0.188481
C25   C     C_R   0.512249 0.870686 0.500492 -0.164673
C26   C     C_R   0.504019 0.936571 0.625242 0.132086
C27   C     C_3   0.433278 0.932343 0.735001 -0.456126
C28   C     C_3   0.436543 0.072730 0.735180 -0.438374
H9    H     H_    0.369793 0.894452 0.694799 0.179710
H10   H     H_    0.456981 0.890468 0.834670 0.209856
H11   H     H_    0.374819 0.116299 0.695856 0.187915
H12   H     H_    0.462519 0.111413 0.834992 0.226899
C29   C     C_R   0.532196 0.599468 0.073350 0.246931
N1    N     N_R   0.500570 0.500930 0.147930 -0.188926
C30   C     C_R   0.459137 0.408582 0.074884 -0.015568
H13   H     H_    0.427427 0.333454 0.130986 0.152470
C31   C     C_R   0.458978 0.408733 0.925858 -0.026218
H14   H     H_    0.426788 0.334150 0.870321 0.141545
N2    N     N_R   0.500570 0.500890 0.852020 -0.190814
C32   C     C_R   0.532021 0.599545 0.925877 0.243712
C33   C     C_3   0.623404 0.651310 0.918972 -0.486163
C34   C     C_3   0.623858 0.650664 0.078315 -0.484926
H15   H     H_    0.671607 0.585661 0.873116 0.210208
H16   H     H_    0.624768 0.745881 0.873051 0.205335
H17   H     H_    0.672219 0.584465 0.123008 0.213977
H18   H     H_    0.626158 0.744945 0.124102 0.201081
O9    O     O_3   0.228411 0.532861 0.757177 -0.573548
C35   C     C_3   0.240799 0.660330 0.782473 -0.305306
H19   H     H_    0.280127 0.671315 0.879855 0.186706
H20   H     H_    0.176461 0.708010 0.798659 0.152007
H21   H     H_    0.278373 0.705716 0.695725 0.151197
N3    N     N_R   0.576369 0.124656 0.253141 0.131880
O10   O     O_R   0.638947 0.207243 0.262163 -0.352984
O11   O     O_R   0.554490 0.082914 0.129898 -0.402615

loop_
_geom_bond_atom_site_label_1
_geom_bond_atom_site_label_2
_geom_bond_distance
_ccdc_geom_bond_type
C35   H20   1.112407 S    
C31   H14   1.080464 S    
C8    C11   1.401524 A    
C24   H8    1.081881 S    
C9    C10   1.409726 A    
Cu1   Cu2   2.679325 S    
C30   H13   1.081299 S    
N1    C30   1.369057 A    
Cu1   O7    1.970737 S    
C28   H11   1.112280 S    
C16   C17   1.390638 A    
C23   N3    1.436825 S    
C34   H17   1.110243 S    
C18   C19   1.403225 A    
O4    C2    1.299403 A    
O7    C4    1.295014 A    
C35   H21   1.113166 S    
C11   H3    1.083961 S    
C5    C6    1.401164 A    
C8    C9    1.411544 A    
O5    C3    1.290059 A    
C18   H5    1.084562 S    
C6    C7    1.403725 A    
C13   C14   1.409989 A    
N3    O10   1.301607 A    
Cu2   N1    2.013252 S    
C27   H9    1.111365 S    
C35   H19   1.109592 S    
C1    C22   1.453598 S    
C33   C34   1.517549 S    
C11   C12   1.394509 A    
C24   C25   1.403949 A    
O3    Cu1   1.972363 S    
C30   C31   1.419256 A    
C5    C10   1.390280 A    
C12   H4    1.084003 S    
C33   H15   1.107975 S    
C29   N1    1.363835 A    
C14   C15   1.412532 A    
O3    C2    1.292396 A    
C22   C23   1.421661 A    
C15   C16   1.406643 A    
C27   C28   1.518878 S    
O1    C1    1.294085 A    
C25   C26   1.391719 A    
C21   C26   1.373079 A    
C19   C20   1.418104 A    
Cu2   O8    1.972361 S    
C7    C8    1.395201 A    
C29   C32   1.404465 A    
C13   C18   1.392294 A    
C16   H6    1.083095 S    
C23   C24   1.402335 A    
O8    C4    1.294227 A    
C31   N2    1.368565 A    
C4    C6    1.461933 S    
C3    C25   1.445763 S    
C26   C27   1.492915 S    
C27   H10   1.111991 S    
C15   C20   1.402878 A    
Cu1   O5    1.961108 S    
C33   H16   1.111786 S    
O1    Cu1   1.961730 S    
O2    Cu2   1.961108 S    
O6    C3    1.291474 A    
O4    Cu2   1.970740 S    
C5    H1    1.081452 S    
C10   C17   1.398699 A    
C28   H12   1.111509 S    
C34   H18   1.110064 S    
C9    C14   1.403460 A    
C32   C33   1.489383 S    
N2    C32   1.363879 A    
C21   C22   1.396986 A    
C17   H7    1.084137 S    
O2    C1    1.290214 A    
C21   C28   1.494388 S    
C20   O9    1.385408 S    
C2    C19   1.469127 S    
Cu2   O6    1.961730 S    
O9    C35   1.411742 S    
C7    H2    1.083324 S    
C12   C13   1.402939 A    
N3    O11   1.301566 A    
C29   C34   1.490770 S    
Cu1   N2    2.012869 S    
