data_mof_unit_55195.cif
_audit_creation_date              2012-12-10T17:47:18-0500
_audit_creation_method            fapswitch 2.2
_symmetry_space_group_name_H-M    P1
_symmetry_Int_Tables_number       1
_space_group_crystal_system       triclinic
_cell_length_a                    11.715852
_cell_length_b                    14.712775
_cell_length_c                    14.755235
_cell_angle_alpha                 65.198549
_cell_angle_beta                  102.882712
_cell_angle_gamma                 102.973942
_cell_volume                      2225.90549522

loop_
_atom_site_label
_atom_site_type_symbol
_atom_type_description
_atom_site_fract_x
_atom_site_fract_y
_atom_site_fract_z
_atom_type_partial_charge
C1    C     C_R   0.480116 0.119741 0.312467 0.812311
C2    C     C_R   0.519408 0.880058 0.687525 0.812032
C3    C     C_R   0.436947 0.319148 0.000010 0.024657
C4    C     C_R   0.569222 0.676436 0.997015 0.021250
C5    C     C_R   0.534985 0.464328 0.047211 0.071529
C6    C     C_R   0.513666 0.531179 0.944906 0.065951
C7    C     C_R   0.466652 0.489395 0.871394 -0.271311
C8    C     C_R   0.593626 0.506417 0.118742 -0.270423
C9    C     C_R   0.432113 0.385533 0.896902 -0.026335
C10   C     C_R   0.610877 0.610465 0.095329 -0.039870
C11   C     C_R   0.698019 0.287753 0.664996 -0.364375
C12   C     C_R   0.304100 0.713722 0.332807 -0.355842
C13   C     C_R   0.667645 0.205293 0.636231 0.455242
C14   C     C_R   0.332344 0.794541 0.363755 0.451613
C15   C     C_R   0.515709 0.284835 0.510373 -0.057375
C16   C     C_R   0.484231 0.714993 0.489533 -0.043839
C17   C     C_R   0.542716 0.371007 0.536678 -0.028612
C18   C     C_R   0.454079 0.627386 0.465399 -0.054556
C19   C     C_R   0.633014 0.368948 0.619205 0.048022
C20   C     C_R   0.364563 0.630078 0.382341 0.096987
C21   C     C_R   0.481940 0.457254 0.485629 0.049267
C22   C     C_R   0.510748 0.538829 0.519311 0.021440
C23   C     C_R   0.284111 0.000176 0.500004 0.828715
C24   C     C_R   0.715895 0.999809 0.500009 0.824849
C25   C     C_R   0.593401 0.528822 0.607065 -0.255252
C26   C     C_R   0.393706 0.464650 0.401575 -0.315331
C27   C     C_R   0.655913 0.446248 0.656617 0.284452
C28   C     C_R   0.335433 0.548920 0.350503 0.271307
C29   C     C_1   0.162482 0.000403 0.500021 -0.198091
C30   C     C_1   0.837515 0.999556 0.499932 -0.193440
C31   C     C_1   0.059948 0.000158 0.499964 -0.013191
C32   C     C_1   0.940020 0.999734 0.499924 -0.008771
C33   C     C_R   0.466194 0.187099 0.205027 -0.108388
C34   C     C_R   0.532183 0.811131 0.794528 -0.104475
C35   C     C_R   0.381680 0.215814 0.030938 0.248998
C36   C     C_R   0.561757 0.779852 0.973018 0.254441
C37   C     C_R   0.401839 0.150798 0.132680 -0.217131
C38   C     C_R   0.543995 0.845991 0.871033 -0.224775
C39   C     C_R   0.510283 0.289702 0.176490 -0.252725
C40   C     C_R   0.527292 0.707987 0.819106 -0.253315
C41   C     C_R   0.496668 0.357960 0.074913 0.049848
C42   C     C_R   0.536635 0.637992 0.919571 0.050102
Cu1   Cu    Cu3+1 0.469550 0.918260 0.475690 0.956262
Cu2   Cu    Cu3+1 0.530450 0.081740 0.524310 0.946842
H1    H     H_    0.607584 0.583467 0.640320 0.140967
H2    H     H_    0.368755 0.406791 0.371407 0.136122
H3    H     H_    0.519607 0.684451 0.757948 0.153049
H4    H     H_    0.553349 0.314132 0.236393 0.158385
H5    H     H_    0.537198 0.924382 0.850228 0.166598
H6    H     H_    0.361515 0.072538 0.157135 0.162051
H7    H     H_    0.453785 0.535809 0.792048 0.143688
H8    H     H_    0.630502 0.460528 0.193668 0.145191
H9    H     H_    0.556646 0.722282 0.546594 0.135243
H10   H     H_    0.445246 0.277972 0.451937 0.141568
H11   H     H_    0.772359 0.287318 0.723654 0.170196
H12   H     H_    0.233104 0.716518 0.270921 0.183270
N1    N     N_R   0.576230 0.204580 0.560790 -0.197050
N2    N     N_R   0.423770 0.795420 0.439210 -0.186658
O1    O     O_R   0.459870 0.022090 0.338120 -0.566177
O2    O     O_R   0.540130 0.977910 0.661880 -0.552754
O3    O     O_R   0.511290 0.160150 0.379180 -0.594859
O4    O     O_R   0.488710 0.839850 0.620820 -0.597164
O5    O     O_R   0.311490 0.930960 0.479480 -0.544500
O6    O     O_R   0.688510 0.069040 0.520520 -0.567005
O7    O     O_R   0.362910 0.069020 0.520540 -0.589480
O8    O     O_R   0.637090 0.930980 0.479460 -0.581109
C43   C     C_R   0.395518 0.349360 0.812869 0.143988
C44   C     C_R   0.303293 0.387772 0.735238 -0.170801
C45   C     C_R   0.263516 0.348516 0.660398 -0.126152
C46   C     C_R   0.314580 0.270197 0.662874 -0.102128
C47   C     C_R   0.407858 0.232951 0.738513 -0.123704
C48   C     C_R   0.450055 0.273772 0.811954 -0.088093
H13   H     H_    0.260390 0.446337 0.734009 0.129272
H14   H     H_    0.192076 0.377970 0.601150 0.133548
H15   H     H_    0.282814 0.239153 0.605491 0.131824
H16   H     H_    0.448040 0.172866 0.739854 0.132497
H17   H     H_    0.522354 0.244081 0.870165 0.113784
C49   C     C_R   0.685262 0.648307 0.171904 0.128739
C50   C     C_R   0.660241 0.607579 0.271422 -0.171217
C51   C     C_R   0.728746 0.645691 0.341949 -0.116055
C52   C     C_R   0.821812 0.725158 0.313592 -0.115552
C53   C     C_R   0.848011 0.765365 0.215129 -0.142643
C54   C     C_R   0.781867 0.725847 0.145198 -0.075704
H18   H     H_    0.587166 0.547258 0.293858 0.140609
H19   H     H_    0.709486 0.614154 0.418450 0.143643
H20   H     H_    0.873654 0.755474 0.367918 0.130460
H21   H     H_    0.919079 0.827614 0.192420 0.122584
H22   H     H_    0.804059 0.757420 0.069418 0.120054
N3    N     N_2   0.294640 0.181946 0.962331 -0.421642
H23   H     H_    0.223315 0.221094 0.931638 0.255731
C55   C     C_3   0.268080 0.075476 0.979752 -0.715096
H24   H     H_    0.220624 0.066925 0.909085 0.238211
H25   H     H_    0.210180 0.034582 0.039315 0.214594
H26   H     H_    0.351034 0.042016 0.001560 0.228820
N4    N     N_2   0.562485 0.813034 0.051694 -0.420025
H27   H     H_    0.510451 0.765416 0.106061 0.254652
C56   C     C_3   0.573307 0.919519 0.031252 -0.717317
H28   H     H_    0.583542 0.929321 0.103418 0.236811
H29   H     H_    0.492614 0.950483 0.982695 0.214515
H30   H     H_    0.653202 0.961604 0.994996 0.234510
N5    N     N_2   0.737174 0.436324 0.747673 -0.435332
H31   H     H_    0.719952 0.369263 0.808226 0.245104
C57   C     C_3   0.782803 0.522961 0.774788 -0.701861
H32   H     H_    0.857792 0.504396 0.837305 0.231278
H33   H     H_    0.713036 0.541970 0.801211 0.226989
H34   H     H_    0.816192 0.588961 0.709612 0.233306
N6    N     N_2   0.246880 0.551073 0.266149 -0.438020
H35   H     H_    0.197811 0.481215 0.273975 0.252752
C58   C     C_3   0.290002 0.601887 0.169843 -0.714087
H36   H     H_    0.215743 0.601116 0.108340 0.232605
H37   H     H_    0.359370 0.562870 0.166992 0.232529
H38   H     H_    0.326730 0.681941 0.156988 0.229647
N7    N     N_2   0.266032 0.876232 0.315125 -0.376478
H39   H     H_    0.268198 0.909199 0.238471 0.213760
C59   C     C_3   0.145440 0.850399 0.336467 -0.701349
H40   H     H_    0.094559 0.794503 0.304719 0.201073
H41   H     H_    0.102290 0.919597 0.302079 0.222755
H42   H     H_    0.143475 0.817241 0.419103 0.250006
N8    N     N_2   0.733491 0.123001 0.684118 -0.369106
H43   H     H_    0.810965 0.136892 0.655254 0.244429
C60   C     C_3   0.750081 0.079554 0.793346 -0.743350
H44   H     H_    0.825791 0.124485 0.823800 0.209802
H45   H     H_    0.769543 0.001135 0.820840 0.241321
H46   H     H_    0.668901 0.077309 0.821754 0.221242

loop_
_geom_bond_atom_site_label_1
_geom_bond_atom_site_label_2
_ccdc_geom_bond_type
C40   H3    S    
C21   C26   A    
C4    C36   A    
N5    H31   S    
N6    C58   S    
N4    H27   S    
C52   C53   A    
C10   C49   S    
C1    C33   S    
C39   C41   A    
C38   H5    S    
Cu2   O6    S    
C11   C19   A    
C51   H19   S    
C34   C40   A    
C23   C29   S    
C35   C37   A    
C58   H37   S    
C5    C6    A    
C2    O2    A    
C23   O5    A    
C13   N1    A    
C28   N6    S    
C53   H21   S    
C15   C17   A    
C43   C48   A    
C16   H9    S    
C60   H46   S    
Cu1   N2    S    
C56   H29   S    
C49   C54   A    
C33   C39   A    
C44   C45   A    
C59   H41   S    
C22   C25   A    
N6    H35   S    
C46   C47   A    
N3    C55   S    
C19   C27   A    
C8    H8    S    
C52   H20   S    
Cu1   O1    S    
C2    C34   S    
C40   C42   A    
C54   H22   S    
C24   O6    A    
C34   C38   A    
C21   C22   A    
C15   N1    A    
Cu2   O7    S    
C13   N8    S    
C56   H28   S    
C24   C30   S    
N8    C60   S    
C14   N2    A    
Cu1   O5    S    
C43   C44   A    
C15   H10   S    
C58   H38   S    
C55   H24   S    
C49   C50   A    
C20   C28   A    
C44   H13   S    
C27   N5    S    
C17   C21   A    
Cu1   Cu2   S    
C9    C43   S    
C48   H17   S    
C3    C9    A    
C55   H25   S    
C31   C32   S    
C3    C35   A    
Cu2   N1    S    
C59   H42   S    
C12   C20   A    
C45   H14   S    
C57   H33   S    
C16   N2    A    
C60   H44   S    
C12   H12   S    
C35   N3    S    
C16   C18   A    
C12   C14   A    
C4    C10   A    
C25   H1    S    
C47   H16   S    
C46   H15   S    
C56   H30   S    
C11   H11   S    
N7    H39   S    
N5    C57   S    
C7    C9    A    
C5    C41   A    
C3    C41   A    
C18   C22   A    
C51   C52   A    
C1    O3    A    
C5    C8    A    
N8    H43   S    
N4    C56   S    
C6    C7    A    
C24   O8    A    
Cu2   O3    S    
C25   C27   A    
C14   N7    S    
C26   C28   A    
C23   O7    A    
C1    O1    A    
C7    H7    S    
C47   C48   A    
C29   C31   T    
C58   H36   S    
C55   H26   S    
C30   C32   T    
C37   H6    S    
C11   C13   A    
C36   N4    S    
C50   H18   S    
C4    C42   A    
Cu2   O2    S    
Cu1   O8    S    
C36   C38   A    
C17   C19   A    
C57   H34   S    
C18   C20   A    
C45   C46   A    
C33   C37   A    
C60   H45   S    
C26   H2    S    
C50   C51   A    
C2    O4    A    
C8    C10   A    
C53   C54   A    
C6    C42   A    
C57   H32   S    
N3    H23   S    
C59   H40   S    
Cu1   O4    S    
C39   H4    S    
N7    C59   S    
