data_mof_unit_26150.cif
_audit_creation_date              2012-10-26T21:06:33-0400
_audit_creation_method            fapswitch 2.2
_symmetry_space_group_name_H-M    P1
_symmetry_Int_Tables_number       1
_space_group_crystal_system       triclinic
_cell_length_a                    15.870267
_cell_length_b                    10.827314
_cell_length_c                    9.530301
_cell_angle_alpha                 90.043225
_cell_angle_beta                  91.272632
_cell_angle_gamma                 90.182136
_cell_volume                      1637.20137472

loop_
_atom_site_label
_atom_site_type_symbol
_atom_type_description
_atom_site_fract_x
_atom_site_fract_y
_atom_site_fract_z
_atom_type_partial_charge
C1    C     C_R   0.499902 0.262105 0.499930 0.548027
C2    C     C_R   0.554188 0.574054 0.076420 0.016624
C3    C     C_R   0.339826 0.500104 0.498369 0.547318
C4    C     C_R   0.660205 0.499976 0.501634 0.548920
C5    C     C_3   0.974485 0.388774 0.556749 -0.188005
C6    C     C_3   0.025150 0.610012 0.444226 -0.177806
C7    C     C_3   0.024050 0.406442 0.419616 0.247362
C8    C     C_3   0.976038 0.592090 0.581414 0.278481
C9    C     C_1   0.250201 0.500821 0.493872 -0.022324
C10   C     C_1   0.749895 0.499253 0.506152 -0.008792
C11   C     C_3   0.033878 0.485390 0.627966 0.251650
C12   C     C_R   0.500040 0.737896 0.500070 0.549466
C13   C     C_3   0.966414 0.512903 0.373072 0.257697
C14   C     C_3   0.083137 0.501610 0.491885 -0.007774
C15   C     C_3   0.917072 0.497429 0.509051 0.019747
C16   C     C_1   0.174711 0.501412 0.490599 -0.014620
C17   C     C_1   0.825424 0.498439 0.509621 0.014777
C18   C     C_R   0.500086 0.063768 0.372455 -0.139499
C19   C     C_R   0.499706 0.936236 0.627543 -0.139785
C20   C     C_3   0.990836 0.229643 0.295120 -0.001323
C21   C     C_3   0.020216 0.146097 0.177644 -0.381747
C22   C     C_3   0.008231 0.773199 0.698702 -0.008678
C23   C     C_R   0.500188 0.936026 0.372512 -0.139524
C24   C     C_3   0.975863 0.867597 0.802738 -0.384875
C25   C     C_3   0.977064 0.565743 0.140342 -0.017337
C26   C     C_3   0.934209 0.550394 0.997476 -0.340562
C27   C     C_3   0.102669 0.358344 0.787677 -0.016186
C28   C     C_3   0.165680 0.360621 0.910268 -0.374720
C29   C     C_R   0.499602 0.063978 0.627486 -0.140806
C30   C     C_R   0.499998 0.871760 0.500057 0.020874
C31   C     C_R   0.499839 0.128243 0.499942 0.020085
C32   C     C_R   0.445689 0.426058 0.072305 0.009527
C33   C     C_R   0.554241 0.574030 0.927686 0.012866
C34   C     C_R   0.445728 0.426051 0.923569 0.011236
Cu1   Cu    Cu3+1 0.500000 0.500020 0.640660 0.939885
Cu2   Cu    Cu3+1 0.500000 0.499980 0.359340 0.944384
H1    H     H_    0.952488 0.300380 0.602330 0.083856
H2    H     H_    0.597537 0.633605 0.134007 0.115229
H3    H     H_    0.932282 0.276885 0.257710 0.171252
H4    H     H_    0.976470 0.171254 0.387627 0.123286
H5    H     H_    0.078251 0.096249 0.211456 0.157337
H6    H     H_    0.970289 0.077484 0.150517 0.093537
H7    H     H_    0.033698 0.202003 0.083032 0.149248
H8    H     H_    0.025468 0.823496 0.601685 0.125150
H9    H     H_    0.065398 0.728761 0.745721 0.164333
H10   H     H_    0.958988 0.821568 0.902342 0.145609
H11   H     H_    0.025452 0.937843 0.825572 0.088234
H12   H     H_    0.046972 0.698115 0.397757 0.083517
H13   H     H_    0.919296 0.914667 0.758008 0.162253
H14   H     H_    0.037720 0.514349 0.140223 0.161343
H15   H     H_    0.989739 0.665754 0.157839 0.122307
H16   H     H_    0.872038 0.597234 0.995449 0.165414
H17   H     H_    0.974113 0.592754 0.917099 0.191389
H18   H     H_    0.925271 0.450822 0.973054 0.162797
H19   H     H_    0.135106 0.318790 0.695391 0.143440
H20   H     H_    0.049021 0.297420 0.815505 0.124333
H21   H     H_    0.135304 0.396214 0.005806 0.166334
H22   H     H_    0.188974 0.265728 0.931557 0.092973
H23   H     H_    0.500235 0.111728 0.272746 0.128623
H24   H     H_    0.220063 0.420813 0.884932 0.160043
H25   H     H_    0.499555 0.888275 0.727252 0.128315
H26   H     H_    0.500429 0.887901 0.272828 0.128059
H27   H     H_    0.499352 0.112104 0.727169 0.128075
H28   H     H_    0.402222 0.366703 0.126612 0.109098
H29   H     H_    0.597644 0.633466 0.873359 0.111891
H30   H     H_    0.402291 0.366615 0.865989 0.105821
N1    N     N_R   0.500020 0.500030 0.852070 -0.223969
N2    N     N_R   0.499980 0.499970 0.147930 -0.224817
O1    O     O_R   0.500000 0.319660 0.618740 -0.509146
O2    O     O_3   0.944396 0.685370 0.669196 -0.556975
O3    O     O_3   0.922782 0.520621 0.243070 -0.561131
O4    O     O_3   0.073236 0.479272 0.762069 -0.577909
O5    O     O_R   0.500000 0.680340 0.381260 -0.509528
O6    O     O_R   0.499990 0.319630 0.381170 -0.508000
O7    O     O_R   0.500010 0.680370 0.618830 -0.508204
O8    O     O_R   0.379080 0.500000 0.618760 -0.499312
O9    O     O_R   0.620920 0.500000 0.381240 -0.492257
O10   O     O_R   0.379080 0.499970 0.381190 -0.497024
O11   O     O_R   0.620920 0.500030 0.618810 -0.497540
O12   O     O_3   0.055502 0.314593 0.329920 -0.561838

loop_
_geom_bond_atom_site_label_1
_geom_bond_atom_site_label_2
_ccdc_geom_bond_type
C29   H27   S    
C5    H1    S    
Cu1   Cu2   S    
C34   H30   S    
C33   H29   S    
C28   H21   S    
Cu1   O7    S    
C6    H12   S    
C1    O6    A    
C9    C16   T    
C5    C11   S    
C2    N2    A    
Cu2   O9    S    
C20   H4    S    
C11   C14   S    
C27   H19   S    
C10   C17   T    
C1    C31   S    
C25   H14   S    
C21   H7    S    
C7    C14   S    
C22   H8    S    
C25   O3    S    
C32   N2    A    
C12   O5    A    
C26   H18   S    
C28   H24   S    
Cu1   O8    S    
C20   O12   S    
C18   C23   A    
C23   C30   A    
C32   H28   S    
C4    O11   A    
C5    C7    S    
C20   H3    S    
C27   H20   S    
C6    C8    S    
C13   O3    S    
C25   C26   S    
C1    O1    A    
C32   C34   A    
C25   H15   S    
C3    C9    S    
C26   H16   S    
C6    C14   S    
C2    H2    S    
Cu1   N1    S    
C3    O8    A    
Cu2   O6    S    
C21   H5    S    
C2    C33   A    
C8    C15   S    
C13   C15   S    
C14   C16   S    
C4    C10   S    
C19   C29   A    
C26   H17   S    
C33   N1    A    
C24   H13   S    
C15   C17   S    
C12   C30   S    
C11   O4    S    
C24   H11   S    
C34   N1    A    
Cu2   N2    S    
C28   H22   S    
C8    O2    S    
C24   H10   S    
C4    O9    A    
C29   C31   A    
Cu2   O10   S    
C6    C13   S    
C19   C30   A    
C19   H25   S    
C8    C11   S    
Cu1   O11   S    
C22   C24   S    
C5    C15   S    
Cu2   O5    S    
C21   H6    S    
C18   H23   S    
C7    C13   S    
C22   H9    S    
C20   C21   S    
Cu1   O1    S    
C12   O7    A    
C27   C28   S    
C18   C31   A    
C23   H26   S    
C3    O10   A    
C22   O2    S    
C27   O4    S    
C7    O12   S    
