data_mof_unit_45935.cif
_audit_creation_date              2012-12-10T18:54:26-0500
_audit_creation_method            fapswitch 2.2
_symmetry_space_group_name_H-M    P1
_symmetry_Int_Tables_number       1
_space_group_crystal_system       triclinic
_cell_length_a                    10.718975
_cell_length_b                    9.817654
_cell_length_c                    23.485953
_cell_angle_alpha                 89.99506
_cell_angle_beta                  90.026102
_cell_angle_gamma                 89.998174
_cell_volume                      2471.54840734

loop_
_atom_site_label
_atom_site_type_symbol
_atom_type_description
_atom_site_fract_x
_atom_site_fract_y
_atom_site_fract_z
_atom_type_partial_charge
C1    C     C_R   0.259792 0.500010 0.499960 0.860939
C2    C     C_R   0.540522 0.388028 0.704759 0.242577
C3    C     C_R   0.452045 0.396749 0.235415 0.412798
C4    C     C_R   0.547623 0.396469 0.764591 0.412885
C5    C     C_R   0.498834 0.512848 0.208002 0.121015
C6    C     C_R   0.500905 0.512563 0.792014 0.121691
C7    C     C_R   0.063851 0.375762 0.499689 -0.190312
C8    C     C_R   0.936166 0.624270 0.500450 -0.200431
C9    C     C_R   0.936156 0.375761 0.499713 -0.190361
C10   C     C_R   0.063827 0.624276 0.500064 -0.200245
C11   C     C_R   0.872618 0.500021 0.500086 -0.003196
C12   C     C_R   0.740208 0.500008 0.500031 0.860744
C13   C     C_R   0.127381 0.500026 0.499882 -0.003202
C14   C     C_R   0.603054 0.071978 0.482928 -0.104059
C15   C     C_R   0.396790 0.928082 0.516780 -0.064277
C16   C     C_R   0.396943 0.071974 0.517072 -0.104325
C17   C     C_R   0.603208 0.928091 0.483222 -0.064060
C18   C     C_R   0.501583 0.499905 0.389183 0.981664
C19   C     C_R   0.498422 0.499900 0.610820 0.981971
C20   C     C_R   0.611352 0.531569 0.880907 0.610834
C21   C     C_R   0.388401 0.531902 0.119104 0.611069
C22   C     C_R   0.388654 0.516717 0.880636 0.581904
C23   C     C_R   0.548808 0.620618 0.238983 -0.313372
C24   C     C_R   0.611095 0.516947 0.119381 0.581883
C25   C     C_R   0.385389 0.523466 0.940176 -0.160280
C26   C     C_R   0.614361 0.523574 0.059838 -0.160193
C27   C     C_R   0.499655 0.526718 0.970080 -0.087120
C28   C     C_R   0.500096 0.526798 0.029932 -0.087124
C29   C     C_R   0.613588 0.529870 0.940270 -0.105221
C30   C     C_R   0.386164 0.530075 0.059741 -0.105219
C31   C     C_R   0.272102 0.525875 0.970589 0.682163
C32   C     C_R   0.727649 0.525856 0.029424 0.682164
C33   C     C_R   0.273002 0.530835 0.029784 -0.237864
C34   C     C_R   0.451155 0.620488 0.761049 -0.314676
C35   C     C_R   0.726749 0.530662 0.970227 -0.237827
C36   C     C_3   0.738166 0.733390 0.312561 0.126932
C37   C     C_3   0.807938 0.809600 0.359020 -0.859588
C38   C     C_3   0.263205 0.736803 0.688109 0.125841
C39   C     C_3   0.192972 0.811723 0.641420 -0.859871
C40   C     C_3   0.504912 0.170360 0.321356 0.121798
C41   C     C_3   0.450330 0.041426 0.347149 -0.770422
C42   C     C_3   0.495143 0.170221 0.678555 0.121599
C43   C     C_3   0.549942 0.041433 0.652739 -0.770737
C44   C     C_3   0.283083 0.261253 0.212952 0.158154
C45   C     C_R   0.556713 0.613793 0.298117 0.399548
C46   C     C_3   0.225272 0.198926 0.159821 -0.748967
C47   C     C_3   0.716458 0.260782 0.787094 0.158262
C48   C     C_3   0.774143 0.198417 0.840251 -0.749196
C49   C     C_R   0.443321 0.613835 0.701894 0.400300
C50   C     C_R   0.505182 0.500567 0.326712 -0.309773
C51   C     C_R   0.494765 0.500543 0.673298 -0.308908
C52   C     C_R   0.459275 0.388165 0.295243 0.242747
F1    F     F_    0.160047 0.524587 0.943598 -0.602295
F2    F     F_    0.839704 0.524592 0.056416 -0.602306
H1    H     H_    0.184546 0.533007 0.052069 0.236125
H2    H     H_    0.314156 0.873814 0.529955 0.133920
H3    H     H_    0.314695 0.126264 0.530993 0.127275
H4    H     H_    0.685851 0.873844 0.470058 0.133698
H5    H     H_    0.745099 0.793644 0.272609 0.159615
H6    H     H_    0.785187 0.632930 0.306549 0.150536
H7    H     H_    0.805608 0.749635 0.399045 0.254927
H8    H     H_    0.906687 0.824564 0.346194 0.221403
H9    H     H_    0.764377 0.910750 0.366335 0.241381
H10   H     H_    0.258557 0.799372 0.727498 0.158769
H11   H     H_    0.214922 0.637562 0.695422 0.152255
H12   H     H_    0.815207 0.532743 0.947941 0.236144
H13   H     H_    0.193707 0.749988 0.601854 0.255222
H14   H     H_    0.094716 0.828446 0.654649 0.221429
H15   H     H_    0.237299 0.912016 0.633089 0.240792
H16   H     H_    0.588552 0.200309 0.346552 0.144380
H17   H     H_    0.534419 0.146532 0.276997 0.170016
H18   H     H_    0.374525 0.001578 0.319545 0.243599
H19   H     H_    0.524125 0.962913 0.351182 0.250924
H20   H     H_    0.411660 0.063277 0.389988 0.265265
H21   H     H_    0.411526 0.200125 0.653331 0.144569
H22   H     H_    0.465564 0.146245 0.722890 0.169866
H23   H     H_    0.583005 0.709512 0.216602 0.179110
H24   H     H_    0.625679 0.001566 0.680381 0.243565
H25   H     H_    0.476243 0.962863 0.648605 0.250948
H26   H     H_    0.588751 0.063465 0.609942 0.265384
H27   H     H_    0.228638 0.354343 0.224181 0.175400
H28   H     H_    0.273961 0.185881 0.247930 0.180773
H29   H     H_    0.274480 0.103039 0.148618 0.253333
H30   H     H_    0.125341 0.175786 0.167671 0.218205
H31   H     H_    0.232308 0.271039 0.123543 0.274990
H32   H     H_    0.770980 0.353822 0.775870 0.175556
H33   H     H_    0.725588 0.185392 0.752128 0.180746
H34   H     H_    0.417206 0.709410 0.783478 0.178407
H35   H     H_    0.724765 0.102652 0.851483 0.253374
H36   H     H_    0.874036 0.175049 0.832417 0.218202
H37   H     H_    0.767219 0.270601 0.876502 0.274965
H38   H     H_    0.112287 0.278891 0.499473 0.150918
H39   H     H_    0.887783 0.721150 0.500966 0.149011
H40   H     H_    0.887727 0.278891 0.499474 0.150665
H41   H     H_    0.112202 0.721163 0.499993 0.148860
H42   H     H_    0.685303 0.126269 0.469010 0.127159
N1    N     N_R   0.500482 0.520127 0.852630 -0.317386
N2    N     N_R   0.499267 0.520458 0.147387 -0.317396
N3    N     N_R   0.500000 0.857200 0.500000 -0.070778
N4    N     N_R   0.500000 0.142800 0.500000 -0.074519
O1    O     O_R   0.316770 0.614620 0.500000 -0.641180
O2    O     O_2   0.280993 0.545673 0.148487 -0.569396
O3    O     O_2   0.281597 0.505877 0.850706 -0.488985
O4    O     O_2   0.718149 0.506099 0.149312 -0.489174
O5    O     O_3   0.611723 0.718738 0.328693 -0.597607
O6    O     O_3   0.388863 0.719081 0.671244 -0.597483
O7    O     O_3   0.413741 0.274278 0.323000 -0.599015
O8    O     O_3   0.586206 0.274248 0.676985 -0.599002
O9    O     O_3   0.410621 0.288561 0.202368 -0.617693
O10   O     O_3   0.588916 0.288187 0.797629 -0.617838
O11   O     O_R   0.683230 0.385380 0.500000 -0.636356
O12   O     O_R   0.683230 0.614620 0.500000 -0.641451
O13   O     O_R   0.316770 0.385380 0.500000 -0.636435
O14   O     O_R   0.499970 0.614690 0.416160 -0.566462
O15   O     O_R   0.500030 0.385310 0.583840 -0.591065
O16   O     O_R   0.500030 0.614690 0.583840 -0.566241
O17   O     O_R   0.499970 0.385310 0.416160 -0.591062
O18   O     O_2   0.718764 0.545242 0.851519 -0.569381
Zn1   Zn    Zn3+2 0.500000 0.653120 0.500000 0.983931
Zn2   Zn    Zn3+2 0.500000 0.346880 0.500000 0.964238

loop_
_geom_bond_atom_site_label_1
_geom_bond_atom_site_label_2
_ccdc_geom_bond_type
C25   C31   A    
C26   C32   A    
C23   C45   A    
C40   H17   S    
C27   C29   A    
C39   H14   S    
C36   H5    S    
C42   H22   S    
C18   O14   A    
C20   O18   S    
C37   H8    S    
C43   H24   S    
C42   H21   S    
C40   H16   S    
C24   N2    A    
C10   H41   S    
C36   C37   S    
C24   C26   A    
C44   H28   S    
C38   C39   S    
C43   H25   S    
C15   C16   A    
C32   F2    S    
C41   H20   S    
C20   N1    A    
C52   O7    S    
C44   C46   S    
C49   C51   A    
C22   C25   A    
C50   C52   A    
C31   C33   A    
N4    Zn2   S    
O14   Zn1   S    
C17   H4    S    
C46   H31   S    
C44   O9    S    
C22   N1    A    
C48   H36   S    
C14   C17   A    
C1    O13   A    
C14   H42   S    
C37   H9    S    
C45   O5    S    
C38   H10   S    
C20   C29   A    
O1    Zn1   S    
C32   C35   A    
C4    C6    A    
C44   H27   S    
O17   Zn2   S    
C16   N4    A    
C35   H12   S    
C36   H6    S    
C43   H26   S    
C41   H19   S    
C48   H37   S    
C31   F1    S    
C22   O3    S    
C6    C34   A    
O11   Zn2   S    
C24   O4    S    
C47   H33   S    
C38   O6    S    
C2    C4    A    
C47   H32   S    
O13   Zn2   S    
C17   N3    A    
C47   C48   S    
C5    C23   A    
C38   H11   S    
C19   O15   A    
C3    C52   A    
C39   H15   S    
C33   H1    S    
C34   H34   S    
C23   H23   S    
C9    C11   A    
C18   O17   A    
C40   O7    S    
C46   H30   S    
C21   O2    S    
C40   C41   S    
C48   H35   S    
C41   H18   S    
C1    C13   S    
C42   C43   S    
C1    O1    A    
C12   O12   A    
C18   C50   S    
C6    N1    S    
C7    C9    A    
C4    O10   S    
C34   C49   A    
C30   C33   A    
C36   O5    S    
C39   H13   S    
C8    H39   S    
C15   N3    A    
C3    C5    A    
C10   C13   A    
O12   Zn1   S    
C37   H7    S    
C11   C12   S    
C14   N4    A    
C49   O6    S    
C25   C27   A    
C47   O10   S    
C21   C30   A    
C29   C35   A    
C26   C28   A    
O16   Zn1   S    
C15   H2    S    
C28   C30   A    
C45   C50   A    
C21   N2    A    
C19   O16   A    
C3    O9    S    
C8    C11   A    
C7    H38   S    
C2    O8    S    
C16   H3    S    
C2    C51   A    
N3    Zn1   S    
C46   H29   S    
C19   C51   S    
C7    C13   A    
C5    N2    S    
C8    C10   A    
O15   Zn2   S    
C27   C28   A    
C42   O8    S    
C9    H40   S    
C12   O11   A    
