data_mof_unit_50059.cif
_audit_creation_date              2012-12-10T18:33:29-0500
_audit_creation_method            fapswitch 2.2
_symmetry_space_group_name_H-M    P1
_symmetry_Int_Tables_number       1
_space_group_crystal_system       triclinic
_cell_length_a                    8.699497
_cell_length_b                    15.057093
_cell_length_c                    14.003499
_cell_angle_alpha                 88.155835
_cell_angle_beta                  96.50154
_cell_angle_gamma                 92.412773
_cell_volume                      1820.19925452

loop_
_atom_site_label
_atom_site_type_symbol
_atom_type_description
_atom_site_fract_x
_atom_site_fract_y
_atom_site_fract_z
_atom_type_partial_charge
C1    C     C_R   0.503752 0.330318 0.501463 0.787067
C2    C     C_R   0.496741 0.669527 0.498577 0.782930
C3    C     C_R   0.552395 0.574387 0.106460 0.288409
C4    C     C_R   0.381871 0.459234 0.888495 0.295260
C5    C     C_R   0.560011 0.572870 0.208687 0.247955
C6    C     C_R   0.384132 0.454614 0.787038 0.249266
C7    C     C_R   0.456311 0.424879 0.208806 0.028660
C8    C     C_R   0.622610 0.538067 0.797056 0.050363
C9    C     C_R   0.470540 0.420437 0.109658 -0.258330
C10   C     C_R   0.633262 0.532419 0.898452 -0.242566
C11   C     C_R   0.512946 0.496500 0.055439 0.073152
C12   C     C_R   0.510135 0.495375 0.946322 0.057436
C13   C     C_R   0.204343 0.500515 0.475752 0.879203
C14   C     C_R   0.795390 0.505511 0.523526 0.877806
C15   C     C_2   0.038806 0.498277 0.462068 -0.366200
C16   C     C_2   0.960295 0.517467 0.534035 -0.403643
C17   C     C_R   0.383130 0.092195 0.539294 -0.151746
C18   C     C_R   0.628963 0.905041 0.537225 -0.153346
C19   C     C_R   0.387887 0.184537 0.540872 -0.237841
C20   C     C_R   0.626624 0.812927 0.535549 -0.231969
C21   C     C_R   0.509216 0.233801 0.504189 -0.027723
C22   C     C_R   0.493731 0.765792 0.496228 -0.035424
C23   C     C_R   0.629912 0.190012 0.467326 0.155032
C24   C     C_R   0.360192 0.811145 0.458577 0.148185
C25   C     C_R   0.623855 0.097103 0.466873 -0.189950
C26   C     C_R   0.363517 0.904036 0.461953 -0.178021
C27   C     C_R   0.500984 0.048222 0.502193 0.075373
C28   C     C_R   0.497412 0.950963 0.500784 0.073085
Cu1   Cu    Cu3+1 0.500000 0.499990 0.596430 0.937554
Cu2   Cu    Cu3+1 0.500000 0.500010 0.403570 0.925992
H1    H     H_    0.981123 0.477622 0.392894 0.182888
H2    H     H_    0.017907 0.541958 0.601223 0.180545
H3    H     H_    0.288176 0.054997 0.567555 0.139948
H4    H     H_    0.732843 0.940521 0.568013 0.141048
H5    H     H_    0.295134 0.217776 0.568984 0.133717
H6    H     H_    0.728925 0.778169 0.564688 0.139985
H7    H     H_    0.715172 0.062475 0.438861 0.128299
H8    H     H_    0.262049 0.939946 0.433710 0.131860
H9    H     H_    0.415098 0.366144 0.245872 0.153448
H10   H     H_    0.716566 0.570487 0.763317 0.151575
H11   H     H_    0.444047 0.357578 0.074924 0.193461
H12   H     H_    0.737265 0.558777 0.939358 0.205810
N1    N     N_R   0.500000 0.500020 0.258690 -0.206264
N2    N     N_R   0.500000 0.499980 0.741310 -0.210701
O1    O     O_R   0.500010 0.371450 0.581430 -0.601282
O2    O     O_R   0.499990 0.628550 0.418570 -0.596723
O3    O     O_R   0.500010 0.371460 0.418560 -0.598170
O4    O     O_R   0.499990 0.628540 0.581440 -0.563983
O5    O     O_R   0.274840 0.499990 0.562640 -0.579059
O6    O     O_R   0.725160 0.500010 0.437360 -0.591607
O7    O     O_R   0.274840 0.500000 0.399770 -0.573864
O8    O     O_R   0.725160 0.500000 0.600230 -0.592086
C29   C     C_3   0.769464 0.239444 0.432744 -0.420399
C30   C     C_3   0.882902 0.269753 0.517589 -0.834237
H13   H     H_    0.826679 0.315083 0.562709 0.253211
H14   H     H_    0.924089 0.211411 0.562414 0.252625
H15   H     H_    0.984533 0.305373 0.490797 0.237141
H16   H     H_    0.831351 0.195772 0.388561 0.200708
H17   H     H_    0.734422 0.297243 0.385433 0.225753
C31   C     C_3   0.211952 0.762938 0.418249 -0.433321
C32   C     C_3   0.107133 0.741848 0.496921 -0.821916
H18   H     H_    0.998202 0.707880 0.465419 0.238095
H19   H     H_    0.165572 0.697482 0.553405 0.262204
H20   H     H_    0.077527 0.804056 0.530051 0.250650
H21   H     H_    0.148870 0.804789 0.361068 0.207823
H22   H     H_    0.236059 0.700485 0.383758 0.216910
Cl1   Cl    Cl    0.590390 0.675022 0.042347 -0.650107
Cl2   Cl    Cl    0.216201 0.421387 0.943626 -0.667359
C33   C     C_3   0.658833 0.646879 0.259108 -0.326974
C34   C     C_3   0.574840 0.734497 0.260558 -0.707038
H23   H     H_    0.585075 0.775377 0.194295 0.281016
H24   H     H_    0.449990 0.722362 0.268089 0.253587
H25   H     H_    0.629263 0.774615 0.321331 0.218089
H26   H     H_    0.707702 0.626091 0.331770 0.224356
H27   H     H_    0.764619 0.659922 0.222312 0.194754
C35   C     C_3   0.271794 0.386411 0.735921 -0.338115
C36   C     C_3   0.100454 0.407504 0.732154 -0.733405
H28   H     H_    0.085653 0.478612 0.746041 0.262962
H29   H     H_    0.039557 0.389921 0.661241 0.222251
H30   H     H_    0.042926 0.365733 0.785447 0.280378
H31   H     H_    0.295081 0.375006 0.662855 0.238565
H32   H     H_    0.289721 0.320756 0.773301 0.186981

loop_
_geom_bond_atom_site_label_1
_geom_bond_atom_site_label_2
_ccdc_geom_bond_type
Cu2   O7    S    
C1    C21   S    
C10   H12   S    
C29   H17   S    
Cu1   O5    S    
C36   H28   S    
C2    O2    A    
C19   C21   A    
C24   C26   A    
C15   C16   D    
C32   H19   S    
C5    C33   S    
C25   H7    S    
C13   O7    A    
C14   O8    A    
C2    C22   S    
C34   H23   S    
C7    N1    A    
C4    C12   A    
C18   C20   A    
C5    N1    A    
C31   H22   S    
C6    N2    A    
C33   C34   S    
C17   H3    S    
C23   C29   S    
C36   H29   S    
C30   H14   S    
Cu1   O4    S    
C17   C27   A    
Cu2   O3    S    
C18   C28   A    
C35   C36   S    
C4    C6    A    
C35   H32   S    
C4    Cl2   S    
C26   H8    S    
C2    O4    A    
C29   C30   S    
Cu1   O1    S    
C31   C32   S    
C32   H20   S    
Cu1   Cu2   S    
C9    C11   A    
C24   C31   S    
C34   H25   S    
C33   H26   S    
C6    C35   S    
C18   H4    S    
C10   C12   A    
C13   O5    A    
C20   C22   A    
C31   H21   S    
C13   C15   S    
Cu1   N2    S    
C14   C16   S    
Cu2   N1    S    
C25   C27   A    
C36   H30   S    
C7    C9    A    
C30   H13   S    
C9    H11   S    
Cu2   O2    S    
C1    O3    A    
C8    N2    A    
C3    C5    A    
C35   H31   S    
C29   H16   S    
C15   H1    S    
C16   H2    S    
C26   C28   A    
C21   C23   A    
C19   H5    S    
C1    O1    A    
C14   O6    A    
C3    Cl1   S    
C17   C19   A    
C33   H27   S    
C22   C24   A    
C23   C25   A    
Cu2   O6    S    
C32   H18   S    
C3    C11   A    
C20   H6    S    
C8    C10   A    
C27   C28   S    
C7    H9    S    
C34   H24   S    
C8    H10   S    
Cu1   O8    S    
C11   C12   S    
C30   H15   S    
