data_mof_unit_55438.cif
_audit_creation_date              2013-03-05T15:47:14-0500
_audit_creation_method            fapswitch 2.2
_symmetry_space_group_name_H-M    P1
_symmetry_Int_Tables_number       1
_space_group_crystal_system       triclinic
_cell_length_a                    27.788606
_cell_length_b                    11.028814
_cell_length_c                    9.810737
_cell_angle_alpha                 111.203038
_cell_angle_beta                  97.973754
_cell_angle_gamma                 90.959508
_cell_volume                      2768.80316907

loop_
_atom_site_label
_atom_site_type_symbol
_atom_site_description
_atom_site_fract_x
_atom_site_fract_y
_atom_site_fract_z
_atom_type_partial_charge
O1    O     O_R   0.504520 0.332330 0.577400 -0.596761
O2    O     O_R   0.495480 0.667670 0.422600 -0.595138
O3    O     O_R   0.490210 0.295500 0.332650 -0.546884
O4    O     O_R   0.509790 0.704500 0.667350 -0.547541
C1    C     C_R   0.496478 0.254027 0.440551 0.879083
C2    C     C_R   0.503534 0.745974 0.559450 0.880034
O5    O     O_R   0.437420 0.518430 0.622370 -0.523326
O6    O     O_R   0.562580 0.481570 0.377630 -0.522567
O7    O     O_R   0.423110 0.481600 0.377610 -0.584302
O8    O     O_R   0.576890 0.518400 0.622390 -0.585506
C3    C     C_R   0.407564 0.503053 0.502391 0.852588
C4    C     C_R   0.592437 0.496945 0.497603 0.854562
Cu1   Cu    Cu3+1 0.508480 0.521810 0.644910 1.024831
Cu2   Cu    Cu3+1 0.491520 0.478190 0.355090 1.027121
C5    C     C_R   0.174887 0.381503 0.465821 0.588860
C6    C     C_R   0.825149 0.617677 0.534528 0.590080
O9    O     O_2   0.198133 0.272299 0.452722 -0.512319
O10   O     O_2   0.801919 0.726914 0.547675 -0.511144
N1    N     N_R   0.200878 0.494759 0.485583 -0.458137
N2    N     N_R   0.799140 0.504420 0.514675 -0.458638
C7    C     C_R   0.178034 0.606077 0.495723 0.564835
C8    C     C_R   0.821969 0.393070 0.504478 0.568565
C9    C     C_R   0.283152 0.577227 0.621273 -0.179998
C10   C     C_R   0.716855 0.422227 0.378841 -0.147772
C11   C     C_R   0.333888 0.583865 0.628532 0.346516
C12   C     C_R   0.666107 0.416037 0.371374 0.400353
C13   C     C_R   0.323697 0.423278 0.376541 -0.250701
C14   C     C_R   0.676325 0.576279 0.623568 -0.257250
C15   C     C_R   0.273376 0.419860 0.370430 -0.072644
C16   C     C_R   0.726647 0.579430 0.629781 -0.072345
C17   C     C_R   0.252879 0.496441 0.492769 0.274330
C18   C     C_R   0.747138 0.502804 0.507454 0.252561
C19   C     C_R   0.100472 0.494063 0.480987 -0.050443
C20   C     C_R   0.899549 0.505059 0.519325 -0.050383
C21   C     C_R   0.124080 0.378579 0.459920 -0.097630
C22   C     C_R   0.875955 0.620573 0.540469 -0.097744
C23   C     C_R   0.096241 0.261357 0.422460 -0.148713
C24   C     C_R   0.903806 0.737791 0.578037 -0.148120
C25   C     C_R   0.127473 0.607772 0.493685 -0.021167
C26   C     C_R   0.872532 0.391345 0.506536 -0.023940
C27   C     C_R   0.354618 0.504086 0.504719 -0.153657
C28   C     C_R   0.645387 0.495776 0.495253 -0.172235
H1    H     H_    0.338545 0.361856 0.280397 0.184919
H2    H     H_    0.661489 0.637683 0.719747 0.185494
H3    H     H_    0.250218 0.357896 0.270117 0.170986
H4    H     H_    0.749812 0.641230 0.730168 0.173363
H5    H     H_    0.113630 0.170114 0.389954 0.228802
H6    H     H_    0.886429 0.829051 0.610621 0.228587
C29   C     C_R   0.973016 0.384543 0.486503 0.074458
C30   C     C_R   0.027002 0.614546 0.513803 0.074389
C31   C     C_R   0.977733 0.621532 0.538152 -0.081290
C32   C     C_R   0.022296 0.377567 0.462227 -0.081330
C33   C     C_R   0.950223 0.503598 0.513011 0.040219
C34   C     C_R   0.049800 0.495504 0.487323 0.039934
C35   C     C_R   0.946695 0.279558 0.498754 -0.083419
C36   C     C_R   0.053302 0.719516 0.501456 -0.083058
C37   C     C_R   0.896918 0.280705 0.502776 -0.111294
C38   C     C_R   0.103075 0.718381 0.497385 -0.112778
O11   O     O_2   0.795848 0.284605 0.493040 -0.501896
O12   O     O_2   0.204139 0.714545 0.507087 -0.515978
C39   C     C_R   0.045471 0.258036 0.408040 0.372053
C40   C     C_R   0.954574 0.741073 0.592426 0.372553
H7    H     H_    0.733329 0.363091 0.285239 0.205159
H8    H     H_    0.266675 0.636258 0.714921 0.191109
H9    H     H_    0.877794 0.195023 0.504580 0.205683
H10   H     H_    0.122188 0.804055 0.495522 0.205222
H11   H     H_    0.964352 0.196166 0.507896 0.219821
H12   H     H_    0.035632 0.802909 0.492341 0.220073
H13   H     H_    0.492678 0.864407 0.368200 0.191264
H14   H     H_    0.507396 0.135600 0.631807 0.187210
C41   C     C_2   0.494628 0.114608 0.406944 -0.283027
C42   C     C_2   0.505408 0.885395 0.593062 -0.295654
C43   C     C_2   0.500910 0.069590 0.516582 -0.145340
C44   C     C_2   0.499155 0.930416 0.483426 -0.137043
H15   H     H_    0.511895 0.951664 0.708101 0.169525
H16   H     H_    0.488134 0.048337 0.291907 0.175405
H17   H     H_    0.467984 0.415846 0.845409 0.155688
H18   H     H_    0.531972 0.584270 0.154615 0.156878
N3    N     N_2   0.478780 0.445430 0.137360 -0.271559
N4    N     N_2   0.521220 0.554570 0.862640 -0.271463
C45   C     C_2   0.503986 0.511044 0.081412 0.024041
C46   C     C_2   0.495987 0.489025 0.918602 0.019568
H19   H     H_    0.547500 0.623650 0.934717 0.202302
H20   H     H_    0.452518 0.376298 0.065271 0.201890
S1    S     S_3+6 0.630986 0.302132 0.209341 0.016967
O13   O     O_2   0.593790 0.226663 0.250810 -0.293122
O14   O     O_2   0.605573 0.373940 0.119282 -0.297695
O15   O     O_3   0.667070 0.197268 0.106939 -0.517090
H21   H     H_    0.644823 0.139124 0.018524 0.379924
S2    S     S_3+6 0.368981 0.698387 0.790244 0.030473
O16   O     O_2   0.394142 0.627256 0.881426 -0.254015
O17   O     O_2   0.406656 0.773035 0.749441 -0.297676
O18   O     O_3   0.333204 0.804223 0.892806 -0.495213
H22   H     H_    0.322069 0.858163 0.834403 0.358027
S3    S     S_3+6 0.014935 0.107462 0.283280 0.008655
O19   O     O_2   0.009427 0.016667 0.364136 -0.285011
O20   O     O_2   0.965807 0.127476 0.211891 -0.267297
O21   O     O_3   0.048844 0.038494 0.149672 -0.490006
H23   H     H_    0.033296 0.949322 0.095153 0.411907
S4    S     S_3+6 0.985126 0.891626 0.717175 0.007400
O22   O     O_2   0.034335 0.871749 0.788185 -0.267719
O23   O     O_2   0.990468 0.982499 0.636306 -0.286879
O24   O     O_3   0.951314 0.960323 0.851151 -0.490023
H24   H     H_    0.965568 0.051358 0.901797 0.409612

loop_
_geom_bond_atom_site_label_1
_geom_bond_atom_site_label_2
_geom_bond_distance
_ccdc_geom_bond_type
O18   H22   0.990710 S    
C13   C15   1.390598 A    
C42   C44   1.330804 D    
C43   C44   1.447796 S    
S3    O19   1.502852 D    
N1    C17   1.436445 S    
C45   C46   1.509575 S    
S3    O21   1.682291 S    
S1    O13   1.503153 D    
O5    C3    1.297131 A    
C11   S2    1.772947 S    
C19   C25   1.407389 A    
O1    C1    1.292244 A    
N1    C7    1.369453 A    
C10   C12   1.401157 A    
C32   C39   1.432380 A    
C42   H15   1.087620 S    
N3    H20   1.030633 S    
C35   H11   1.075747 S    
C14   C28   1.406356 A    
O4    Cu1   1.945222 S    
C4    C28   1.474964 S    
C38   H10   1.083329 S    
C23   H5    1.083858 S    
C24   H6    1.083866 S    
O6    C4    1.297117 A    
Cu1   N4    2.011569 S    
Cu1   Cu2   2.677566 S    
O2    C2    1.292255 A    
C31   C40   1.432325 A    
N4    H19   1.030633 S    
C5    C21   1.404339 A    
C32   C34   1.421057 A    
S1    O14   1.502777 D    
C7    O12   1.349725 S    
N4    C46   1.300992 D    
C11   C27   1.421090 A    
C8    O11   1.349707 S    
C41   C43   1.330813 D    
C36   H12   1.075835 S    
C25   C38   1.396996 A    
C14   H2    1.083500 S    
S4    O24   1.682454 S    
C30   C36   1.409508 A    
C15   H3    1.082927 S    
C31   C33   1.421019 A    
C9    C17   1.399671 A    
C5    N1    1.369388 A    
O7    Cu2   1.943450 S    
C10   C18   1.399734 A    
C39   S3    1.780541 S    
C13   C27   1.406356 A    
S2    O17   1.503285 D    
C7    C25   1.402931 A    
C6    N2    1.369396 A    
C29   C32   1.420833 A    
C8    C26   1.402984 A    
H14   C43   1.088197 S    
S4    O23   1.502929 D    
C30   C31   1.420719 A    
H13   C44   1.088195 S    
C2    C42   1.449685 S    
C6    O10   1.349634 S    
C30   C34   1.421041 A    
Cu2   N3    2.011567 S    
O7    C3    1.296872 A    
O3    Cu2   1.945221 S    
O8    C4    1.296942 A    
C40   S4    1.780520 S    
O4    C2    1.289145 A    
C9    H8    1.082423 S    
N2    C8    1.369444 A    
C10   H7    1.082426 S    
C35   C37   1.389406 A    
C20   C26   1.407379 A    
O1    Cu1   1.946458 S    
C12   C28   1.421257 A    
S2    O18   1.682326 S    
N3    C45   1.300988 D    
N2    C18   1.436461 S    
S1    O15   1.682321 S    
C19   C34   1.418170 A    
C5    O9    1.349627 S    
O6    Cu2   1.954479 S    
C26   C37   1.396990 A    
C21   C23   1.396007 A    
C16   H4    1.082929 S    
C37   H9    1.083329 S    
O3    C1    1.289154 A    
O8    Cu1   1.943456 S    
C23   C39   1.396757 A    
S3    O20   1.503229 D    
C22   C24   1.395992 A    
C15   C17   1.396714 A    
C29   C35   1.409515 A    
C6    C22   1.404292 A    
C16   C18   1.396701 A    
H18   C45   1.085016 S    
S2    O16   1.502331 D    
C41   H16   1.087614 S    
H17   C46   1.085014 S    
C12   S1    1.772464 S    
C29   C33   1.421063 A    
C14   C16   1.390545 A    
S4    O22   1.503173 D    
C19   C21   1.403736 A    
C36   C38   1.389372 A    
C3    C27   1.474819 S    
C20   C22   1.403729 A    
C9    C11   1.401108 A    
O2    Cu2   1.946459 S    
C13   H1    1.083500 S    
O5    Cu1   1.954479 S    
O15   H21   0.990654 S    
C20   C33   1.418184 A    
C1    C41   1.449678 S    
O21   H23   0.990515 S    
O24   H24   0.991477 S    
C24   C40   1.396714 A    
