data_mof_unit_60883.cif
_audit_creation_date              2012-12-10T21:21:43-0500
_audit_creation_method            fapswitch 2.2
_symmetry_space_group_name_H-M    P1
_symmetry_Int_Tables_number       1
_space_group_crystal_system       triclinic
_cell_length_a                    17.539215
_cell_length_b                    16.711262
_cell_length_c                    23.456455
_cell_angle_alpha                 89.98879
_cell_angle_beta                  90.19097
_cell_angle_gamma                 89.936557
_cell_volume                      6875.10111784

loop_
_atom_site_label
_atom_site_type_symbol
_atom_type_description
_atom_site_fract_x
_atom_site_fract_y
_atom_site_fract_z
_atom_type_partial_charge
Br1   Br    Br    0.571612 0.659636 0.326287 -0.456123
Br2   Br    Br    0.421705 0.656240 0.673039 -0.451238
Br3   Br    Br    0.902300 0.670106 0.494107 -0.386539
Br4   Br    Br    0.097453 0.330443 0.492181 -0.395819
Br5   Br    Br    0.106769 0.666747 0.557102 -0.374331
Br6   Br    Br    0.893973 0.332407 0.555350 -0.395937
C1    C     C_R   0.353102 0.500054 0.500711 0.922920
C2    C     C_R   0.528870 0.431302 0.700795 -0.246632
C3    C     C_R   0.473033 0.425623 0.240200 -0.081871
C4    C     C_R   0.529418 0.426884 0.759769 -0.079928
C5    C     C_R   0.499509 0.490010 0.208093 0.250105
C6    C     C_R   0.500430 0.490235 0.791775 0.248548
C7    C     C_R   0.848567 0.571775 0.507114 0.276793
C8    C     C_R   0.151429 0.428399 0.506274 0.282004
C9    C     C_R   0.155231 0.569485 0.532929 0.280974
C10   C     C_R   0.845177 0.430122 0.532239 0.283715
C11   C     C_R   0.770223 0.570870 0.498909 -0.205844
C12   C     C_R   0.646910 0.499950 0.500753 0.925993
C13   C     C_R   0.229700 0.429368 0.498085 -0.218508
C14   C     C_R   0.233377 0.570041 0.524133 -0.199438
C15   C     C_R   0.766954 0.429645 0.523443 -0.221104
C16   C     C_R   0.729289 0.499864 0.506757 -0.145386
C17   C     C_R   0.270790 0.500133 0.506702 -0.147720
C18   C     C_R   0.885882 0.501249 0.523810 -0.041862
C19   C     C_R   0.114357 0.498605 0.523738 -0.043381
C20   C     C_R   0.500939 0.500066 0.389019 0.922147
C21   C     C_R   0.498978 0.500043 0.610946 0.920533
C22   C     C_1   0.966273 0.500381 0.527648 0.138611
C23   C     C_R   0.526571 0.559069 0.234893 -0.116686
C24   C     C_1   0.034005 0.499474 0.527625 0.138330
C25   C     C_R   0.453125 0.832413 0.462410 -0.225573
C26   C     C_R   0.549032 0.167610 0.536081 -0.236288
C27   C     C_R   0.546909 0.832254 0.537620 -0.225197
C28   C     C_R   0.451011 0.167710 0.463950 -0.237742
C29   C     C_R   0.453940 0.748111 0.463092 0.073739
C30   C     C_R   0.548135 0.251919 0.535424 0.031478
C31   C     C_R   0.546069 0.747953 0.536920 0.072205
C32   C     C_R   0.451883 0.252015 0.464585 0.030353
C33   C     C_R   0.500023 0.875559 0.500020 0.137539
C34   C     C_R   0.470731 0.558107 0.764856 -0.115321
C35   C     C_R   0.500027 0.124432 0.500022 0.144709
C36   C     C_1   0.500034 0.963402 0.500027 -0.002787
C37   C     C_1   0.500035 0.036589 0.500029 -0.010518
C38   C     C_R   0.568588 0.485801 0.880897 0.519937
C39   C     C_R   0.431529 0.482983 0.118986 0.519448
C40   C     C_R   0.432213 0.481813 0.880349 0.520396
C41   C     C_R   0.567956 0.484036 0.119526 0.519894
C42   C     C_R   0.430619 0.480198 0.939845 -0.023177
C43   C     C_R   0.569602 0.482595 0.060031 -0.023022
C44   C     C_R   0.500197 0.481272 0.969992 -0.018013
C45   C     C_R   0.527950 0.564229 0.294068 0.245592
C46   C     C_R   0.500028 0.481186 0.029885 -0.017980
C47   C     C_R   0.569929 0.483283 0.940398 -0.022055
C48   C     C_R   0.430272 0.480547 0.059482 -0.021814
C49   C     C_R   0.361433 0.478272 0.969715 -0.139515
C50   C     C_R   0.638810 0.483294 0.030162 -0.140211
C51   C     C_R   0.361257 0.478623 0.029054 -0.142239
C52   C     C_R   0.638970 0.483815 0.970825 -0.141497
C53   C     C_R   0.469274 0.563069 0.705673 0.244967
C54   C     C_R   0.500805 0.499130 0.326755 -0.121029
C55   C     C_R   0.499044 0.499099 0.673147 -0.119769
C56   C     C_R   0.473527 0.430160 0.299168 -0.248356
H1    H     H_    0.307283 0.477243 0.947394 0.201154
H2    H     H_    0.447989 0.606693 0.790222 0.178671
H3    H     H_    0.452278 0.379569 0.323225 0.174441
H4    H     H_    0.552095 0.381612 0.676764 0.174170
H5    H     H_    0.452320 0.372029 0.219355 0.159404
H6    H     H_    0.552145 0.374195 0.780698 0.160296
H7    H     H_    0.741544 0.625509 0.486173 0.200783
H8    H     H_    0.258205 0.374986 0.484742 0.188720
H9    H     H_    0.264820 0.624812 0.531688 0.204158
H10   H     H_    0.735663 0.374659 0.530397 0.187860
H11   H     H_    0.416134 0.863592 0.432735 0.157731
H12   H     H_    0.692962 0.484199 0.052482 0.200802
H13   H     H_    0.587711 0.136453 0.564542 0.157186
H14   H     H_    0.583913 0.863306 0.567299 0.158799
H15   H     H_    0.412344 0.136631 0.435496 0.155834
H16   H     H_    0.417632 0.715300 0.433988 0.141724
H17   H     H_    0.586066 0.284757 0.563338 0.126957
H18   H     H_    0.582377 0.715018 0.566012 0.141263
H19   H     H_    0.413948 0.284927 0.436658 0.127301
H20   H     H_    0.306979 0.477852 0.050935 0.199949
H21   H     H_    0.693238 0.485093 0.948944 0.200365
H22   H     H_    0.547318 0.608493 0.209424 0.177998
N1    N     N_R   0.500438 0.485438 0.852394 -0.353194
N2    N     N_R   0.499650 0.485108 0.147483 -0.353040
N3    N     N_R   0.500000 0.707230 0.500000 -0.096072
N4    N     N_R   0.500000 0.292770 0.500000 -0.095320
O1    O     O_R   0.389110 0.566570 0.500000 -0.619498
O2    O     O_2   0.365393 0.484355 0.148240 -0.541146
O3    O     O_2   0.366297 0.479708 0.850512 -0.530581
O4    O     O_2   0.633905 0.484323 0.149362 -0.532121
O5    O     O_R   0.610890 0.433430 0.500000 -0.626082
O6    O     O_R   0.610890 0.566570 0.500000 -0.618308
O7    O     O_R   0.389110 0.433430 0.500000 -0.625138
O8    O     O_R   0.499970 0.566560 0.416150 -0.584291
O9    O     O_R   0.500030 0.433440 0.583850 -0.630249
O10   O     O_R   0.500030 0.566560 0.583850 -0.586619
O11   O     O_R   0.499970 0.433440 0.416150 -0.630123
O12   O     O_2   0.634636 0.489686 0.851652 -0.539224
Zn1   Zn    Zn3+2 0.500000 0.588860 0.500000 1.009940
Zn2   Zn    Zn3+2 0.500000 0.411140 0.500000 0.965014

loop_
_geom_bond_atom_site_label_1
_geom_bond_atom_site_label_2
_ccdc_geom_bond_type
C42   C49   A    
C21   O10   A    
C11   H7    S    
C10   C15   A    
C41   O4    S    
C26   H13   S    
C41   C43   A    
C30   N4    A    
C2    H4    S    
C27   C33   A    
C6    N1    S    
C26   C30   A    
C28   H15   S    
C9    C19   A    
C5    N2    S    
C1    O1    A    
C54   C56   A    
C21   C55   S    
N3    Zn1   S    
C29   N3    A    
C38   C47   A    
O6    Zn1   S    
C50   C52   A    
C49   H1    S    
C44   C46   A    
C26   C35   A    
C14   H9    S    
O9    Zn2   S    
Br3   C7    S    
O7    Zn2   S    
C2    C55   A    
C40   N1    A    
C42   C44   A    
C10   C18   A    
C34   C53   A    
C28   C32   A    
C15   C16   A    
C35   C37   S    
C28   C35   A    
C46   C48   A    
C33   C36   S    
C20   O8    A    
C9    C14   A    
C31   H18   S    
C40   C42   A    
C53   C55   A    
C44   C47   A    
C50   H12   S    
C15   H10   S    
C3    C56   A    
C41   N2    A    
C23   H22   S    
Br2   C53   S    
C40   O3    S    
C27   C31   A    
C7    C18   A    
C32   N4    A    
C6    C34   A    
C13   C17   A    
C3    H5    S    
Br1   C45   S    
C27   H14   S    
C14   C17   A    
C43   C46   A    
C39   O2    S    
C3    C5    A    
C4    C6    A    
C39   C48   A    
C49   C51   A    
C32   H19   S    
C12   O6    A    
C25   C29   A    
C36   C37   T    
C38   N1    A    
O10   Zn1   S    
C23   C45   A    
C19   C24   S    
C21   O9    A    
C56   H3    S    
O1    Zn1   S    
C12   C16   S    
C8    C13   A    
C31   N3    A    
C18   C22   S    
C30   H17   S    
O5    Zn2   S    
N4    Zn2   S    
C47   C52   A    
C4    H6    S    
C43   C50   A    
C1    O7    A    
C20   O11   A    
C29   H16   S    
C11   C16   A    
C34   H2    S    
C7    C11   A    
C22   C24   T    
C39   N2    A    
C52   H21   S    
C38   O12   S    
C1    C17   S    
C25   C33   A    
C8    C19   A    
Br4   C8    S    
Br5   C9    S    
C25   H11   S    
Br6   C10   S    
O11   Zn2   S    
C5    C23   A    
C2    C4    A    
C12   O5    A    
C51   H20   S    
C13   H8    S    
C45   C54   A    
O8    Zn1   S    
C20   C54   S    
C48   C51   A    
