data_mof_unit_31731.cif
_audit_creation_date              2012-12-10T18:09:52-0500
_audit_creation_method            fapswitch 2.2
_symmetry_space_group_name_H-M    P1
_symmetry_Int_Tables_number       1
_space_group_crystal_system       triclinic
_cell_length_a                    10.76711
_cell_length_b                    12.677406
_cell_length_c                    13.262402
_cell_angle_alpha                 82.214386
_cell_angle_beta                  92.79429
_cell_angle_gamma                 101.740286
_cell_volume                      1755.67597196

loop_
_atom_site_label
_atom_site_type_symbol
_atom_type_description
_atom_site_fract_x
_atom_site_fract_y
_atom_site_fract_z
_atom_type_partial_charge
C1    C     C_R   0.475009 0.440030 0.690273 0.888131
C2    C     C_R   0.460611 0.453748 0.971197 0.105200
C3    C     C_R   0.445464 0.483728 0.865814 0.044413
C4    C     C_R   0.741549 0.501855 0.495491 0.947985
C5    C     C_R   0.493746 0.537396 0.034483 0.100697
C6    C     C_R   0.504574 0.647803 0.992931 0.139166
C7    C     C_R   0.467574 0.673606 0.892717 -0.198942
C8    C     C_R   0.432303 0.592043 0.831565 -0.099293
C9    C     C_R   0.516856 0.514519 0.138042 -0.232236
C10   C     C_R   0.573728 0.705834 0.156573 0.173496
C11   C     C_R   0.444433 0.404837 0.798549 -0.199538
C12   C     C_3   0.121199 0.498136 0.499173 -0.156910
C13   C     C_R   0.278792 0.081870 0.385690 -0.358799
C14   C     C_R   0.658047 0.802640 0.628939 0.283177
C15   C     C_R   0.687065 0.907420 0.657416 0.112897
C16   C     C_R   0.523457 0.560617 0.309793 0.928470
C17   C     C_R   0.620822 0.984445 0.613279 -0.300815
C18   C     C_R   0.523159 0.959658 0.541761 -0.051745
C19   C     C_R   0.494881 0.852799 0.512603 0.092626
C20   C     C_R   0.454591 0.039020 0.496007 0.013939
C21   C     C_R   0.343617 0.006244 0.438599 0.061769
C22   C     C_R   0.304118 0.898924 0.425842 -0.340662
C23   C     C_3   0.057530 0.454256 0.399768 -0.137441
C24   C     C_R   0.390896 0.829452 0.442083 0.533910
C25   C     C_R   0.491695 0.150405 0.503295 -0.117939
C26   C     C_R   0.331310 0.192434 0.383010 0.687469
C27   C     C_R   0.258285 0.499202 0.500979 0.996060
C28   C     C_3   0.910823 0.419423 0.586328 0.277107
C29   C     C_3   0.057750 0.425871 0.597823 0.106612
C30   C     C_3   0.914871 0.468833 0.386978 0.576534
C31   C     C_3   0.961134 0.616240 0.510901 -0.066508
C32   C     C_3   0.877978 0.501505 0.491967 -0.204158
C33   C     C_3   0.842386 0.235615 0.543935 -0.078562
C34   C     C_3   0.099584 0.616589 0.494416 -0.444252
C35   C     C_3   0.500022 0.155291 0.782882 -0.256480
C36   C     C_3   0.226484 0.243224 0.232259 -0.334573
C37   C     C_3   0.337064 0.772765 0.282724 -0.252696
C38   C     C_3   0.862263 0.326288 0.281498 -0.289458
C39   C     C_R   0.550502 0.730877 0.052758 -0.213302
C40   C     C_R   0.541609 0.596322 0.200842 -0.111351
C41   C     C_R   0.425786 0.293455 0.838051 0.561310
C42   C     C_R   0.417568 0.263497 0.943017 -0.220801
C43   C     C_R   0.441298 0.341769 0.008673 -0.282347
H1    H     H_    0.127325 0.661736 0.418790 0.250603
H2    H     H_    0.192587 0.054672 0.342896 0.168992
H3    H     H_    0.565142 0.183098 0.554570 0.157247
H4    H     H_    0.644564 0.062410 0.640158 0.159175
H5    H     H_    0.062038 0.367345 0.408005 0.184750
H6    H     H_    0.952904 0.625841 0.592073 0.195968
H7    H     H_    0.157830 0.662762 0.551664 0.226401
H8    H     H_    0.926636 0.255723 0.496926 0.160272
H9    H     H_    0.757999 0.217358 0.493856 0.190248
H10   H     H_    0.848610 0.159680 0.594239 0.182164
H11   H     H_    0.510859 0.114181 0.861381 0.151432
H12   H     H_    0.465321 0.756825 0.861515 0.154091
H13   H     H_    0.591254 0.208811 0.757344 0.182024
H14   H     H_    0.475708 0.090412 0.733001 0.197177
H15   H     H_    0.226808 0.317657 0.177757 0.230513
H16   H     H_    0.126411 0.199510 0.241045 0.179695
H17   H     H_    0.283150 0.193692 0.197455 0.139049
H18   H     H_    0.383988 0.856065 0.249862 0.164214
H19   H     H_    0.232437 0.763637 0.276812 0.178242
H20   H     H_    0.360611 0.715814 0.234498 0.206028
H21   H     H_    0.923622 0.266451 0.305363 0.165338
H22   H     H_    0.907920 0.387062 0.219462 0.214536
H23   H     H_    0.567396 0.815167 0.018951 0.168004
H24   H     H_    0.773205 0.281447 0.249205 0.197890
H25   H     H_    0.512755 0.432343 0.172358 0.182669
H26   H     H_    0.439990 0.310851 0.088202 0.154707
H27   H     H_    0.396265 0.178567 0.974417 0.161171
H28   H     H_    0.886302 0.455960 0.652295 0.144791
H29   H     H_    0.394098 0.616419 0.757412 0.192061
H30   H     H_    0.215413 0.874945 0.385244 0.184710
I1    I     I_    0.877284 0.591607 0.261603 -0.289014
I2    I     I_    0.169367 0.510874 0.263504 -0.372440
I3    I     I_    0.662357 0.837522 0.235619 -0.298364
I4    I     I_    0.755072 0.687059 0.713895 -0.258634
I5    I     I_    0.826190 0.958059 0.770374 -0.283482
I6    I     I_    0.123440 0.501641 0.733663 -0.375381
I7    I     I_    0.119964 0.272327 0.644303 -0.217277
I8    I     I_    0.921750 0.773078 0.444555 -0.282975
N1    N     N_R   0.433240 0.222190 0.444680 -0.142416
N2    N     N_R   0.566070 0.776970 0.554790 -0.144723
O1    O     O_R   0.468120 0.366740 0.627160 -0.562497
O2    O     O_3   0.401015 0.213873 0.773801 -0.565691
O3    O     O_3   0.277704 0.273374 0.326900 -0.572813
O4    O     O_3   0.378040 0.744583 0.384626 -0.555496
O5    O     O_3   0.831316 0.371046 0.367033 -0.623352
O6    O     O_R   0.510770 0.544830 0.662520 -0.634021
O7    O     O_R   0.663880 0.410950 0.482330 -0.558032
O8    O     O_R   0.706530 0.589040 0.517700 -0.591695
O9    O     O_R   0.489230 0.455170 0.337480 -0.588366
O10   O     O_R   0.531880 0.633260 0.372840 -0.525603
O11   O     O_R   0.293470 0.410960 0.482300 -0.565054
O12   O     O_R   0.336120 0.589050 0.517670 -0.592306
O13   O     O_3   0.828384 0.315194 0.604962 -0.601471
Zn1   Zn    Zn3+2 0.471520 0.381090 0.476390 1.059796
Zn2   Zn    Zn3+2 0.528480 0.618910 0.523610 1.034982

loop_
_geom_bond_atom_site_label_1
_geom_bond_atom_site_label_2
_ccdc_geom_bond_type
C30   C32   S    
C12   C29   S    
C41   C42   A    
C27   O12   A    
C1    C11   S    
C7    H12   S    
C36   H16   S    
C37   H19   S    
O12   Zn2   S    
C7    C8    A    
C33   H9    S    
C12   C23   S    
C16   O10   A    
O1    Zn1   S    
C28   C29   S    
C36   H15   S    
C5    C6    A    
C30   I1    S    
C15   I5    S    
C20   C25   A    
C42   H27   S    
C10   C40   A    
C18   C19   A    
C14   I4    S    
C10   I3    S    
N2    Zn2   S    
C11   C41   A    
O7    Zn1   S    
C38   H21   S    
C4    O8    A    
C26   N1    A    
C21   C22   A    
C35   H11   S    
C14   N2    A    
C31   H6    S    
C19   N2    A    
C37   H20   S    
O9    Zn1   S    
C4    O7    A    
C33   H10   S    
C8    H29   S    
C34   H7    S    
C12   C27   S    
C23   C30   S    
C28   C32   S    
C34   H1    S    
C3    C8    A    
O11   Zn1   S    
C36   O3    S    
C9    C40   A    
C38   O5    S    
C10   C39   A    
C1    O1    A    
C5    C9    A    
C31   C32   S    
C29   I6    S    
C38   H22   S    
C2    C43   A    
C26   O3    S    
C17   C18   A    
C31   C34   S    
C13   C21   A    
C38   H24   S    
C4    C32   S    
C16   C40   S    
C16   O9    A    
C25   N1    A    
N1    Zn1   S    
C22   C24   A    
C13   C26   A    
C28   H28   S    
C42   C43   A    
C30   O5    S    
C33   O13   S    
C15   C17   A    
C1    O6    A    
C23   H5    S    
C35   H13   S    
C6    C39   A    
C37   O4    S    
C17   H4    S    
C23   I2    S    
C36   H17   S    
C37   H18   S    
C6    C7    A    
C33   H8    S    
C41   O2    S    
C31   I8    S    
C28   O13   S    
O6    Zn2   S    
C35   H14   S    
C19   C24   A    
C9    H25   S    
C13   H2    S    
C35   O2    S    
C29   I7    S    
C25   H3    S    
C39   H23   S    
C2    C3    A    
C18   C20   A    
O8    Zn2   S    
C24   O4    S    
C3    C11   A    
C2    C5    A    
C20   C21   A    
C43   H26   S    
C14   C15   A    
C27   O11   A    
C22   H30   S    
C12   C34   S    
O10   Zn2   S    
