data_mof_unit_56642.cif
_audit_creation_date              2012-12-11T14:23:01-0500
_audit_creation_method            fapswitch 2.2
_symmetry_space_group_name_H-M    P1
_symmetry_Int_Tables_number       1
_space_group_crystal_system       triclinic
_cell_length_a                    10.963967
_cell_length_b                    10.931062
_cell_length_c                    18.837229
_cell_angle_alpha                 90.008703
_cell_angle_beta                  89.949036
_cell_angle_gamma                 60.062946
_cell_volume                      1956.37709457

loop_
_atom_site_label
_atom_site_type_symbol
_atom_type_description
_atom_site_fract_x
_atom_site_fract_y
_atom_site_fract_z
_atom_type_partial_charge
C1    C     C_R   0.237896 0.644321 0.610391 0.584129
C2    C     C_3   0.724640 0.519680 0.799242 -0.246659
C3    C     C_3   0.695605 0.670329 0.814278 0.010097
C4    C     C_3   0.666513 0.642930 0.678776 0.062510
C5    C     C_3   0.781976 0.682431 0.689726 0.235022
C6    C     C_3   0.705703 0.503924 0.719830 -0.203395
C7    C     C_R   0.702166 0.122726 0.815813 0.001943
C8    C     C_R   0.806581 0.136561 0.777717 -0.001707
C9    C     C_R   0.808063 0.129500 0.701943 -0.000367
C10   C     C_R   0.596147 0.112614 0.704383 -0.168188
C11   C     C_R   0.602512 0.104967 0.776909 -0.156607
C12   C     C_R   0.651229 0.618692 0.602844 0.577573
C13   C     C_R   0.908647 0.157627 0.811971 -0.126038
C14   C     C_R   0.016354 0.158506 0.773446 -0.184990
C15   C     C_R   0.027829 0.133689 0.700723 -0.137906
C16   C     C_R   0.928384 0.112858 0.664528 0.067110
C17   C     C_R   0.688000 0.140939 0.666888 0.024683
C18   C     C_R   0.183921 0.668465 0.835330 -0.007151
C19   C     C_R   0.212517 0.541930 0.801354 0.009296
C20   C     C_R   0.207722 0.537625 0.725963 0.039168
C21   C     C_R   0.182490 0.772050 0.722359 -0.163041
C22   C     C_R   0.177371 0.778858 0.795150 -0.163507
C23   C     C_R   0.632445 0.221415 0.600589 0.565835
C24   C     C_R   0.245020 0.420002 0.841117 -0.084491
C25   C     C_R   0.259296 0.300204 0.808166 -0.136481
C26   C     C_R   0.242770 0.299082 0.735246 -0.124318
C27   C     C_R   0.214875 0.416460 0.694508 -0.011076
C28   C     C_R   0.196866 0.654182 0.685935 0.022909
C29   C     C_R   0.680584 0.695873 0.176959 0.017553
C30   C     C_R   0.720861 0.560152 0.202675 0.040244
C31   C     C_R   0.755320 0.534951 0.274355 -0.016417
C32   C     C_R   0.631136 0.787589 0.297252 -0.159946
C33   C     C_R   0.641777 0.808049 0.224866 -0.178807
C34   C     C_R   0.285204 0.623047 0.392444 0.566410
C35   C     C_R   0.752163 0.444460 0.157761 0.416045
C36   C     C_R   0.860564 0.311268 0.176007 -0.083529
C37   C     C_R   0.921191 0.288985 0.242941 -0.216267
C38   C     C_R   0.865939 0.397846 0.292930 -0.113588
C39   C     C_R   0.682266 0.650768 0.322421 0.016405
C40   C     C_R   0.655675 0.152440 0.177593 0.012345
C41   C     C_R   0.522525 0.206845 0.209397 0.020348
C42   C     C_R   0.517539 0.189634 0.282835 0.027028
C43   C     C_R   0.766913 0.115905 0.292840 -0.153796
C44   C     C_R   0.777416 0.098899 0.220296 -0.156277
C45   C     C_R   0.647667 0.623658 0.393814 0.546904
C46   C     C_R   0.396650 0.263826 0.169355 -0.076536
C47   C     C_R   0.274792 0.276150 0.198816 -0.128483
C48   C     C_R   0.273665 0.242064 0.269586 -0.155223
C49   C     C_R   0.393921 0.196256 0.310853 -0.097065
C50   C     C_R   0.636936 0.166241 0.324713 0.006095
C51   C     C_R   0.176182 0.653085 0.175464 0.004667
C52   C     C_R   0.262681 0.706680 0.197499 0.032000
C53   C     C_R   0.277960 0.720057 0.270594 0.012618
C54   C     C_R   0.169285 0.575732 0.293776 -0.128547
C55   C     C_R   0.128378 0.589857 0.223789 -0.151574
C56   C     C_R   0.615862 0.226455 0.395688 0.551841
C57   C     C_R   0.315030 0.767124 0.148364 -0.050368
C58   C     C_R   0.342888 0.871459 0.170342 -0.102550
C59   C     C_R   0.336024 0.902533 0.241936 -0.146464
C60   C     C_R   0.315214 0.821262 0.291963 -0.111434
C61   C     C_R   0.243864 0.640361 0.318247 0.007299
C62   C     C_R   0.706334 0.093296 0.893021 0.549252
C63   C     C_R   0.720596 0.685749 0.889642 0.564624
C64   C     C_R   0.120405 0.705121 0.906328 0.535945
C65   C     C_R   0.675939 0.106121 0.104273 0.556359
C66   C     C_R   0.722834 0.711453 0.105951 0.583674
C67   C     C_3   0.542461 0.775929 0.791080 -0.266736
C68   C     C_R   0.098347 0.705634 0.110467 0.526942
C69   C     C_3   0.526552 0.762483 0.710809 -0.290719
C70   C     C_3   0.799683 0.697877 0.769756 -0.168221
Cr1   Cr    Cr6+3 0.392940 0.397950 0.502230 1.021893
Cr2   Cr    Cr6+3 0.398400 0.708500 0.501260 1.012841
Cr3   Cr    Cr6+3 0.708640 0.393530 0.496460 1.063156
Cr4   Cr    Cr6+3 0.937880 0.938320 0.007620 1.006444
Cr5   Cr    Cr6+3 0.625560 0.937220 0.994510 0.999313
Cr6   Cr    Cr6+3 0.938080 0.625010 0.001190 1.018365
H1    H     H_    0.514445 0.886035 0.803238 0.130107
H2    H     H_    0.805386 0.415089 0.698913 0.199896
H3    H     H_    0.910153 0.622477 0.785508 0.184355
H4    H     H_    0.511204 0.107209 0.678059 0.133269
H5    H     H_    0.904868 0.178300 0.868123 0.152297
H6    H     H_    0.526136 0.085208 0.802380 0.142550
H7    H     H_    0.094692 0.172480 0.800994 0.122132
H8    H     H_    0.119215 0.122113 0.673005 0.146049
H9    H     H_    0.181135 0.858742 0.694453 0.148022
H10   H     H_    0.467342 0.754245 0.820658 0.133202
H11   H     H_    0.263128 0.415054 0.897759 0.131565
H12   H     H_    0.161743 0.875021 0.819832 0.155031
H13   H     H_    0.284037 0.207573 0.839405 0.098828
H14   H     H_    0.255393 0.205163 0.709790 0.092445
H15   H     H_    0.194480 0.410352 0.639125 0.190689
H16   H     H_    0.584859 0.876891 0.333139 0.118641
H17   H     H_    0.614504 0.911885 0.205794 0.135553
H18   H     H_    0.898355 0.225942 0.137951 0.143061
H19   H     H_    0.007500 0.185836 0.256933 0.117644
H20   H     H_    0.440952 0.738157 0.701865 0.152107
H21   H     H_    0.919618 0.374582 0.343330 0.160615
H22   H     H_    0.859878 0.089522 0.324008 0.136897
H23   H     H_    0.392564 0.295355 0.114565 0.141439
H24   H     H_    0.882282 0.044790 0.197742 0.151220
H25   H     H_    0.181222 0.312073 0.166690 0.120180
H26   H     H_    0.180549 0.248301 0.292636 0.106007
H27   H     H_    0.389856 0.158578 0.363315 0.141841
H28   H     H_    0.133864 0.522384 0.329648 0.149735
H29   H     H_    0.320432 0.744526 0.092083 0.144461
H30   H     H_    0.054479 0.556322 0.208103 0.132368
H31   H     H_    0.495775 0.864874 0.684285 0.111587
H32   H     H_    0.369318 0.928450 0.132095 0.138179
H33   H     H_    0.358545 0.982318 0.259411 0.128451
H34   H     H_    0.321340 0.847881 0.346029 0.166757
H35   H     H_    0.781416 0.805747 0.780669 0.091380
H36   H     H_    0.751500 0.784066 0.662479 0.136139
H37   H     H_    0.834137 0.441545 0.814866 0.158765
H38   H     H_    0.652147 0.497049 0.830695 0.125896
H39   H     H_    0.622227 0.475318 0.712352 0.103429
O1    O     O_R   0.507340 0.255690 0.581430 -0.533683
O2    O     O_R   0.524510 0.695820 0.424050 -0.531242
O3    O     O_R   0.736370 0.504260 0.414810 -0.523430
O4    O     O_R   0.691220 0.277270 0.422180 -0.489877
O5    O     O_3   0.499990 0.499990 0.499980 -0.283706
O6    O     O_R   0.089570 0.825450 0.930590 -0.526543
O7    O     O_R   0.818700 0.054260 0.929860 -0.499265
O8    O     O_R   0.606310 0.077010 0.915520 -0.532643
O9    O     O_R   0.646730 0.806540 0.917560 -0.506201
O10   O     O_R   0.837290 0.593240 0.915240 -0.512680
O11   O     O_R   0.065320 0.635310 0.931580 -0.512985
O12   O     O_R   0.280360 0.527380 0.578910 -0.510937
O13   O     O_R   0.068470 0.828620 0.091850 -0.533462
O14   O     O_R   0.799150 0.057200 0.079350 -0.502063
O15   O     O_R   0.585220 0.080180 0.076770 -0.542504
O16   O     O_R   0.627170 0.809480 0.067050 -0.500506
O17   O     O_R   0.816200 0.596410 0.076500 -0.464340
O18   O     O_R   0.045770 0.638240 0.081070 -0.529878
O19   O     O_3   0.833840 0.833520 0.001110 -0.267273
O20   O     O_R   0.260600 0.739610 0.584580 -0.500361
O21   O     O_R   0.532370 0.695050 0.573830 -0.527616
O22   O     O_R   0.744850 0.503430 0.576380 -0.460859
O23   O     O_R   0.699080 0.276500 0.571950 -0.495181
O24   O     O_R   0.498860 0.256520 0.419860 -0.543607
O25   O     O_R   0.272490 0.528150 0.429140 -0.492113
O26   O     O_R   0.252110 0.740440 0.423010 -0.529034
F1    F     F_    0.908415 0.580109 0.660885 -0.649478
C71   C     C_2   0.964777 0.054011 0.591314 0.597029
O27   O     O_2   0.921591 0.977574 0.568824 -0.513710
O28   O     O_R   0.052195 0.082649 0.548754 -0.710939
H40   H     H_    0.070384 0.035693 0.500459 0.336499
F2    F     F_    0.686916 0.462655 0.094128 -0.628614

loop_
_geom_bond_atom_site_label_1
_geom_bond_atom_site_label_2
_ccdc_geom_bond_type
C45   O3    A    
C57   H29   S    
C46   H23   S    
C34   O26   A    
C8    C13   A    
C47   H25   S    
C29   C33   A    
Cr6   O11   S    
C41   C42   A    
C23   O23   A    
C35   C36   A    
C67   H1    S    
C43   H22   S    
C69   H20   S    
C65   O15   A    
C69   H31   S    
Cr5   O19   S    
C7    C8    A    
C7    C11   A    
C26   C27   A    
C17   C23   S    
Cr1   O5    S    
Cr5   O8    S    
C54   H28   S    
C36   C37   A    
C9    C16   A    
C15   H8    S    
O28   H40   S    
C30   C31   A    
C2    H37   S    
Cr3   O4    S    
Cr2   O21   S    
Cr3   O23   S    
C10   C17   A    
C71   O27   D    
C13   H5    S    
C37   H19   S    
C18   C19   A    
C32   C39   A    
C62   O8    A    
C23   O1    A    
C54   C55   A    
C53   C61   A    
Cr4   O13   S    
C19   C20   A    
C8    C9    A    
Cr2   O2    S    
C1    C28   S    
C41   C46   A    
C27   H15   S    
C22   H12   S    
C4    C12   S    
C68   O13   A    
C58   H32   S    
Cr5   O15   S    
C39   C45   S    
C68   O18   A    
C59   C60   A    
Cr3   O5    S    
C21   C22   A    
Cr6   O10   S    
Cr1   O12   S    
C2    C6    S    
C14   H7    S    
C38   H21   S    
C4    C69   S    
C53   C60   A    
Cr5   O16   S    
C64   O6    A    
C63   O9    A    
C66   O17   A    
C11   H6    S    
Cr2   O26   S    
C5    F1    S    
C21   H9    S    
C54   C61   A    
C55   H30   S    
Cr5   O9    S    
C3    C70   S    
C60   H34   S    
C24   C25   A    
C4    C6    S    
C52   C57   A    
C56   O24   A    
C10   H4    S    
C44   H24   S    
Cr2   O20   S    
Cr1   O24   S    
C20   C28   A    
C58   C59   A    
C34   C61   S    
C50   C56   S    
C51   C52   A    
C67   C69   S    
C37   C38   A    
C43   C44   A    
C7    C62   S    
C29   C30   A    
C47   C48   A    
C14   C15   A    
C48   H26   S    
Cr2   O5    S    
C35   F2    S    
C63   O10   A    
C42   C50   A    
C30   C35   A    
C9    C17   A    
C40   C41   A    
Cr4   O7    S    
C21   C28   A    
C64   O11   A    
C40   C65   S    
C56   O4    A    
C62   O7    A    
C52   C53   A    
C66   O16   A    
C45   O2    A    
C71   O28   S    
C46   C47   A    
C48   C49   A    
C67   H10   S    
Cr6   O19   S    
Cr3   O3    S    
C70   H3    S    
C18   C22   A    
C3    C67   S    
C1    O12   A    
C4    C5    S    
C5    C70   S    
C33   H17   S    
C49   H27   S    
C65   O14   A    
Cr6   O18   S    
C43   C50   A    
Cr1   O25   S    
C20   C27   A    
C3    C63   S    
C26   H14   S    
C5    H36   S    
C25   H13   S    
C70   H35   S    
C31   C38   A    
C32   C33   A    
C19   C24   A    
C25   C26   A    
C1    O20   A    
Cr6   O17   S    
C2    H38   S    
C18   C64   S    
C57   C58   A    
C32   H16   S    
Cr3   O22   S    
C16   C71   S    
Cr4   O19   S    
C34   O25   A    
C59   H33   S    
C31   C39   A    
Cr1   O1    S    
C2    C3    S    
C51   C55   A    
C51   C68   S    
C24   H11   S    
C6    H39   S    
C6    H2    S    
C10   C11   A    
C42   C49   A    
C29   C66   S    
C36   H18   S    
C40   C44   A    
Cr4   O6    S    
C12   O21   A    
Cr4   O14   S    
C12   O22   A    
C13   C14   A    
C15   C16   A    
