data_mof_unit_25738.cif
_audit_creation_date              2012-12-10T20:31:54-0500
_audit_creation_method            fapswitch 2.2
_symmetry_space_group_name_H-M    P1
_symmetry_Int_Tables_number       1
_space_group_crystal_system       triclinic
_cell_length_a                    9.868936
_cell_length_b                    10.677186
_cell_length_c                    15.4677
_cell_angle_alpha                 90.068976
_cell_angle_beta                  67.908501
_cell_angle_gamma                 89.964674
_cell_volume                      1510.20978805

loop_
_atom_site_label
_atom_site_type_symbol
_atom_type_description
_atom_site_fract_x
_atom_site_fract_y
_atom_site_fract_z
_atom_type_partial_charge
C1    C     C_R   0.501445 0.740046 0.497393 0.880493
C2    C     C_R   0.403460 0.440204 0.915690 0.112004
C3    C     C_R   0.258426 0.476954 0.971204 0.173831
C4    C     C_R   0.504391 0.410685 0.958247 0.048073
C5    C     C_R   0.464369 0.436144 0.054067 0.074549
C6    C     C_R   0.315976 0.463032 0.108741 -0.222229
C7    C     C_R   0.214621 0.482105 0.067692 -0.240478
C8    C     C_R   0.643997 0.358459 0.908225 -0.291059
C9    C     C_R   0.747229 0.340917 0.949232 -0.043952
C10   C     C_R   0.714418 0.382972 0.041504 0.086308
C11   C     C_R   0.573676 0.434019 0.092487 0.085656
C12   C     C_R   0.408652 0.497808 0.676024 0.876491
C13   C     C_R   0.818545 0.378831 0.084096 -0.180908
C14   C     C_R   0.782928 0.421223 0.175360 -0.217594
C15   C     C_R   0.546912 0.487074 0.179829 -0.241030
C16   C     C_R   0.385016 0.936269 0.485926 0.140795
C17   C     C_R   0.509044 0.871457 0.483054 -0.105727
C18   C     C_R   0.641786 0.935102 0.462597 -0.220353
C19   C     C_R   0.641930 0.064638 0.462404 -0.216778
C20   C     C_R   0.509311 0.128580 0.482735 -0.104498
C21   C     C_R   0.385166 0.063992 0.485730 0.118997
C22   C     C_3   0.231228 0.071624 0.554892 -0.445740
C23   C     C_R   0.501663 0.259982 0.497204 0.884975
C24   C     C_3   0.231138 0.929651 0.555225 -0.496352
C25   C     C_R   0.902308 0.592351 0.545198 0.212636
C26   C     C_R   0.958510 0.415692 0.448409 -0.138629
C27   C     C_R   0.102449 0.415619 0.448454 -0.122766
C28   C     C_R   0.044848 0.592307 0.545145 0.207288
C29   C     C_3   0.991232 0.621155 0.646746 -0.513452
C30   C     C_3   0.837370 0.621405 0.646985 -0.479193
C31   C     C_R   0.591268 0.497812 0.323890 0.864353
C32   C     C_R   0.351357 0.485846 0.777317 -0.067259
C33   C     C_R   0.645751 0.474271 0.223626 -0.052596
C34   C     C_R   0.160315 0.511852 0.929239 -0.208772
C35   C     C_R   0.206682 0.516341 0.832469 -0.153382
C36   C     C_R   0.446606 0.444752 0.818845 -0.265669
H1    H     H_    0.103176 0.506335 0.111386 0.146538
H2    H     H_    0.927362 0.342212 0.048384 0.185547
H3    H     H_    0.742477 0.885926 0.453058 0.170265
H4    H     H_    0.742695 0.113631 0.452736 0.166906
H5    H     H_    0.223152 0.113419 0.622578 0.219098
H6    H     H_    0.156014 0.112497 0.524019 0.205306
H7    H     H_    0.223346 0.888833 0.623059 0.200723
H8    H     H_    0.155662 0.888404 0.524702 0.204844
H9    H     H_    0.927929 0.346114 0.408193 0.139412
H10   H     H_    0.180414 0.345921 0.408297 0.146223
H11   H     H_    0.011197 0.543140 0.687987 0.241679
H12   H     H_    0.447607 0.538769 0.216022 0.153048
H13   H     H_    0.027463 0.714806 0.660823 0.194588
H14   H     H_    0.769217 0.543913 0.688958 0.223563
H15   H     H_    0.784796 0.715299 0.661009 0.200843
H16   H     H_    0.860962 0.409906 0.208718 0.152198
H17   H     H_    0.049679 0.540540 0.971146 0.143258
H18   H     H_    0.131350 0.547575 0.801102 0.161071
H19   H     H_    0.557040 0.422829 0.773907 0.154626
H20   H     H_    0.274714 0.467882 0.183961 0.146644
H21   H     H_    0.672943 0.323884 0.837989 0.171140
N1    N     N_R   0.856900 0.500860 0.500610 -0.102641
N2    N     N_R   0.142540 0.500820 0.500610 -0.098750
O1    O     O_R   0.385310 0.683210 0.499990 -0.614370
O2    O     O_R   0.614650 0.683240 0.500000 -0.619879
O3    O     O_R   0.319830 0.499970 0.632240 -0.603790
O4    O     O_R   0.549170 0.500000 0.632250 -0.617146
O5    O     O_R   0.385350 0.316760 0.500000 -0.611736
O6    O     O_R   0.614690 0.316790 0.500010 -0.622670
O7    O     O_R   0.450830 0.500000 0.367750 -0.619594
O8    O     O_R   0.680170 0.500030 0.367760 -0.617611
Zn1   Zn    Zn3+2 0.346870 0.499980 0.499990 0.952786
Zn2   Zn    Zn3+2 0.653130 0.500020 0.500010 0.940677
C37   C     C_2   0.888137 0.279818 0.892447 0.888850
O9    O     O_2   0.949770 0.307511 0.810144 -0.652368
O10   O     O_R   0.947316 0.186987 0.931512 -0.811623
H22   H     H_    0.042932 0.152371 0.885433 0.344311

loop_
_geom_bond_atom_site_label_1
_geom_bond_atom_site_label_2
_ccdc_geom_bond_type
C8    C9    A    
C31   O7    A    
O7    Zn1   S    
C30   H15   S    
C16   C21   A    
C19   C20   A    
C4    C8    A    
C14   C33   A    
C29   H13   S    
C25   C28   A    
C31   O8    A    
C26   C27   A    
C29   H11   S    
C32   C36   A    
C28   C29   S    
C5    C11   A    
C3    C7    A    
C5    C6    A    
N2    Zn1   S    
C22   H5    S    
O2    Zn2   S    
C18   C19   A    
C34   C35   A    
C26   H9    S    
C11   C15   A    
C14   H16   S    
O4    Zn2   S    
C16   C17   A    
C31   C33   S    
C37   O9    D    
C9    C10   A    
C30   H14   S    
C16   C24   S    
C21   C22   S    
C12   C32   S    
C35   H18   S    
C15   H12   S    
C32   C35   A    
C9    C37   S    
C19   H4    S    
C1    O1    A    
C12   O4    A    
O10   H22   S    
C3    C34   A    
O8    Zn2   S    
C2    C4    A    
C18   H3    S    
C29   C30   S    
C8    H21   S    
C12   O3    A    
C20   C23   S    
C17   C18   A    
C7    H1    S    
C26   N1    A    
C13   H2    S    
C27   H10   S    
C23   O5    A    
C24   H8    S    
C22   C24   S    
C25   N1    A    
O5    Zn1   S    
C28   N2    A    
C2    C36   A    
C25   C30   S    
C6    H20   S    
C4    C5    A    
C10   C13   A    
C1    O2    A    
N1    Zn2   S    
C6    C7    A    
C1    C17   S    
O3    Zn1   S    
C23   O6    A    
C2    C3    A    
C36   H19   S    
C27   N2    A    
C22   H6    S    
O6    Zn2   S    
C10   C11   A    
C20   C21   A    
O1    Zn1   S    
C34   H17   S    
C24   H7    S    
C37   O10   S    
C13   C14   A    
C15   C33   A    
