data_mof_unit_33112.cif
_audit_creation_date              2012-12-10T18:46:17-0500
_audit_creation_method            fapswitch 2.2
_symmetry_space_group_name_H-M    P1
_symmetry_Int_Tables_number       1
_space_group_crystal_system       triclinic
_cell_length_a                    9.841206
_cell_length_b                    10.725166
_cell_length_c                    13.114124
_cell_angle_alpha                 90.054556
_cell_angle_beta                  69.77582
_cell_angle_gamma                 90.015875
_cell_volume                      1298.83805204

loop_
_atom_site_label
_atom_site_type_symbol
_atom_type_description
_atom_site_fract_x
_atom_site_fract_y
_atom_site_fract_z
_atom_type_partial_charge
C1    C     C_R   0.499940 0.740154 0.500265 0.868104
C2    C     C_R   0.365348 0.483670 0.822947 -0.240813
C3    C     C_R   0.628318 0.936205 0.488736 -0.197965
C4    C     C_R   0.419347 0.493706 0.704477 0.985345
C5    C     C_R   0.628320 0.063911 0.488630 -0.151394
C6    C     C_R   0.499780 0.127419 0.500490 -0.006176
C7    C     C_R   0.371133 0.063843 0.512808 -0.194256
C8    C     C_R   0.371120 0.936127 0.512947 -0.181278
C9    C     C_R   0.499781 0.872613 0.500696 -0.014475
C10   C     C_R   0.959981 0.424750 0.430530 -0.071430
C11   C     C_R   0.103850 0.424741 0.430577 -0.079904
C12   C     C_R   0.430471 0.475959 0.984915 0.024715
C13   C     C_R   0.039958 0.575156 0.569557 -0.051825
C14   C     C_R   0.896089 0.575151 0.569519 -0.055079
C15   C     C_R   0.499929 0.259852 0.500048 0.903286
C16   C     C_R   0.580476 0.499659 0.295471 0.857765
C17   C     C_R   0.773222 0.367535 0.019375 -0.116377
C18   C     C_R   0.629658 0.482235 0.178586 -0.064002
C19   C     C_R   0.230669 0.536847 0.883273 0.616446
C20   C     C_R   0.193311 0.553717 0.994522 -0.218534
C21   C     C_R   0.293363 0.527558 0.044768 -0.266801
C22   C     C_R   0.457039 0.437941 0.876899 -0.128685
C23   C     C_R   0.541418 0.459527 0.029120 0.095296
C24   C     C_R   0.666004 0.387786 0.972986 0.066133
C25   C     C_R   0.678894 0.333689 0.873515 -0.310970
C26   C     C_R   0.575097 0.356947 0.826105 0.642681
C27   C     C_R   0.532095 0.513742 0.127671 -0.218331
C28   C     C_R   0.753570 0.412561 0.123357 -0.203517
F1    F     F_    0.137430 0.577049 0.834482 -0.674731
F2    F     F_    0.585415 0.292758 0.734421 -0.666297
H1    H     H_    0.830179 0.387359 0.162520 0.145406
H2    H     H_    0.868214 0.311991 0.977609 0.146116
H3    H     H_    0.445044 0.576596 0.169650 0.146163
H4    H     H_    0.259012 0.545210 0.130988 0.157239
H5    H     H_    0.088958 0.593039 0.041269 0.171479
H6    H     H_    0.728664 0.887748 0.478931 0.157918
H7    H     H_    0.728672 0.112431 0.478754 0.161741
H8    H     H_    0.270799 0.112320 0.522607 0.161955
H9    H     H_    0.270760 0.887599 0.522872 0.159171
H10   H     H_    0.930993 0.364658 0.374963 0.116458
H11   H     H_    0.183862 0.364531 0.375043 0.132579
H12   H     H_    0.068940 0.635260 0.625112 0.166275
H13   H     H_    0.816070 0.635342 0.625058 0.134147
H14   H     H_    0.769355 0.273017 0.832315 0.178021
N1    N     N_R   0.142790 0.500030 0.500030 -0.082922
N2    N     N_R   0.857180 0.499940 0.500010 -0.072894
O1    O     O_R   0.385370 0.683250 0.500010 -0.625973
O2    O     O_R   0.614700 0.683220 0.500010 -0.634153
O3    O     O_R   0.328400 0.499990 0.653620 -0.562767
O4    O     O_R   0.557730 0.499960 0.653620 -0.582499
O5    O     O_R   0.385300 0.316780 0.499990 -0.636803
O6    O     O_R   0.614630 0.316750 0.499990 -0.587970
O7    O     O_R   0.442270 0.500040 0.346380 -0.621269
O8    O     O_R   0.671600 0.500010 0.346380 -0.624441
Zn1   Zn    Zn3+2 0.346870 0.500020 0.500000 0.972943
Zn2   Zn    Zn3+2 0.653130 0.499980 0.500000 0.977147

loop_
_geom_bond_atom_site_label_1
_geom_bond_atom_site_label_2
_ccdc_geom_bond_type
C10   N2    A    
C2    C4    S    
C23   C24   A    
C1    O2    A    
C2    C22   A    
C6    C7    A    
C3    C9    A    
C8    H9    S    
C5    H7    S    
C15   O5    A    
C4    O3    A    
C14   H13   S    
C16   O8    A    
C25   C26   A    
C24   C25   A    
C1    C9    S    
C7    C8    A    
C14   N2    A    
O3    Zn1   S    
C15   O6    A    
C27   H3    S    
C13   N1    A    
C17   C28   A    
C12   C23   A    
O6    Zn2   S    
C3    H6    S    
C25   H14   S    
C10   H10   S    
C13   H12   S    
C7    H8    S    
C26   F2    S    
O5    Zn1   S    
C23   C27   A    
O7    Zn1   S    
C5    C6    A    
C17   H2    S    
O8    Zn2   S    
C11   N1    A    
C17   C24   A    
C10   C11   A    
C19   F1    S    
C12   C22   A    
C18   C28   A    
C20   C21   A    
N1    Zn1   S    
C16   C18   S    
C22   C26   A    
C11   H11   S    
N2    Zn2   S    
C2    C19   A    
O2    Zn2   S    
O1    Zn1   S    
C16   O7    A    
C1    O1    A    
C21   H4    S    
C6    C15   S    
C13   C14   A    
C20   H5    S    
C12   C21   A    
C28   H1    S    
O4    Zn2   S    
C18   C27   A    
C19   C20   A    
C4    O4    A    
C8    C9    A    
C3    C5    A    
