data_mof_unit_59034.cif
_audit_creation_date              2012-12-10T20:07:07-0500
_audit_creation_method            fapswitch 2.2
_symmetry_space_group_name_H-M    P1
_symmetry_Int_Tables_number       1
_space_group_crystal_system       triclinic
_cell_length_a                    19.095305
_cell_length_b                    18.410063
_cell_length_c                    10.675354
_cell_angle_alpha                 89.908925
_cell_angle_beta                  89.32416
_cell_angle_gamma                 90.381131
_cell_volume                      3752.5261967

loop_
_atom_site_label
_atom_site_type_symbol
_atom_type_description
_atom_site_fract_x
_atom_site_fract_y
_atom_site_fract_z
_atom_type_partial_charge
C1    C     C_R   0.365608 0.499738 0.498668 1.004183
C2    C     C_R   0.928376 0.503237 0.411983 -0.255754
C3    C     C_R   0.559113 0.726476 0.465410 0.023434
C4    C     C_R   0.440720 0.273542 0.533718 0.011098
C5    C     C_R   0.440510 0.725648 0.532226 0.008970
C6    C     C_R   0.559052 0.274344 0.465246 0.016720
C7    C     C_R   0.560141 0.802578 0.464074 -0.259590
C8    C     C_R   0.439234 0.197446 0.532607 -0.279394
C9    C     C_R   0.438929 0.801706 0.530238 -0.293178
C10   C     C_R   0.560207 0.198275 0.464942 -0.277789
C11   C     C_R   0.499498 0.841464 0.496892 0.071513
C12   C     C_R   0.634488 0.500231 0.498278 1.008026
C13   C     C_R   0.499656 0.158554 0.498498 0.072232
C14   C     C_R   0.440972 0.961677 0.455470 -0.182445
C15   C     C_R   0.558111 0.038364 0.539346 -0.182930
C16   C     C_R   0.558086 0.962203 0.538872 -0.181235
C17   C     C_R   0.440991 0.037862 0.455984 -0.182947
C18   C     C_R   0.499568 0.077301 0.497928 0.122878
C19   C     C_R   0.499528 0.922737 0.496911 0.122769
C20   C     C_R   0.508197 0.500198 0.258935 0.932478
C21   C     C_R   0.487842 0.499813 0.738994 0.896314
C22   C     C_R   0.526408 0.635618 0.108134 -0.305195
C23   C     C_R   0.709406 0.500764 0.477620 -0.271292
C24   C     C_R   0.459015 0.365613 0.887204 -0.289065
C25   C     C_R   0.452899 0.632010 0.885792 -0.287329
C26   C     C_R   0.533527 0.367026 0.108607 -0.310344
C27   C     C_R   0.505179 0.700668 0.053652 0.457576
C28   C     C_R   0.478387 0.299889 0.941730 0.452820
C29   C     C_R   0.468534 0.698965 0.940481 0.449766
C30   C     C_R   0.515380 0.300610 0.054569 0.457667
C31   C     C_R   0.476892 0.566179 0.938586 0.022916
C32   C     C_R   0.510037 0.433635 0.057806 0.015408
C33   C     C_R   0.506434 0.567448 0.057666 -0.004645
C34   C     C_R   0.291102 0.499148 0.478242 -0.259426
C35   C     C_R   0.480092 0.432944 0.939091 0.024860
C36   C     C_R   0.473952 0.499405 0.873914 -0.132357
C37   C     C_R   0.515038 0.500680 0.122345 -0.152151
C38   C     C_R   0.753093 0.463255 0.560035 0.423272
C39   C     C_R   0.246765 0.537794 0.559388 0.419063
C40   C     C_R   0.265134 0.463041 0.372235 0.423791
C41   C     C_R   0.736854 0.534918 0.369524 0.440385
C42   C     C_R   0.825430 0.465310 0.538847 -0.195625
C43   C     C_R   0.174871 0.537194 0.536194 -0.228025
C44   C     C_R   0.193992 0.467381 0.346092 -0.224629
C45   C     C_R   0.964340 0.570125 0.411036 0.394585
C46   C     C_R   0.809021 0.536116 0.349656 -0.233996
C47   C     C_R   0.852989 0.501540 0.433785 0.138758
C48   C     C_R   0.148982 0.503370 0.428739 0.088492
C49   C     C_3   0.478198 0.206965 0.176774 -0.271661
C50   C     C_3   0.503174 0.796534 0.824523 -0.260408
C51   C     C_3   0.518142 0.206922 0.821944 -0.266276
C52   C     C_3   0.463958 0.790241 0.178947 -0.262627
C53   C     C_3   0.733557 0.354858 0.658255 -0.278339
C54   C     C_3   0.255200 0.643517 0.672868 -0.290227
C55   C     C_3   0.300626 0.355293 0.288939 -0.250283
C56   C     C_R   0.037299 0.437537 0.400015 0.380634
C57   C     C_3   0.690900 0.527472 0.174533 -0.340642
C58   C     C_3   0.928415 0.678036 0.325771 -0.234552
C59   C     C_3   0.077218 0.345246 0.520516 -0.253879
C60   C     C_3   0.105347 0.652645 0.296459 -0.328138
C61   C     C_3   0.913174 0.357073 0.266107 -0.266928
C62   C     C_R   0.037696 0.570719 0.404331 0.377501
C63   C     C_R   0.964326 0.437520 0.396842 0.354765
C64   C     C_R   0.073893 0.504046 0.405640 -0.246442
H1    H     H_    0.559546 0.639695 0.189262 0.223246
H2    H     H_    0.394395 0.302954 0.562058 0.127233
H3    H     H_    0.394088 0.695641 0.560029 0.142262
H4    H     H_    0.605402 0.304360 0.436835 0.125015
H5    H     H_    0.607663 0.830679 0.435378 0.150242
H6    H     H_    0.391657 0.169335 0.560968 0.147690
H7    H     H_    0.391212 0.829105 0.557826 0.148738
H8    H     H_    0.607636 0.170839 0.435866 0.146969
H9    H     H_    0.395404 0.933222 0.420622 0.125883
H10   H     H_    0.603669 0.066815 0.574253 0.126605
H11   H     H_    0.603618 0.934160 0.573503 0.129833
H12   H     H_    0.427383 0.363334 0.803802 0.188089
H13   H     H_    0.395446 0.065951 0.421505 0.125628
H14   H     H_    0.435033 0.191774 0.112715 0.188520
H15   H     H_    0.458602 0.244939 0.250045 0.161710
H16   H     H_    0.495120 0.156468 0.223993 0.197463
H17   H     H_    0.484002 0.845282 0.774771 0.193058
H18   H     H_    0.528346 0.760234 0.754148 0.165836
H19   H     H_    0.542613 0.815689 0.892847 0.199728
H20   H     H_    0.560316 0.191953 0.887843 0.191548
H21   H     H_    0.538797 0.245681 0.750160 0.164231
H22   H     H_    0.502089 0.156465 0.773211 0.195299
H23   H     H_    0.421866 0.632061 0.801567 0.200014
H24   H     H_    0.447999 0.750332 0.252508 0.166040
H25   H     H_    0.419026 0.802093 0.116972 0.186507
H26   H     H_    0.478289 0.841718 0.226243 0.194721
H27   H     H_    0.702244 0.328797 0.734340 0.183331
H28   H     H_    0.789154 0.339518 0.671732 0.160504
H29   H     H_    0.714047 0.332987 0.567795 0.151408
H30   H     H_    0.260526 0.671652 0.580660 0.155927
H31   H     H_    0.290929 0.671399 0.738712 0.189259
H32   H     H_    0.201151 0.649204 0.710934 0.175321
H33   H     H_    0.303646 0.332740 0.385603 0.146077
H34   H     H_    0.566648 0.365512 0.190052 0.184835
H35   H     H_    0.249934 0.340117 0.245706 0.161578
H36   H     H_    0.342973 0.329838 0.232469 0.178740
H37   H     H_    0.656619 0.555190 0.106835 0.203722
H38   H     H_    0.668639 0.472379 0.192941 0.146685
H39   H     H_    0.743309 0.523182 0.128679 0.166991
H40   H     H_    0.931441 0.647074 0.236123 0.106209
H41   H     H_    0.972142 0.717850 0.330556 0.201549
H42   H     H_    0.879040 0.709418 0.324316 0.179889
H43   H     H_    0.024438 0.332562 0.560368 0.186256
H44   H     H_    0.105493 0.383764 0.582635 0.146100
H45   H     H_    0.860229 0.439763 0.604878 0.161559
H46   H     H_    0.107367 0.293965 0.518331 0.175171
H47   H     H_    0.069050 0.645005 0.216506 0.138237
H48   H     H_    0.153308 0.619928 0.281519 0.182202
H49   H     H_    0.121624 0.710587 0.296769 0.186558
H50   H     H_    0.962061 0.351297 0.209206 0.175676
H51   H     H_    0.879021 0.399450 0.224925 0.141586
H52   H     H_    0.884347 0.304647 0.261853 0.182198
H53   H     H_    0.138927 0.562392 0.601899 0.177940
H54   H     H_    0.173812 0.443114 0.261350 0.180711
H55   H     H_    0.830695 0.563380 0.267937 0.155590
H56   H     H_    0.605655 0.697065 0.438176 0.161593
N1    N     N_R   0.500000 0.689440 0.500000 -0.106553
N2    N     N_R   0.500000 0.310560 0.500000 -0.099188
O1    O     O_R   0.398180 0.560840 0.499970 -0.624009
O2    O     O_3   0.445644 0.762073 0.884366 -0.619767
O3    O     O_3   0.459213 0.235347 0.885383 -0.613987
O4    O     O_3   0.522602 0.765699 0.110050 -0.610781
O5    O     O_3   0.724991 0.430756 0.666559 -0.599312
O6    O     O_3   0.274267 0.569656 0.666058 -0.617354
O7    O     O_3   0.310970 0.431214 0.287386 -0.591558
O8    O     O_3   0.693040 0.568895 0.285612 -0.607488
O9    O     O_3   0.927570 0.633558 0.433731 -0.560859
O10   O     O_3   0.072858 0.372276 0.397158 -0.584771
O11   O     O_3   0.073115 0.636404 0.413058 -0.573319
O12   O     O_R   0.601820 0.439160 0.500030 -0.632161
O13   O     O_3   0.928220 0.372236 0.392340 -0.584583
O14   O     O_R   0.601820 0.560840 0.500030 -0.606744
O15   O     O_R   0.398180 0.439160 0.499970 -0.626726
O16   O     O_R   0.499990 0.560810 0.316770 -0.618033
O17   O     O_R   0.500010 0.439190 0.683230 -0.618420
O18   O     O_R   0.500010 0.560810 0.683230 -0.620301
O19   O     O_R   0.499990 0.439190 0.316770 -0.614366
O20   O     O_3   0.536088 0.236814 0.111024 -0.614262
Zn1   Zn    Zn3+2 0.500000 0.581210 0.500000 0.964366
Zn2   Zn    Zn3+2 0.500000 0.418790 0.500000 0.951542

loop_
_geom_bond_atom_site_label_1
_geom_bond_atom_site_label_2
_ccdc_geom_bond_type
C25   C31   A    
C15   C18   A    
C40   O7    S    
C26   C32   A    
C8    C13   A    
C27   C29   A    
C16   H11   S    
C32   C35   A    
N1    Zn1   S    
C52   H26   S    
C35   C36   A    
O18   Zn1   S    
N2    Zn2   S    
C5    H3    S    
C51   H21   S    
C38   O5    S    
C60   H49   S    
C21   C36   S    
C28   O3    S    
C7    C11   A    
C57   H38   S    
C12   C23   S    
C11   C19   S    
C5    C9    A    
C13   C18   S    
C34   C40   A    
C62   O11   S    
C42   H45   S    
C38   C42   A    
O14   Zn1   S    
C3    C7    A    
O16   Zn1   S    
C41   O8    S    
C27   O4    S    
C48   C64   S    
C15   C16   A    
C29   O2    S    
C5    N1    A    
C45   C62   A    
C25   H23   S    
C59   H46   S    
C49   H14   S    
C20   O16   A    
C62   C64   A    
C53   O5    S    
C55   O7    S    
C55   H36   S    
C50   H19   S    
C41   C46   A    
C56   C64   A    
C43   C48   A    
C54   H32   S    
C4    C8    A    
C6    H4    S    
C12   O12   A    
C14   C17   A    
C52   H25   S    
C61   H52   S    
C14   C19   A    
C51   H22   S    
C1    C34   S    
C2    C45   A    
C25   C29   A    
C57   H39   S    
C59   O10   S    
C24   C35   A    
C31   C33   A    
C53   H29   S    
C34   C39   A    
C51   O3    S    
C14   H9    S    
C9    H7    S    
C57   O8    S    
C52   H24   S    
C50   O2    S    
C3    H56   S    
O19   Zn2   S    
C52   O4    S    
C24   H12   S    
C39   C43   A    
C50   H18   S    
C54   O6    S    
C33   C37   A    
C49   H15   S    
C58   H42   S    
C63   O13   S    
C1    O1    A    
C22   H1    S    
C61   H51   S    
C60   H48   S    
O17   Zn2   S    
C44   H54   S    
C58   O9    S    
C49   O20   S    
C55   H33   S    
C53   H28   S    
C17   H13   S    
C17   C18   A    
C56   C63   A    
C4    N2    A    
C32   C37   A    
C9    C11   A    
C54   H31   S    
C56   O10   S    
C43   H53   S    
C53   H27   S    
O15   Zn2   S    
C26   H34   S    
C26   C30   A    
C22   C27   A    
C58   H40   S    
C21   O17   A    
O1    Zn1   S    
C1    O15   A    
C2    C63   A    
C61   O13   S    
C22   C33   A    
C46   C47   A    
C39   O6    S    
C20   O19   A    
C24   C28   A    
C10   C13   A    
C30   O20   S    
C7    H5    S    
C45   O9    S    
C2    C47   S    
C23   C38   A    
C57   H37   S    
C8    H6    S    
C59   H44   S    
C23   C41   A    
C49   H16   S    
C58   H41   S    
C28   C30   A    
C60   H47   S    
C4    H2    S    
C20   C37   S    
C16   C19   A    
C60   O11   S    
C46   H55   S    
C42   C47   A    
C59   H43   S    
C54   H30   S    
C6    C10   A    
O12   Zn2   S    
C44   C48   A    
C40   C44   A    
C15   H10   S    
C12   O14   A    
C55   H35   S    
C61   H50   S    
C6    N2    A    
C31   C36   A    
C21   O18   A    
C51   H20   S    
C3    N1    A    
C50   H17   S    
C10   H8    S    
