data_mof_unit_53916.cif
_audit_creation_date              2012-12-10T18:28:23-0500
_audit_creation_method            fapswitch 2.2
_symmetry_space_group_name_H-M    P1
_symmetry_Int_Tables_number       1
_space_group_crystal_system       triclinic
_cell_length_a                    23.443845
_cell_length_b                    20.293198
_cell_length_c                    14.983222
_cell_angle_alpha                 90.001645
_cell_angle_beta                  98.851951
_cell_angle_gamma                 89.952608
_cell_volume                      7043.3711927

loop_
_atom_site_label
_atom_site_type_symbol
_atom_type_description
_atom_site_fract_x
_atom_site_fract_y
_atom_site_fract_z
_atom_type_partial_charge
C1    C     C_R   0.576045 0.086359 0.554237 0.865734
C2    C     C_R   0.423815 0.913753 0.445809 0.868336
C3    C     C_R   0.425632 0.088542 0.447203 0.865624
C4    C     C_R   0.575961 0.913568 0.554211 0.866875
C5    C     C_R   0.074348 0.588547 0.552789 0.864886
C6    C     C_R   0.925406 0.411823 0.447064 0.866823
C7    C     C_R   0.925507 0.588327 0.447139 0.864498
C8    C     C_R   0.076191 0.413735 0.554188 0.868721
C9    C     C_R   0.270372 0.257702 0.685756 -0.250784
C10   C     C_R   0.804773 0.827893 0.386932 -0.234211
C11   C     C_R   0.796381 0.178909 0.372995 -0.243349
C12   C     C_R   0.206474 0.819244 0.634467 -0.233365
C13   C     C_R   0.755509 0.736393 0.680652 -0.247673
C14   C     C_R   0.292583 0.318604 0.364184 -0.233644
C15   C     C_R   0.231019 0.755767 0.314731 -0.251458
C16   C     C_R   0.762679 0.253406 0.684157 -0.233626
C17   C     C_R   0.627749 0.988780 0.201952 -0.095013
C18   C     C_R   0.371090 0.008138 0.795962 -0.096989
C19   C     C_R   0.128822 0.504556 0.203652 -0.096324
C20   C     C_R   0.871538 0.490857 0.796382 -0.098266
C21   C     C_R   0.606422 0.991949 0.283435 -0.038927
C22   C     C_R   0.393271 0.004290 0.715298 -0.045447
C23   C     C_R   0.106709 0.503554 0.284458 -0.047147
C24   C     C_R   0.893323 0.496044 0.715624 -0.046291
C25   C     C_R   0.510293 0.005034 0.208537 -0.075881
C26   C     C_R   0.489390 0.999166 0.791804 -0.077569
C27   C     C_R   0.010518 0.496673 0.208338 -0.076602
C28   C     C_R   0.989679 0.500308 0.791605 -0.076582
C29   C     C_R   0.528428 0.003665 0.123504 -0.015655
C30   C     C_R   0.470786 0.004491 0.876181 -0.013692
C31   C     C_R   0.029077 0.497522 0.123681 -0.014470
C32   C     C_R   0.971276 0.497268 0.876287 -0.014501
C33   C     C_R   0.588609 0.996708 0.121039 0.121040
C34   C     C_R   0.410296 0.008925 0.877827 0.120969
C35   C     C_R   0.089554 0.502488 0.121873 0.121712
C36   C     C_R   0.910847 0.491794 0.878095 0.121030
C37   C     C_R   0.488905 0.007877 0.041664 0.095070
C38   C     C_R   0.510301 0.005113 0.957982 0.095769
C39   C     C_R   0.989534 0.494990 0.041777 0.094672
C40   C     C_R   0.010849 0.499227 0.958175 0.095042
C41   C     C_R   0.570587 0.003413 0.958594 -0.247921
C42   C     C_R   0.428792 0.014559 0.040724 -0.246268
C43   C     C_R   0.070950 0.506173 0.959062 -0.246371
C44   C     C_R   0.929356 0.488850 0.040900 -0.244971
C45   C     C_R   0.608646 0.999157 0.038168 -0.214865
C46   C     C_R   0.390572 0.015523 0.960642 -0.216611
C47   C     C_R   0.109213 0.507530 0.038925 -0.217241
C48   C     C_R   0.891058 0.488082 0.961043 -0.215460
C49   C     C_R   0.623076 0.869497 0.590327 -0.056134
C50   C     C_R   0.389479 0.146181 0.421204 -0.058670
C51   C     C_R   0.375019 0.871780 0.409975 -0.059361
C52   C     C_R   0.623988 0.129341 0.590400 -0.057072
C53   C     C_R   0.125137 0.371936 0.590086 -0.058577
C54   C     C_R   0.889673 0.646211 0.422160 -0.059766
C55   C     C_R   0.888753 0.354793 0.421228 -0.060928
C56   C     C_R   0.110436 0.646208 0.578695 -0.058010
C57   C     C_R   0.669892 0.795651 0.705680 -0.210583
C58   C     C_R   0.357429 0.236098 0.319597 -0.206162
C59   C     C_R   0.318354 0.811070 0.288510 -0.212563
C60   C     C_R   0.676476 0.195566 0.710038 -0.207710
C61   C     C_R   0.182753 0.312575 0.712072 -0.212104
C62   C     C_R   0.868762 0.746779 0.336699 -0.206335
C63   C     C_R   0.860780 0.260569 0.325795 -0.207142
C64   C     C_R   0.141516 0.737011 0.679208 -0.205707
C65   C     C_R   0.624806 0.838452 0.674308 -0.196278
C66   C     C_R   0.389225 0.178277 0.338276 -0.192801
C67   C     C_R   0.366838 0.848771 0.320707 -0.196832
C68   C     C_R   0.629551 0.155459 0.677972 -0.193420
C69   C     C_R   0.133895 0.349742 0.679760 -0.196800
C70   C     C_R   0.897479 0.686461 0.348993 -0.192109
C71   C     C_R   0.891722 0.319097 0.342016 -0.196535
C72   C     C_R   0.109933 0.679052 0.660900 -0.191511
C73   C     C_R   0.667905 0.860285 0.540540 -0.266923
C74   C     C_R   0.358593 0.172619 0.485057 -0.261176
C75   C     C_R   0.333855 0.858483 0.465457 -0.266349
C76   C     C_R   0.666448 0.141416 0.537006 -0.265702
C77   C     C_R   0.166011 0.358260 0.534252 -0.266096
C78   C     C_R   0.852578 0.665936 0.481222 -0.256276
C79   C     C_R   0.854730 0.331973 0.483116 -0.259181
C80   C     C_R   0.141947 0.671988 0.515242 -0.260719
C81   C     C_R   0.714006 0.818441 0.571256 0.095563
C82   C     C_R   0.328995 0.232097 0.469805 0.093002
C83   C     C_R   0.284040 0.822857 0.433840 0.094102
C84   C     C_R   0.714621 0.179810 0.568563 0.093055
C85   C     C_R   0.216237 0.323358 0.565997 0.093881
C86   C     C_R   0.827155 0.728112 0.474483 0.095352
C87   C     C_R   0.826760 0.271443 0.471468 0.092565
C88   C     C_R   0.171234 0.731660 0.529960 0.093158
C89   C     C_R   0.713525 0.783827 0.653392 0.182212
C90   C     C_R   0.326618 0.262719 0.384330 0.171816
C91   C     C_R   0.277501 0.796833 0.345029 0.181772
C92   C     C_R   0.718288 0.209271 0.655033 0.177181
C93   C     C_R   0.223423 0.298149 0.655276 0.181313
C94   C     C_R   0.833637 0.767879 0.399058 0.168296
C95   C     C_R   0.828098 0.236656 0.389824 0.181062
C96   C     C_R   0.172812 0.763075 0.614749 0.171790
C97   C     C_R   0.757717 0.805906 0.518184 0.064153
C98   C     C_R   0.298370 0.259080 0.535415 0.074318
C99   C     C_R   0.242985 0.808282 0.491015 0.064752
C100  C     C_R   0.756538 0.193923 0.512860 0.072434
C101  C     C_R   0.257095 0.308671 0.508545 0.064966
C102  C     C_R   0.793452 0.750268 0.539039 0.072648
C103  C     C_R   0.794914 0.246710 0.537000 0.065842
C104  C     C_R   0.202184 0.758195 0.464481 0.074388
C105  C     C_R   0.306904 0.237435 0.626365 -0.240312
C106  C     C_R   0.766264 0.846204 0.444243 -0.222238
C107  C     C_R   0.760559 0.158024 0.433074 -0.230917
C108  C     C_R   0.241999 0.840986 0.574349 -0.224363
C109  C     C_R   0.794253 0.718687 0.623510 -0.234030
C110  C     C_R   0.257381 0.340726 0.424577 -0.224204
C111  C     C_R   0.194318 0.735724 0.373930 -0.239233
C112  C     C_R   0.799821 0.273110 0.625425 -0.224422
H1    H     H_    0.277462 0.239358 0.754529 0.146971
H2    H     H_    0.810794 0.859877 0.331597 0.168099
H3    H     H_    0.797792 0.151130 0.311728 0.137941
H4    H     H_    0.207164 0.844851 0.698077 0.152109
H5    H     H_    0.756666 0.710636 0.744296 0.143085
H6    H     H_    0.291285 0.343596 0.300028 0.152164
H7    H     H_    0.224427 0.736800 0.246279 0.146235
H8    H     H_    0.767121 0.275012 0.751008 0.141060
H9    H     H_    0.590543 0.005572 0.898691 0.140265
H10   H     H_    0.409265 0.019438 0.100799 0.138403
H11   H     H_    0.090538 0.511422 0.899134 0.138470
H12   H     H_    0.909679 0.484448 0.100854 0.138837
H13   H     H_    0.356655 0.145066 0.546015 0.157687
H14   H     H_    0.664728 0.883738 0.475418 0.156087
H15   H     H_    0.660015 0.122735 0.468890 0.160696
H16   H     H_    0.342322 0.874321 0.534852 0.161580
H17   H     H_    0.843870 0.631754 0.532593 0.153943
H18   H     H_    0.157047 0.373286 0.464540 0.162028
H19   H     H_    0.144540 0.643815 0.455010 0.157262
H20   H     H_    0.849795 0.362733 0.540088 0.159701
H21   H     H_    0.413478 0.158858 0.288182 0.158550
H22   H     H_    0.590789 0.846046 0.714639 0.159897
H23   H     H_    0.597392 0.145720 0.720999 0.159766
H24   H     H_    0.397928 0.859454 0.276197 0.160401
H25   H     H_    0.926532 0.672104 0.302789 0.160235
H26   H     H_    0.103019 0.360728 0.724535 0.159590
H27   H     H_    0.085195 0.660157 0.710665 0.159272
H28   H     H_    0.918263 0.335896 0.293440 0.159883
H29   H     H_    0.669728 0.770325 0.769325 0.135518
H30   H     H_    0.356605 0.259733 0.254548 0.132995
H31   H     H_    0.313226 0.792242 0.220055 0.135996
H32   H     H_    0.679415 0.217001 0.776844 0.132286
H33   H     H_    0.188359 0.294382 0.780874 0.136260
H34   H     H_    0.874631 0.777301 0.279453 0.133125
H35   H     H_    0.862721 0.233789 0.263751 0.135788
H36   H     H_    0.141717 0.761249 0.743709 0.133206
H37   H     H_    0.342322 0.205734 0.653679 0.146265
H38   H     H_    0.744894 0.893113 0.430785 0.150531
H39   H     H_    0.737359 0.112658 0.416868 0.138933
H40   H     H_    0.267444 0.884429 0.593865 0.152172
H41   H     H_    0.825342 0.681035 0.647851 0.146660
H42   H     H_    0.231572 0.383895 0.404711 0.152501
H43   H     H_    0.159266 0.703560 0.346725 0.145534
H44   H     H_    0.832858 0.308111 0.651572 0.150956
H45   H     H_    0.654284 0.998128 0.033741 0.164840
H46   H     H_    0.345161 0.021487 0.964607 0.161407
H47   H     H_    0.154543 0.513830 0.034680 0.161571
H48   H     H_    0.845485 0.484695 0.965290 0.160956
H49   H     H_    0.533760 0.994631 0.782703 0.132216
H50   H     H_    0.465985 0.009526 0.218107 0.130942
H51   H     H_    0.034131 0.502086 0.782164 0.131183
H52   H     H_    0.966066 0.494506 0.217677 0.132631
H53   H     H_    0.364687 0.004569 0.651215 0.139748
H54   H     H_    0.635189 0.986454 0.346843 0.131413
H55   H     H_    0.864625 0.494965 0.651671 0.141208
H56   H     H_    0.135316 0.505375 0.348464 0.139799
N1    N     N_R   0.549130 0.000000 0.284090 -0.105153
N2    N     N_R   0.450870 0.000000 0.715910 -0.106928
N3    N     N_R   0.049130 0.500000 0.284090 -0.106976
N4    N     N_R   0.950870 0.500000 0.715910 -0.106923
O1    O     O_R   0.541320 0.066090 0.608930 -0.616137
O2    O     O_R   0.458680 0.933910 0.391070 -0.613398
O3    O     O_R   0.458680 0.066090 0.391070 -0.617475
O4    O     O_R   0.541320 0.933910 0.608930 -0.616891
O5    O     O_R   0.041320 0.566090 0.608930 -0.616630
O6    O     O_R   0.958680 0.433910 0.391070 -0.616300
O7    O     O_R   0.958680 0.566090 0.391070 -0.615618
O8    O     O_R   0.041320 0.433910 0.608930 -0.615106
O9    O     O_R   0.572880 0.066110 0.470280 -0.618061
O10   O     O_R   0.427120 0.933890 0.529720 -0.618256
O11   O     O_R   0.427120 0.066110 0.529720 -0.621569
O12   O     O_R   0.572880 0.933890 0.470280 -0.619744
O13   O     O_R   0.072880 0.566110 0.470280 -0.622524
O14   O     O_R   0.927120 0.433890 0.529720 -0.619800
O15   O     O_R   0.927120 0.566110 0.529720 -0.617572
O16   O     O_R   0.072880 0.433890 0.470280 -0.617895
Zn1   Zn    Zn3+2 0.478910 0.000000 0.592580 0.936129
Zn2   Zn    Zn3+2 0.521090 0.000000 0.407420 0.938739
Zn3   Zn    Zn3+2 0.978910 0.500000 0.592580 0.937031
Zn4   Zn    Zn3+2 0.021090 0.500000 0.407420 0.935617
C113  C     C_R   0.689853 0.974560 0.202930 0.104413
C114  C     C_R   0.731915 0.019755 0.240909 -0.170672
C115  C     C_R   0.790325 0.007664 0.237663 -0.130618
C116  C     C_R   0.806952 0.950674 0.196034 -0.132474
C117  C     C_R   0.765328 0.904988 0.159133 -0.157899
C118  C     C_R   0.706999 0.916537 0.163167 -0.149111
H57   H     H_    0.719210 0.064816 0.270972 0.122211
H58   H     H_    0.822764 0.042620 0.266652 0.126769
H59   H     H_    0.852131 0.941562 0.193198 0.126188
H60   H     H_    0.778294 0.860538 0.127704 0.132067
H61   H     H_    0.675083 0.880917 0.134037 0.134580
C119  C     C_R   0.307595 0.011364 0.791412 0.106636
C120  C     C_R   0.276543 0.064576 0.747960 -0.162294
C121  C     C_R   0.216445 0.066948 0.741287 -0.129767
C122  C     C_R   0.186950 0.015982 0.777249 -0.102395
C123  C     C_R   0.217520 0.962550 0.819831 -0.153558
C124  C     C_R   0.277644 0.960006 0.826631 -0.170775
H62   H     H_    0.298926 0.104147 0.719504 0.125629
H63   H     H_    0.192757 0.108226 0.708071 0.137241
H64   H     H_    0.140408 0.017794 0.771894 0.125833
H65   H     H_    0.194596 0.922934 0.847175 0.125256
H66   H     H_    0.300837 0.918043 0.858923 0.133418
C125  C     C_R   0.192307 0.508139 0.207927 0.107397
C126  C     C_R   0.222926 0.562397 0.249113 -0.161661
C127  C     C_R   0.282973 0.565302 0.255251 -0.130502
C128  C     C_R   0.312861 0.513883 0.220932 -0.101400
C129  C     C_R   0.282743 0.459448 0.180583 -0.153365
C130  C     C_R   0.222679 0.456313 0.174449 -0.172562
H67   H     H_    0.200240 0.602407 0.276141 0.124357
H68   H     H_    0.306311 0.607375 0.286716 0.136287
H69   H     H_    0.359360 0.516134 0.225813 0.124935
H70   H     H_    0.305976 0.419505 0.154478 0.124709
H71   H     H_    0.199857 0.413573 0.143924 0.133415
C131  C     C_R   0.808428 0.482922 0.792007 0.109636
C132  C     C_R   0.770881 0.533897 0.757410 -0.159961
C133  C     C_R   0.711155 0.525616 0.750306 -0.134150
C134  C     C_R   0.688597 0.466268 0.776900 -0.099371
C135  C     C_R   0.725733 0.415087 0.810563 -0.134380
C136  C     C_R   0.785497 0.423232 0.817946 -0.171206
H72   H     H_    0.787894 0.579911 0.736098 0.121778
H73   H     H_    0.682371 0.565128 0.723910 0.131637
H74   H     H_    0.642349 0.459862 0.771145 0.124517
H75   H     H_    0.708202 0.369019 0.830600 0.122656
H76   H     H_    0.813886 0.383054 0.843292 0.127145

loop_
_geom_bond_atom_site_label_1
_geom_bond_atom_site_label_2
_ccdc_geom_bond_type
C88   C96   A    
C123  H65   S    
O5    Zn3   S    
C29   C33   A    
C33   C45   A    
C5    C56   S    
C17   C113  S    
C5    O13   A    
C6    C55   S    
C23   N3    A    
C53   C69   A    
C76   C84   A    
O3    Zn2   S    
C79   C87   A    
C128  C129  A    
C20   C131  S    
C128  H69   S    
C47   H47   S    
C120  C121  A    
C8    O16   A    
C99   C108  A    
C48   H48   S    
N2    Zn1   S    
C1    O1    A    
C134  C135  A    
C98   C105  A    
C57   C89   A    
C106  H38   S    
C32   C36   A    
C7    O15   A    
C78   H17   S    
C51   C75   A    
C62   H34   S    
C50   C74   A    
C42   C46   A    
C27   H52   S    
C61   C93   A    
C74   H13   S    
C10   C94   A    
C9    C105  A    
C73   H14   S    
C46   H46   S    
C63   C95   A    
O14   Zn3   S    
C55   C79   A    
C62   C70   A    
C75   H16   S    
C2    O10   A    
C41   H9    S    
C37   C42   A    
C61   H33   S    
C126  H67   S    
C14   C90   A    
C13   C109  A    
C86   C94   A    
C77   C85   A    
C59   C67   A    
C129  H70   S    
C108  H40   S    
C22   H53   S    
C85   C93   A    
C121  H63   S    
C28   N4    A    
C72   H27   S    
O7    Zn4   S    
C114  H57   S    
C15   H7    S    
C123  C124  A    
C56   C72   A    
C87   C95   A    
C119  C124  A    
C130  H71   S    
C116  H59   S    
C36   C48   A    
C136  H76   S    
C34   C46   A    
O10   Zn1   S    
C109  H41   S    
O15   Zn3   S    
C65   H22   S    
C10   H2    S    
C23   H56   S    
C107  H39   S    
C78   C86   A    
C64   C72   A    
C132  H72   S    
C59   H31   S    
C80   H19   S    
C83   C99   A    
C6    O6    A    
C82   C98   A    
C117  C118  A    
C17   C33   A    
N1    Zn2   S    
C74   C82   A    
O11   Zn1   S    
C63   H35   S    
C133  C134  A    
C88   C104  A    
C3    C50   S    
C58   C66   A    
C60   C92   A    
N4    Zn3   S    
C25   C29   A    
C30   C34   A    
C27   C31   A    
C122  C123  A    
C84   C100  A    
C15   C111  A    
C28   C32   A    
C24   H55   S    
C45   H45   S    
C126  C127  A    
C64   C96   A    
C38   C41   A    
C57   C65   A    
C129  C130  A    
C12   C108  A    
C1    O9    A    
C121  C122  A    
C51   C67   A    
C14   H6    S    
C101  C110  A    
C44   H12   S    
C100  C103  A    
C17   C21   A    
C21   H54   S    
O12   Zn2   S    
C103  C112  A    
C113  C114  A    
C19   C23   A    
C125  C126  A    
C37   C38   A    
C110  H42   S    
C11   H3    S    
C66   H21   S    
O6    Zn4   S    
O9    Zn2   S    
C8    O8    A    
C132  C133  A    
C54   C70   A    
C16   C112  A    
C25   H50   S    
C40   C43   A    
C7    C54   S    
C7    O7    A    
C135  H75   S    
C59   C91   A    
C4    O12   A    
C58   C90   A    
C5    O5    A    
C133  H73   S    
C22   N2    A    
C49   C65   A    
C73   C81   A    
C87   C103  A    
C97   C106  A    
C114  C115  A    
C3    O3    A    
O2    Zn2   S    
C134  H74   S    
C43   C47   A    
C62   C94   A    
C112  H44   S    
C53   C77   A    
C49   C73   A    
C10   C106  A    
C131  C136  A    
C43   H11   S    
C83   C91   A    
C86   C102  A    
C9    C93   A    
C39   C40   A    
C85   C101  A    
C42   H10   S    
O13   Zn4   S    
C115  H58   S    
C25   N1    A    
C69   H26   S    
C14   C110  A    
C127  H68   S    
C100  C107  A    
C71   H28   S    
C58   H30   S    
C13   C89   A    
C18   C22   A    
C68   H23   S    
C97   C102  A    
C63   C71   A    
C116  C117  A    
C52   C76   A    
O8    Zn3   S    
C52   C68   A    
C8    C53   S    
C104  C111  A    
C13   H5    S    
C50   C66   A    
C16   C92   A    
C39   C44   A    
C57   H29   S    
C98   C101  A    
C105  H37   S    
C6    O14   A    
C26   H49   S    
C67   H24   S    
C124  H66   S    
C82   C90   A    
C117  H60   S    
C4    C49   S    
O16   Zn4   S    
C60   C68   A    
C61   C69   A    
C16   H8    S    
C56   C80   A    
C127  C128  A    
C81   C89   A    
C80   C88   A    
C19   C35   A    
C125  C130  A    
C60   H32   S    
C11   C107  A    
C75   C83   A    
O4    Zn1   S    
C122  H64   S    
C111  H43   S    
C120  H62   S    
C18   C34   A    
C21   N1    A    
C79   H20   S    
C31   C35   A    
O1    Zn1   S    
C81   C97   A    
C31   C39   A    
N3    Zn4   S    
C99   C104  A    
C19   C125  S    
C77   H18   S    
C32   C40   A    
C135  C136  A    
C24   N4    A    
C1    C52   S    
C55   C71   A    
C9    H1    S    
C2    C51   S    
C2    O2    A    
C15   C91   A    
C115  C116  A    
C20   C36   A    
C44   C48   A    
C11   C95   A    
C119  C120  A    
C26   N2    A    
C70   H25   S    
C131  C132  A    
C4    O4    A    
C29   C37   A    
C118  H61   S    
C76   H15   S    
C41   C45   A    
C12   C96   A    
C102  C109  A    
C18   C119  S    
C84   C92   A    
C30   C38   A    
C54   C78   A    
C35   C47   A    
C27   N3    A    
C3    O11   A    
C20   C24   A    
C64   H36   S    
C113  C118  A    
C28   H51   S    
C12   H4    S    
C26   C30   A    
