data_mof_unit_40622.cif
_audit_creation_date              2012-12-10T17:00:00-0500
_audit_creation_method            fapswitch 2.2
_symmetry_space_group_name_H-M    P1
_symmetry_Int_Tables_number       1
_space_group_crystal_system       triclinic
_cell_length_a                    23.575352
_cell_length_b                    10.923777
_cell_length_c                    9.68373
_cell_angle_alpha                 88.75861
_cell_angle_beta                  90.02965
_cell_angle_gamma                 90.096424
_cell_volume                      2493.28012376

loop_
_atom_site_label
_atom_site_type_symbol
_atom_type_description
_atom_site_fract_x
_atom_site_fract_y
_atom_site_fract_z
_atom_type_partial_charge
C1    C     C_R   0.504476 0.265084 0.501463 0.825887
C2    C     C_R   0.970046 0.299781 0.615458 -0.230941
C3    C     C_R   0.029264 0.295078 0.608883 0.241137
C4    C     C_R   0.060028 0.396318 0.552781 -0.038166
C5    C     C_R   0.030263 0.501835 0.505487 -0.098861
C6    C     C_R   0.060205 0.605741 0.453838 -0.076163
C7    C     C_R   0.029801 0.706199 0.393722 0.271104
C8    C     C_R   0.970141 0.705581 0.400924 -0.193254
C9    C     C_R   0.119657 0.396596 0.542979 0.552299
C10   C     C_R   0.119853 0.605715 0.466213 0.536764
C11   C     C_R   0.238756 0.508936 0.378447 -0.005944
C12   C     C_R   0.390981 0.499957 0.500126 0.830280
C13   C     C_R   0.297940 0.507738 0.377148 -0.236290
C14   C     C_R   0.328498 0.499896 0.501155 -0.103401
C15   C     C_R   0.299099 0.492831 0.627014 -0.221313
C16   C     C_R   0.239706 0.491988 0.630554 0.294842
C17   C     C_R   0.209146 0.501248 0.504895 0.241020
C18   C     C_R   0.759863 0.500864 0.633222 -0.094553
C19   C     C_R   0.700808 0.499605 0.627561 -0.210527
C20   C     C_R   0.672176 0.501780 0.499742 -0.096447
C21   C     C_R   0.704761 0.505288 0.376155 -0.056701
C22   C     C_R   0.763928 0.505916 0.383616 -0.138662
C23   C     C_R   0.500113 0.734369 0.498151 0.850235
C24   C     C_R   0.791581 0.504053 0.511354 0.332811
C25   C     C_2   0.535228 0.930786 0.410121 0.235071
C26   C     C_2   0.498735 0.866085 0.490415 -0.362082
C27   C     C_2   0.526725 0.064342 0.395746 -0.065709
C28   C     C_2   0.518153 0.133783 0.509031 -0.276261
C29   C     C_2   0.468894 0.426226 0.923192 -0.079875
C30   C     C_2   0.466039 0.431609 0.078513 0.057929
C31   C     C_R   0.609211 0.500622 0.499666 0.783070
C32   C     C_R   0.880956 0.605567 0.464326 0.548673
C33   C     C_R   0.880798 0.405035 0.566863 0.552303
C34   C     C_R   0.940323 0.402074 0.564884 -0.039007
C35   C     C_R   0.970403 0.503334 0.509830 -0.020097
C36   C     C_R   0.940494 0.606082 0.459282 -0.058963
Cu1   Cu    Cu3+1 0.500010 0.500020 0.638630 0.967256
Cu2   Cu    Cu3+1 0.499990 0.499980 0.361370 0.973645
H1    H     H_    0.947424 0.221944 0.659785 0.191596
H2    H     H_    0.677583 0.497084 0.724037 0.181474
H3    H     H_    0.788968 0.507923 0.289660 0.146061
H4    H     H_    0.464027 0.910468 0.543408 0.133492
H5    H     H_    0.442774 0.358827 0.872198 0.156816
H6    H     H_    0.521954 0.567141 0.892725 0.200328
H7    H     H_    0.530919 0.548260 0.104910 0.197712
H8    H     H_    0.946133 0.781206 0.357391 0.196092
H9    H     H_    0.320083 0.513952 0.279140 0.172441
H10   H     H_    0.322390 0.489040 0.723377 0.169360
H11   H     H_    0.781032 0.499771 0.732511 0.152351
N1    N     N_R   0.852422 0.505553 0.516267 -0.463370
N2    N     N_R   0.148015 0.501224 0.505055 -0.475133
N3    N     N_2   0.499380 0.498660 0.846910 -0.280978
N4    N     N_2   0.499370 0.498630 0.153040 -0.302829
O1    O     O_R   0.500010 0.321960 0.617040 -0.567060
O2    O     O_2   0.851478 0.307491 0.616689 -0.533022
O3    O     O_2   0.149473 0.293872 0.571195 -0.512640
O4    O     O_2   0.149797 0.709477 0.442999 -0.520814
O5    O     O_R   0.499990 0.321920 0.382900 -0.561709
O6    O     O_R   0.417890 0.499980 0.617100 -0.584700
O7    O     O_R   0.417870 0.499940 0.382950 -0.576220
O8    O     O_R   0.500010 0.678080 0.617100 -0.568829
O9    O     O_R   0.499990 0.678040 0.382960 -0.572511
O10   O     O_R   0.582130 0.500060 0.617050 -0.572434
O11   O     O_R   0.582110 0.500020 0.382900 -0.571522
O12   O     O_2   0.851712 0.704250 0.417692 -0.536224
C37   C     C_1   0.679667 0.508895 0.239956 0.287922
N5    N     N_1   0.659764 0.511834 0.130635 -0.294653
N6    N     N_2   0.583952 0.874879 0.349486 -0.408779
H12   H     H_    0.600169 0.801279 0.405120 0.249622
C38   C     C_3   0.580817 0.852888 0.202733 -0.594922
H13   H     H_    0.616158 0.791972 0.172299 0.220851
H14   H     H_    0.585583 0.939744 0.142793 0.241422
H15   H     H_    0.540070 0.808166 0.175685 0.229502
C39   C     C_1   0.525510 0.114848 0.256246 0.327135
N7    N     N_1   0.524764 0.154566 0.144466 -0.274642
C40   C     C_1   0.528366 0.083336 0.647322 0.285414
N8    N     N_1   0.536510 0.043572 0.757310 -0.258366
C41   C     C_1   0.424065 0.354367 0.144743 0.335186
N9    N     N_1   0.390294 0.291835 0.196981 -0.301031
N10   N     N_2   0.057368 0.190502 0.665933 -0.388334
H16   H     H_    0.043323 0.166769 0.763808 0.244225
C42   C     C_3   0.058075 0.086402 0.576273 -0.549016
H17   H     H_    0.014400 0.050053 0.563310 0.191185
H18   H     H_    0.084980 0.013082 0.622805 0.244579
H19   H     H_    0.075997 0.112691 0.473688 0.250251
N11   N     N_2   0.059464 0.801187 0.318392 -0.376862
H20   H     H_    0.089239 0.768788 0.250306 0.289474
C43   C     C_3   0.029223 0.906777 0.263394 -0.688828
H21   H     H_    0.000533 0.879182 0.178453 0.225773
H22   H     H_    0.060143 0.974653 0.221257 0.239204
H23   H     H_    0.004696 0.951453 0.345915 0.230336
C44   C     C_1   0.208697 0.519127 0.248917 0.286102
N12   N     N_1   0.184327 0.528212 0.145504 -0.294783
N13   N     N_2   0.211253 0.486087 0.760686 -0.418901
H24   H     H_    0.169032 0.510316 0.759839 0.263934
C45   C     C_3   0.223301 0.378620 0.845965 -0.594961
H25   H     H_    0.194497 0.375645 0.936475 0.238514
H26   H     H_    0.267590 0.381210 0.884644 0.214559
H27   H     H_    0.216596 0.293855 0.786804 0.260049

loop_
_geom_bond_atom_site_label_1
_geom_bond_atom_site_label_2
_ccdc_geom_bond_type
C33   O2    S    
C21   C37   S    
C35   C36   A    
C9    N2    A    
C17   N2    S    
C7    C8    A    
Cu1   Cu2   S    
C18   C24   A    
C32   C36   A    
C18   C19   A    
C5    C6    A    
N11   C43   S    
C22   H3    S    
C7    N11   S    
C3    N10   S    
C15   C16   A    
C45   H27   S    
C34   C35   A    
C8    C36   A    
C23   C26   S    
Cu2   O5    S    
C12   O6    A    
C11   C44   S    
C23   O9    A    
C19   C20   A    
N6    H12   S    
C45   H26   S    
C1    C28   S    
C38   H13   S    
C27   C39   S    
C2    C34   A    
C37   N5    T    
H7    N4    S    
C21   C22   A    
C29   H5    S    
C25   N6    S    
C15   H10   S    
C10   N2    A    
C2    H1    S    
Cu1   O10   S    
Cu2   O11   S    
C24   N1    S    
C30   N4    D    
C39   N7    T    
C31   O10   A    
C10   O4    S    
C40   N8    T    
N10   C42   S    
C13   H9    S    
Cu1   N3    S    
C41   N9    T    
C4    C5    A    
C33   N1    A    
C30   C41   S    
C1    O1    A    
C29   C30   S    
C43   H23   S    
C45   H25   S    
C38   H15   S    
C33   C34   A    
C9    O3    S    
C20   C21   A    
N13   C45   S    
C32   N1    A    
Cu1   O6    S    
Cu2   O7    S    
Cu1   O1    S    
C43   H22   S    
C42   H18   S    
C22   C24   A    
C3    C4    A    
C28   C40   S    
C26   H4    S    
C11   C17   A    
N11   H20   S    
C31   O11   A    
C12   C14   S    
N10   H16   S    
C6    C10   A    
Cu1   O8    S    
C6    C7    A    
C25   C27   S    
C42   H19   S    
C16   N13   S    
C2    C3    A    
C25   C26   D    
C1    O5    A    
C11   C13   A    
H6    N3    S    
C16   C17   A    
Cu2   N4    S    
C5    C35   A    
C44   N12   T    
N13   H24   S    
C8    H8    S    
C19   H2    S    
C12   O7    A    
C23   O8    A    
C43   H21   S    
N6    C38   S    
C42   H17   S    
C27   C28   D    
C14   C15   A    
C38   H14   S    
C4    C9    A    
C13   C14   A    
C20   C31   S    
C18   H11   S    
C32   O12   S    
Cu2   O9    S    
C29   N3    D    
