data_mof_unit_29839.cif
_audit_creation_date              2012-12-10T17:36:46-0500
_audit_creation_method            fapswitch 2.2
_symmetry_space_group_name_H-M    P1
_symmetry_Int_Tables_number       1
_space_group_crystal_system       triclinic
_cell_length_a                    10.576287
_cell_length_b                    12.375122
_cell_length_c                    13.206754
_cell_angle_alpha                 116.913606
_cell_angle_beta                  76.345804
_cell_angle_gamma                 100.014409
_cell_volume                      1493.26911822

loop_
_atom_site_label
_atom_site_type_symbol
_atom_type_description
_atom_site_fract_x
_atom_site_fract_y
_atom_site_fract_z
_atom_type_partial_charge
C1    C     C_R   0.510856 0.855120 0.286677 0.787304
C2    C     C_3   0.018809 0.033577 0.605532 -0.191026
C3    C     C_3   0.932362 0.919798 0.539971 -0.120199
C4    C     C_3   0.876493 0.996436 0.499131 0.023022
C5    C     C_R   0.344493 0.276940 0.030228 -0.208463
C6    C     C_R   0.460213 0.228477 0.836411 -0.047062
C7    C     C_R   0.591499 0.812918 0.082153 -0.176412
C8    C     C_R   0.618733 0.732948 0.965170 0.206797
C9    C     C_R   0.575903 0.609997 0.931107 -0.245595
C10   C     C_R   0.500024 0.565815 0.010814 0.067624
C11   C     C_R   0.460217 0.650902 0.125568 0.033978
C12   C     C_R   0.739941 0.998655 0.499565 0.794515
C13   C     C_R   0.461456 0.440263 0.979989 0.066870
C14   C     C_R   0.377879 0.402489 0.062152 0.094019
C15   C     C_R   0.325931 0.490297 0.172427 0.121015
C16   C     C_R   0.364184 0.613259 0.199918 -0.175942
C17   C     C_R   0.504299 0.350481 0.869151 -0.238547
C18   C     C_R   0.384054 0.191229 0.918235 -0.193865
C19   C     C_R   0.516358 0.772678 0.163074 -0.135242
C20   C     C_R   0.702534 0.328434 0.309444 0.076479
C21   C     C_R   0.349597 0.776394 0.665822 0.080111
C22   C     C_R   0.361556 0.710665 0.724426 -0.258165
C23   C     C_R   0.482451 0.144987 0.713588 0.780469
C24   C     C_R   0.441017 0.614033 0.669274 -0.175342
C25   C     C_R   0.494491 0.571629 0.550853 0.013704
C26   C     C_R   0.501738 0.655449 0.504339 0.208404
C27   C     C_R   0.552708 0.456896 0.481662 -0.118494
C28   C     C_R   0.647085 0.443276 0.379849 0.018143
C29   C     C_R   0.678520 0.545249 0.353221 0.304880
C30   C     C_R   0.601594 0.643965 0.410083 -0.217062
C31   C     C_R   0.510089 0.351544 0.503313 0.294692
C32   C     C_R   0.669807 0.235902 0.346585 -0.017505
C33   C     C_R   0.260174 0.999709 0.498267 0.771424
C34   C     C_3   0.980652 0.961427 0.389622 -0.163480
C35   C     C_3   0.039324 0.885247 0.430452 -0.120095
C36   C     C_3   0.123434 0.999077 0.496065 0.016132
C37   C     C_3   0.067139 0.074944 0.454802 -0.154665
C38   C     C_3   0.960649 0.109996 0.564534 -0.162921
Cu1   Cu    Cu3+1 0.529830 0.098270 0.475420 0.914446
Cu2   Cu    Cu3+1 0.470170 0.901730 0.524580 0.918331
H1    H     H_    0.075140 0.793988 0.374120 0.147277
H2    H     H_    0.570759 0.372551 0.804719 0.147585
H3    H     H_    0.631806 0.906287 0.111774 0.160669
H4    H     H_    0.601873 0.552064 0.840542 0.114276
H5    H     H_    0.316161 0.681006 0.279114 0.179307
H6    H     H_    0.713768 0.150050 0.297213 0.133488
H7    H     H_    0.294517 0.856020 0.710692 0.121559
H8    H     H_    0.961466 0.931596 0.301342 0.137617
H9    H     H_    0.468518 0.579865 0.722210 0.131090
H10   H     H_    0.316340 0.739102 0.814214 0.147823
H11   H     H_    0.631786 0.715667 0.384205 0.237799
H12   H     H_    0.122781 0.134817 0.415302 0.141815
H13   H     H_    0.925428 0.201947 0.619588 0.134963
H14   H     H_    0.037688 0.063361 0.693905 0.128374
H15   H     H_    0.874249 0.856194 0.574700 0.148642
H16   H     H_    0.350349 0.096546 0.894616 0.144131
H17   H     H_    0.283650 0.243270 0.089641 0.126051
N1    N     N_R   0.575030 0.246270 0.438190 -0.209016
N2    N     N_R   0.425760 0.754330 0.561190 -0.205554
O1    O     O_R   0.537510 0.972500 0.318130 -0.584500
O2    O     O_R   0.487140 0.806530 0.359650 -0.600478
O3    O     O_R   0.708330 0.082950 0.479220 -0.581509
O4    O     O_R   0.657960 0.916980 0.520740 -0.591424
O5    O     O_R   0.512860 0.193470 0.640350 -0.607928
O6    O     O_R   0.462490 0.027500 0.681870 -0.583913
O7    O     O_R   0.342040 0.083020 0.479260 -0.591124
O8    O     O_R   0.291670 0.917050 0.520780 -0.590526
C39   C     C_3   0.698323 0.772054 0.873586 -0.401813
C40   C     C_3   0.733915 0.908736 0.914173 -0.858012
H18   H     H_    0.644493 0.959236 0.952558 0.254476
H19   H     H_    0.800184 0.942038 0.977906 0.242664
H20   H     H_    0.785552 0.926855 0.839122 0.245232
H21   H     H_    0.789887 0.724659 0.836371 0.203375
H22   H     H_    0.642154 0.741962 0.802947 0.209655
Cl1   Cl    Cl    0.818922 0.566521 0.258702 -0.706842
C41   C     C_3   0.784872 0.292155 0.189322 -0.362116
C42   C     C_3   0.705065 0.282168 0.102214 -0.728092
H23   H     H_    0.624321 0.209771 0.094496 0.226317
H24   H     H_    0.662309 0.368596 0.128186 0.283045
H25   H     H_    0.768654 0.257905 0.016235 0.235785
H26   H     H_    0.875482 0.351986 0.189685 0.255144
H27   H     H_    0.821606 0.201142 0.156412 0.157631
C43   C     C_3   0.379061 0.348152 0.582219 -0.312549
C44   C     C_3   0.264927 0.355104 0.533164 -0.854647
H28   H     H_    0.259688 0.448366 0.543781 0.262223
H29   H     H_    0.276085 0.292972 0.439759 0.245356
H30   H     H_    0.171637 0.329446 0.579624 0.236631
H31   H     H_    0.359927 0.269695 0.599665 0.251490
H32   H     H_    0.373125 0.414232 0.672367 0.153462
C45   C     C_3   0.230448 0.450687 0.258593 -0.404819
C46   C     C_3   0.174911 0.551518 0.374069 -0.814254
H33   H     H_    0.254359 0.609035 0.420460 0.259888
H34   H     H_    0.115541 0.607590 0.360297 0.264875
H35   H     H_    0.110388 0.510214 0.428978 0.239979
H36   H     H_    0.146019 0.395616 0.217703 0.208488
H37   H     H_    0.280791 0.392391 0.278082 0.198659

loop_
_geom_bond_atom_site_label_1
_geom_bond_atom_site_label_2
_ccdc_geom_bond_type
C30   H11   S    
C34   C37   S    
C35   C36   S    
C44   H30   S    
C32   N1    A    
C7    C8    A    
C42   H23   S    
Cu1   O5    S    
C11   C19   A    
C29   C30   A    
Cu2   O4    S    
C31   N1    A    
C28   C29   A    
C44   H29   S    
C21   N2    A    
C46   H35   S    
Cu1   O1    S    
C39   H22   S    
C15   C16   A    
C33   C36   S    
C31   C43   S    
C20   C41   S    
C34   C35   S    
C40   H19   S    
C17   H2    S    
C3    H15   S    
C8    C9    A    
Cu2   O8    S    
C24   C25   A    
C7    H3    S    
C4    C12   S    
C26   N2    A    
C18   H16   S    
C22   H10   S    
C43   H31   S    
Cu2   N2    S    
C21   C22   A    
C6    C18   A    
C9    C10   A    
C33   O7    A    
C42   H24   S    
C43   H32   S    
C4    C34   S    
C1    C19   S    
C27   C31   A    
C45   H36   S    
C44   H28   S    
C2    H14   S    
C1    O1    A    
C41   H27   S    
Cu1   Cu2   S    
C37   H12   S    
C39   C40   S    
C5    C18   A    
C20   C28   A    
C39   H21   S    
Cu1   N1    S    
Cu2   O2    S    
C16   H5    S    
C40   H20   S    
C37   C38   S    
C46   H34   S    
C12   O3    A    
C11   C16   A    
C2    C38   S    
C43   C44   S    
C3    C35   S    
C41   C42   S    
C5    C14   A    
C23   O5    A    
C4    C38   S    
C8    C39   S    
C7    C19   A    
Cu2   O6    S    
Cu1   O7    S    
C22   C24   A    
C34   H8    S    
C3    C4    S    
C46   H33   S    
C33   O8    A    
C20   C32   A    
C42   H25   S    
C2    C36   S    
C24   H9    S    
C12   O4    A    
C6    C17   A    
C36   C37   S    
C9    H4    S    
C32   H6    S    
C10   C13   A    
C1    O2    A    
C41   H26   S    
C45   H37   S    
C29   Cl1   S    
C5    H17   S    
C25   C27   A    
C13   C17   A    
C23   O6    A    
C2    C3    S    
C25   C26   A    
C15   C45   S    
C45   C46   S    
C38   H13   S    
C6    C23   S    
C40   H18   S    
C35   H1    S    
C10   C11   A    
C27   C28   A    
Cu1   O3    S    
C14   C15   A    
C13   C14   A    
C21   H7    S    
C26   C30   A    
