data_mof_unit_53695.cif
_audit_creation_date              2012-12-10T17:49:36-0500
_audit_creation_method            fapswitch 2.2
_symmetry_space_group_name_H-M    P1
_symmetry_Int_Tables_number       1
_space_group_crystal_system       triclinic
_cell_length_a                    14.710388
_cell_length_b                    14.714847
_cell_length_c                    15.872323
_cell_angle_alpha                 76.972782
_cell_angle_beta                  102.696252
_cell_angle_gamma                 114.802149
_cell_volume                      3007.95125178

loop_
_atom_site_label
_atom_site_type_symbol
_atom_type_description
_atom_site_fract_x
_atom_site_fract_y
_atom_site_fract_z
_atom_type_partial_charge
C1    C     C_R   0.880351 0.312342 0.513856 0.791810
C2    C     C_3   0.040233 0.421037 0.073078 -0.374909
C3    C     C_3   0.000523 0.499866 0.082907 0.327080
C4    C     C_3   0.069045 0.605787 0.040726 -0.378838
C5    C     C_3   0.068405 0.605920 0.942930 -0.374285
C6    C     C_1   0.001006 0.499772 0.175213 -0.115143
C7    C     C_1   0.998974 0.500188 0.824796 -0.115145
C8    C     C_1   0.999000 0.500181 0.749208 -0.179883
C9    C     C_R   0.812677 0.205107 0.515958 -0.051373
C10   C     C_R   0.187318 0.795247 0.473678 -0.050899
C11   C     C_R   0.783005 0.030261 0.517534 -0.202123
C12   C     C_R   0.999661 0.500025 0.659655 0.830021
C13   C     C_R   0.849952 0.130130 0.522597 -0.198801
C14   C     C_R   0.708290 0.178991 0.505679 -0.250772
C15   C     C_R   0.639067 0.079919 0.496154 0.089254
C16   C     C_R   0.678152 0.004681 0.504099 0.163007
C17   C     C_R   0.532508 0.053570 0.479840 0.063741
C18   C     C_R   0.466389 0.949963 0.480102 0.064415
C19   C     C_R   0.508607 0.877567 0.486729 -0.223153
C20   C     C_R   0.612420 0.904829 0.497987 -0.231608
C21   C     C_R   0.489892 0.127469 0.461240 -0.223943
C22   C     C_R   0.386021 0.100346 0.448017 -0.230310
C23   C     C_R   0.119669 0.687680 0.485000 0.793121
C24   C     C_R   0.320677 0.998896 0.454528 0.164552
C25   C     C_R   0.360075 0.922540 0.472019 0.088131
C26   C     C_R   0.215954 0.972960 0.444200 -0.201620
C27   C     C_R   0.149555 0.871692 0.453073 -0.199112
C28   C     C_R   0.291681 0.821097 0.483441 -0.256504
C29   C     C_R   0.718025 0.671943 0.358969 -0.326062
C30   C     C_R   0.798591 0.641007 0.380470 0.077400
C31   C     C_R   0.713862 0.507906 0.486953 0.006835
C32   C     C_R   0.628697 0.535078 0.467773 -0.022300
C33   C     C_R   0.633219 0.619791 0.402657 0.166232
C34   C     C_R   0.000335 0.499968 0.340346 0.830092
C35   C     C_R   0.540652 0.482658 0.511077 0.075942
C36   C     C_R   0.459227 0.517162 0.488805 0.079216
C37   C     C_R   0.468749 0.602959 0.424265 -0.242028
C38   C     C_R   0.553748 0.652650 0.382026 -0.207904
C39   C     C_R   0.531169 0.396919 0.575683 -0.239942
C40   C     C_R   0.446393 0.347554 0.618235 -0.199215
C41   C     C_R   0.366924 0.380409 0.597602 0.164850
C42   C     C_R   0.371226 0.464802 0.532174 -0.023157
C43   C     C_R   0.282336 0.328560 0.641599 -0.323107
C44   C     C_R   0.201708 0.359401 0.620023 0.077205
C45   C     C_3   0.039596 0.421161 0.975282 -0.377335
C46   C     C_R   0.285956 0.491807 0.512857 0.007739
C47   C     C_3   0.891016 0.473044 0.935113 -0.376968
C48   C     C_3   0.891647 0.472913 0.032908 -0.373801
C49   C     C_1   0.000987 0.499793 0.250798 -0.178995
C50   C     C_3   0.999454 0.500086 0.917104 0.327527
Cu1   Cu    Cu3+1 0.081750 0.475690 0.522550 0.935346
Cu2   Cu    Cu3+1 0.918250 0.524310 0.477450 0.935668
H1    H     H_    0.992104 0.344106 0.102812 0.161902
H2    H     H_    0.117626 0.439006 0.963644 0.163629
H3    H     H_    0.118564 0.438843 0.108349 0.163661
H4    H     H_    0.041983 0.663903 0.046829 0.161276
H5    H     H_    0.641427 0.846985 0.502380 0.152091
H6    H     H_    0.318100 0.760464 0.502539 0.151203
H7    H     H_    0.069033 0.853334 0.445009 0.151885
H8    H     H_    0.356696 0.159427 0.433728 0.148728
H9    H     H_    0.813192 0.973131 0.522985 0.133386
H10   H     H_    0.930527 0.148777 0.530627 0.153398
H11   H     H_    0.682963 0.237587 0.506206 0.145129
H12   H     H_    0.991168 0.344284 0.958106 0.160527
H13   H     H_    0.463473 0.799183 0.480725 0.142057
H14   H     H_    0.534494 0.207692 0.453762 0.146418
H15   H     H_    0.185468 0.031129 0.429832 0.132688
H16   H     H_    0.557494 0.718100 0.332823 0.142118
H17   H     H_    0.135842 0.318756 0.653209 0.124790
H18   H     H_    0.442806 0.282346 0.667688 0.140996
H19   H     H_    0.722355 0.736807 0.308965 0.135514
H20   H     H_    0.864624 0.681895 0.347525 0.123985
H21   H     H_    0.860451 0.528823 0.894150 0.164223
H22   H     H_    0.411707 0.634298 0.404785 0.128384
H23   H     H_    0.588142 0.365483 0.595090 0.130653
H24   H     H_    0.278222 0.264001 0.691902 0.135738
H25   H     H_    0.839911 0.397109 0.917196 0.161177
H26   H     H_    0.840827 0.396914 0.061903 0.163005
H27   H     H_    0.861365 0.528624 0.038858 0.163146
H28   H     H_    0.146955 0.627115 0.930700 0.163114
H29   H     H_    0.041028 0.664092 0.902119 0.162173
H30   H     H_    0.147895 0.626903 0.075412 0.162076
N1    N     N_R   0.795410 0.560790 0.443550 -0.176144
N2    N     N_R   0.204590 0.439170 0.556520 -0.176655
O1    O     O_R   0.977910 0.338120 0.529720 -0.590918
O2    O     O_R   0.839850 0.379180 0.491640 -0.589919
O3    O     O_R   0.069060 0.479460 0.639610 -0.576216
O4    O     O_R   0.931000 0.520530 0.601530 -0.577245
O5    O     O_R   0.160150 0.620820 0.508360 -0.590606
O6    O     O_R   0.022090 0.661880 0.470280 -0.590861
O7    O     O_R   0.069000 0.479470 0.398470 -0.577878
O8    O     O_R   0.930940 0.520540 0.360390 -0.576226
H31   H     H_    0.281217 0.552936 0.462549 0.122002
H32   H     H_    0.718388 0.446471 0.536977 0.121648

loop_
_geom_bond_atom_site_label_1
_geom_bond_atom_site_label_2
_ccdc_geom_bond_type
C10   C27   A    
C37   H22   S    
C21   H14   S    
C41   C42   A    
C36   C42   A    
C19   C20   A    
C9    C14   A    
C3    C6    S    
Cu1   O1    S    
C7    C8    T    
C25   C28   A    
C26   C27   A    
C29   C30   A    
C40   H18   S    
C26   H15   S    
C48   H27   S    
C36   C37   A    
C24   C26   A    
C2    H3    S    
C22   H8    S    
C15   C16   A    
C29   C33   A    
C3    C48   S    
C1    O2    A    
C31   N1    A    
C18   C19   A    
C42   C46   A    
C48   H26   S    
C30   N1    A    
C9    C13   A    
C34   O7    A    
Cu1   O7    S    
Cu2   O6    S    
C13   H10   S    
C31   C32   A    
C23   O5    A    
C39   H23   S    
C16   C20   A    
C21   C22   A    
C4    H4    S    
C41   C43   A    
C18   C25   A    
C47   C50   S    
C2    C45   S    
C1    O1    A    
C12   O4    A    
Cu1   Cu2   S    
C32   C35   A    
Cu2   O4    S    
C1    C9    S    
C24   C25   A    
C47   H21   S    
Cu1   O3    S    
C39   C40   A    
C44   N2    A    
C17   C21   A    
C35   C36   A    
Cu2   N1    S    
C35   C39   A    
C43   C44   A    
C37   C38   A    
C5    H29   S    
C11   C16   A    
C47   C48   S    
C8    C12   S    
C17   C18   A    
C23   O6    A    
C44   H17   S    
C5    H28   S    
C46   N2    A    
C40   C41   A    
C38   H16   S    
C45   H2    S    
C22   C24   A    
C5    C50   S    
Cu2   O8    S    
C47   H25   S    
C3    C4    S    
C10   C28   A    
C43   H24   S    
C15   C17   A    
C34   C49   S    
C12   O3    A    
C7    C50   S    
C4    C5    S    
C11   H9    S    
C2    H1    S    
C30   H20   S    
C28   H6    S    
C10   C23   S    
C31   H32   S    
C45   H12   S    
C33   C38   A    
C32   C33   A    
Cu2   O2    S    
C2    C3    S    
C27   H7    S    
Cu1   O5    S    
C11   C13   A    
C46   H31   S    
C45   C50   S    
C14   H11   S    
C19   H13   S    
C6    C49   T    
C34   O8    A    
C4    H30   S    
C14   C15   A    
C20   H5    S    
Cu1   N2    S    
C29   H19   S    
