data_mof_unit_8748.cif
_audit_creation_date              2013-03-05T16:26:09-0500
_audit_creation_method            fapswitch 2.2
_symmetry_space_group_name_H-M    P1
_symmetry_Int_Tables_number       1
_space_group_crystal_system       triclinic
_cell_length_a                    11.048049
_cell_length_b                    19.414711
_cell_length_c                    18.158922
_cell_angle_alpha                 90.808201
_cell_angle_beta                  103.705861
_cell_angle_gamma                 91.015675
_cell_volume                      3782.81539179

loop_
_atom_site_label
_atom_site_type_symbol
_atom_site_description
_atom_site_fract_x
_atom_site_fract_y
_atom_site_fract_z
_atom_type_partial_charge
O1    O     O_R   0.499950 0.400180 0.561970 -0.581314
O2    O     O_R   0.500050 0.599820 0.438030 -0.552550
O3    O     O_R   0.500010 0.400190 0.438070 -0.582798
O4    O     O_R   0.499990 0.599810 0.561930 -0.501621
C1    C     C_R   0.499064 0.367870 0.499409 0.946261
C2    C     C_R   0.498053 0.632862 0.500267 0.868020
O5    O     O_R   0.320670 0.500000 0.539180 -0.624070
O6    O     O_R   0.679330 0.500000 0.460820 -0.617564
O7    O     O_R   0.320730 0.500010 0.415280 -0.480144
O8    O     O_R   0.679270 0.499990 0.584720 -0.540778
C3    C     C_R   0.262008 0.501138 0.468825 0.750300
C4    C     C_R   0.737771 0.499174 0.531213 0.777971
Cu1   Cu    Cu3+1 0.499960 0.500000 0.573360 1.010493
Cu2   Cu    Cu3+1 0.500040 0.500000 0.426640 1.015566
H1    H     H_    0.884497 0.536593 0.445846 0.201285
H2    H     H_    0.122592 0.492960 0.564280 0.219729
C5    C     C_2   0.125809 0.505168 0.450199 0.144673
C6    C     C_2   0.873508 0.495422 0.550670 0.149704
C7    C     C_2   0.068185 0.502553 0.507634 -0.256872
C8    C     C_2   0.935174 0.514148 0.498348 -0.236137
C9    C     C_R   0.487764 0.747692 0.435483 0.255443
C10   C     C_R   0.402653 0.251791 0.501552 0.228154
C11   C     C_R   0.491007 0.820197 0.439859 0.410403
C12   C     C_R   0.410944 0.179828 0.498258 0.429171
C13   C     C_R   0.526223 0.854277 0.510952 -0.075662
C14   C     C_R   0.528504 0.149697 0.505986 -0.075687
C15   C     C_R   0.535902 0.816301 0.576779 -0.377437
C16   C     C_R   0.632649 0.191466 0.504677 -0.367818
H3    H     H_    0.555823 0.841986 0.631808 0.186915
H4    H     H_    0.722884 0.168536 0.510048 0.173695
C17   C     C_R   0.513957 0.745231 0.572607 0.414108
C18   C     C_R   0.621319 0.263040 0.497436 0.412062
C19   C     C_R   0.500079 0.709364 0.502561 -0.306294
C20   C     C_R   0.507461 0.293071 0.499492 -0.268097
C21   C     C_R   0.483749 0.967261 0.564881 -0.378119
C22   C     C_R   0.606386 0.037761 0.469677 -0.381319
H5    H     H_    0.432218 0.940780 0.600251 0.176532
H6    H     H_    0.651077 0.064464 0.430920 0.177880
C23   C     C_R   0.488472 0.039017 0.566899 0.517778
C24   C     C_R   0.610734 0.966008 0.472396 0.516801
C25   C     C_R   0.542399 0.074606 0.514969 -0.010753
C26   C     C_R   0.541823 0.930100 0.516551 -0.006159
C27   C     C_R   0.423313 0.454651 0.708039 -0.109273
C28   C     C_R   0.598112 0.529712 0.294263 -0.120395
H7    H     H_    0.363885 0.420514 0.666871 0.185452
H8    H     H_    0.672613 0.553786 0.336742 0.190067
C29   C     C_R   0.420659 0.450956 0.785259 0.240250
C30   C     C_R   0.602630 0.532021 0.217180 0.211259
C31   C     C_R   0.497387 0.497101 0.838436 -0.120471
C32   C     C_R   0.502581 0.502475 0.161187 -0.120032
C33   C     C_R   0.571976 0.546234 0.811614 0.091007
C34   C     C_R   0.400335 0.473225 0.184774 0.113134
C35   C     C_R   0.576056 0.544717 0.733810 0.527582
C36   C     C_R   0.403210 0.470211 0.263247 0.551783
N1    N     N_R   0.499990 0.500020 0.683620 -0.248049
N2    N     N_R   0.500010 0.499980 0.316380 -0.246290
C37   C     C_R   0.576510 0.455550 0.971388 -0.242184
C38   C     C_R   0.421410 0.543600 0.027818 -0.262615
H9    H     H_    0.633746 0.420015 0.948957 0.160095
H10   H     H_    0.358662 0.576161 0.049429 0.170963
C39   C     C_R   0.582820 0.458000 0.050160 0.493510
C40   C     C_R   0.419443 0.543579 0.949504 0.514547
C41   C     C_R   0.503276 0.501773 0.078510 0.126573
C42   C     C_R   0.495443 0.497844 0.920836 0.120997
N3    N     N_R   0.336625 0.402036 0.807304 0.154321
O9    O     O_R   0.361924 0.375724 0.874563 -0.320033
O10   O     O_R   0.237652 0.379697 0.758010 -0.330240
N4    N     N_R   0.705943 0.567365 0.197225 0.123817
O11   O     O_R   0.811130 0.576071 0.247240 -0.299674
O12   O     O_R   0.691487 0.598526 0.132844 -0.362919
N5    N     N_R   0.638071 0.599747 0.861849 0.111684
O13   O     O_R   0.707510 0.584709 0.927871 -0.354892
O14   O     O_R   0.636027 0.663258 0.839697 -0.341065
N6    N     N_R   0.292307 0.447665 0.129738 0.122836
O15   O     O_R   0.304043 0.405397 0.075727 -0.325283
O16   O     O_R   0.181198 0.463348 0.136156 -0.310003
O17   O     O_3   0.646534 0.593100 0.706100 -0.503953
C43   C     C_3   0.774958 0.580151 0.732561 0.140236
H11   H     H_    0.796923 0.526670 0.718243 0.183872
H12   H     H_    0.807076 0.587773 0.794826 0.181764
C44   C     C_3   0.848709 0.630698 0.695940 -0.692964
H13   H     H_    0.828847 0.684373 0.710717 0.250950
H14   H     H_    0.950066 0.622116 0.716760 0.225846
H15   H     H_    0.822484 0.623844 0.633330 0.219927
O18   O     O_3   0.303898 0.440838 0.286307 -0.498783
C45   C     C_3   0.309025 0.368284 0.281701 0.073146
H16   H     H_    0.402734 0.349207 0.309995 0.128635
H17   H     H_    0.285677 0.349680 0.221779 0.176471
C46   C     C_3   0.213502 0.337235 0.320410 -0.683438
H18   H     H_    0.118070 0.351258 0.289660 0.252228
H19   H     H_    0.220262 0.280278 0.320845 0.178142
H20   H     H_    0.230580 0.357205 0.379594 0.271240
O19   O     O_3   0.656218 0.412942 0.099259 -0.587795
C47   C     C_3   0.782802 0.421998 0.097818 0.093447
H21   H     H_    0.810818 0.477579 0.099417 0.217003
H22   H     H_    0.801552 0.396683 0.046493 0.155438
C48   C     C_3   0.863184 0.388381 0.167100 -0.664882
H23   H     H_    0.843276 0.332024 0.165054 0.220864
H24   H     H_    0.963281 0.397374 0.168640 0.250333
H25   H     H_    0.842844 0.410661 0.219351 0.284020
O20   O     O_3   0.336139 0.583130 0.898873 -0.565872
C49   C     C_3   0.347593 0.653882 0.920215 0.070929
H26   H     H_    0.370367 0.683183 0.873067 0.180414
H27   H     H_    0.423050 0.667010 0.971537 0.153453
C50   C     C_3   0.223587 0.678959 0.931896 -0.750559
H28   H     H_    0.197609 0.650842 0.978880 0.260146
H29   H     H_    0.231065 0.734913 0.946188 0.205067
H30   H     H_    0.149438 0.670236 0.879209 0.260854
N7    N     N_R   0.935350 0.466626 0.622071 0.121049
O21   O     O_R   0.887827 0.412197 0.646490 -0.317824
O22   O     O_R   0.025253 0.500809 0.668096 -0.366025
N8    N     N_R   0.058328 0.512478 0.372588 0.158275
O23   O     O_R   0.104746 0.550030 0.326767 -0.261647
O24   O     O_R   0.959901 0.474144 0.344979 -0.381703
O25   O     O_3   0.453648 0.715173 0.365088 -0.539063
C51   C     C_3   0.554784 0.717600 0.329833 0.130082
H31   H     H_    0.623922 0.678347 0.354762 0.134932
H32   H     H_    0.603227 0.768917 0.335565 0.170241
C52   C     C_3   0.506228 0.701811 0.245612 -0.704271
H33   H     H_    0.441996 0.742698 0.219161 0.247264
H34   H     H_    0.585244 0.699839 0.217647 0.230860
H35   H     H_    0.454972 0.651524 0.236988 0.246462
O26   O     O_3   0.289537 0.281912 0.499792 -0.599144
C53   C     C_3   0.264510 0.277483 0.572334 0.077900
H36   H     H_    0.339093 0.304264 0.615915 0.144497
H37   H     H_    0.256132 0.222960 0.588879 0.201328
C54   C     C_3   0.141371 0.311623 0.570967 -0.686333
H38   H     H_    0.120449 0.308908 0.627699 0.262024
H39   H     H_    0.146427 0.366401 0.555300 0.237003
H40   H     H_    0.065279 0.284655 0.528963 0.239020
O27   O     O_3   0.460221 0.857494 0.373931 -0.534265
C55   C     C_3   0.332639 0.873403 0.359542 0.089283
H41   H     H_    0.308539 0.898448 0.409705 0.124010
H42   H     H_    0.274036 0.825829 0.343292 0.173131
C56   C     C_3   0.302277 0.923414 0.294397 -0.752223
H43   H     H_    0.323475 0.900019 0.242833 0.256738
H44   H     H_    0.201847 0.935881 0.282057 0.194498
H45   H     H_    0.358426 0.971772 0.309863 0.247313
O28   O     O_3   0.304473 0.139283 0.491371 -0.535261
C57   C     C_3   0.259591 0.119324 0.414556 0.088329
H46   H     H_    0.333392 0.095312 0.390767 0.129371
H47   H     H_    0.222698 0.164686 0.380221 0.147873
C58   C     C_3   0.154403 0.066347 0.408222 -0.773138
H48   H     H_    0.077905 0.088619 0.430447 0.249144
H49   H     H_    0.117382 0.050649 0.347924 0.194770
H50   H     H_    0.189537 0.020090 0.441271 0.248081
O29   O     O_3   0.502053 0.711268 0.637047 -0.497566
C59   C     C_3   0.382146 0.724058 0.648926 0.088640
H51   H     H_    0.308572 0.725982 0.594847 0.110868
H52   H     H_    0.384250 0.773784 0.680449 0.140182
C60   C     C_3   0.343937 0.666702 0.695472 -0.679581
H53   H     H_    0.413426 0.662813 0.750175 0.267653
H54   H     H_    0.251834 0.677815 0.707008 0.186525
H55   H     H_    0.336858 0.616828 0.663891 0.254211
O30   O     O_3   0.722704 0.305236 0.494510 -0.550330
C61   C     C_3   0.772464 0.285418 0.432626 0.030004
H56   H     H_    0.698883 0.267771 0.382103 0.133168
H57   H     H_    0.840251 0.243589 0.449839 0.149128
C62   C     C_3   0.840438 0.346861 0.408877 -0.675921
H58   H     H_    0.914443 0.366501 0.457472 0.260253
H59   H     H_    0.883816 0.331324 0.362085 0.204929
H60   H     H_    0.773735 0.388602 0.388964 0.264167
O31   O     O_3   0.431681 0.073766 0.616069 -0.545373
C63   C     C_3   0.523809 0.094006 0.681192 0.028399
H61   H     H_    0.599769 0.125421 0.666319 0.150532
H62   H     H_    0.564421 0.047912 0.712966 0.145797
C64   C     C_3   0.464635 0.137856 0.732654 -0.712657
H63   H     H_    0.388286 0.108246 0.748843 0.253002
H64   H     H_    0.535778 0.153067 0.784807 0.210090
H65   H     H_    0.426256 0.185141 0.702931 0.234686
O32   O     O_3   0.675680 0.931343 0.427577 -0.539732
C65   C     C_3   0.796009 0.918166 0.471861 0.042264
H66   H     H_    0.791342 0.886404 0.521820 0.141323
H67   H     H_    0.847976 0.967319 0.491646 0.140760
C66   C     C_3   0.867828 0.878426 0.423923 -0.759039
H68   H     H_    0.875392 0.908963 0.373879 0.253481
H69   H     H_    0.963023 0.868043 0.458078 0.192904
H70   H     H_    0.819142 0.828579 0.404297 0.240261

loop_
_geom_bond_atom_site_label_1
_geom_bond_atom_site_label_2
_geom_bond_distance
_ccdc_geom_bond_type
C38   C40   1.417097 A    
C56   H45   1.111071 S    
Cu2   N2    2.002119 S    
O32   C65   1.410917 S    
O19   C47   1.412864 S    
C15   H3    1.083268 S    
O26   C53   1.412095 S    
C35   O17   1.383792 S    
O31   C63   1.411090 S    
C61   C62   1.519612 S    
C6    N7    1.440366 S    
C9    O25   1.383890 S    
C44   H15   1.110186 S    
C43   H12   1.108831 S    
N8    O24   1.300073 A    
C48   H23   1.110579 S    
C56   H43   1.110672 S    
C23   C25   1.411250 A    
O18   C45   1.412847 S    
O5    C3    1.289055 A    
C50   H29   1.110412 S    
C63   H62   1.114091 S    
O20   C49   1.417257 S    
N6    O16   1.301229 A    
O1    C1    1.287854 A    
C61   H56   1.117039 S    
C21   H5    1.083150 S    
C59   H52   1.112466 S    
C34   N6    1.438495 S    
H2    C7    1.081878 S    
C49   H27   1.116273 S    
C45   H17   1.110672 S    
C58   H48   1.110767 S    
C37   H9    1.082282 S    
C9    C19   1.416531 A    
C38   H10   1.082432 S    
O25   C51   1.413693 S    
C51   H31   1.111591 S    
C49   C50   1.522320 S    
C56   H44   1.110471 S    
C60   H55   1.110397 S    
O4    Cu1   1.951778 S    
C39   C41   1.409979 A    
C21   C26   1.402779 A    
C22   C24   1.395909 A    
C40   C42   1.408887 A    
O29   C59   1.417275 S    
C48   H24   1.110224 S    
C3    C5    1.465775 S    
C7    C8    1.460804 S    
C34   C36   1.419869 A    
C55   H41   1.115401 S    
C31   C33   1.414795 A    
C32   C34   1.412572 A    
C60   H53   1.106631 S    
C57   C58   1.520718 S    
C46   H19   1.109662 S    
C65   C66   1.520746 S    
C40   O20   1.387800 S    
C17   O29   1.383116 S    
C35   N1    1.370693 A    
C31   C42   1.501407 S    
Cu1   Cu2   2.664487 S    
C32   C41   1.503022 S    
C64   H64   1.110423 S    
C22   C25   1.401694 A    
O2    C2    1.296585 A    
C33   N5    1.440660 S    
N8    O23   1.301105 A    
C44   H14   1.110143 S    
C65   H67   1.114685 S    
C44   H13   1.110955 S    
C66   H70   1.110791 S    
C52   H34   1.110006 S    
C12   O28   1.383336 S    
H1    C8    1.086150 S    
C10   C20   1.404624 A    
C50   H30   1.110955 S    
C36   N2    1.371878 A    
N6    O15   1.301328 A    
C15   C17   1.394577 A    
C49   H26   1.109360 S    
C10   O26   1.382850 S    
C59   C60   1.520384 S    
C57   H46   1.115103 S    
C66   H69   1.110564 S    
C58   H50   1.111087 S    
C64   H63   1.110623 S    
N5    O14   1.301307 A    
C45   H16   1.113513 S    
N4    O11   1.300952 A    
C28   H8    1.079942 S    
C47   C48   1.520414 S    
N3    O10   1.301319 A    
O17   C43   1.414270 S    
C45   C46   1.520569 S    
C30   N4    1.442298 S    
C33   C35   1.424102 A    
C18   C20   1.404023 A    
C21   C23   1.392800 A    
O7    Cu2   1.942520 S    
C54   H39   1.108628 S    
C18   O30   1.387616 S    
O7    C3    1.290581 A    
C28   N2    1.363753 A    
C62   H58   1.109111 S    
C16   C18   1.402651 A    
O6    C4    1.288773 A    
C1    C20   1.456809 S    
C17   C19   1.416019 A    
C62   H60   1.110718 S    
C11   O27   1.383287 S    
C59   H51   1.118178 S    
C46   H20   1.109281 S    
C47   H22   1.111431 S    
C30   C32   1.418869 A    
C27   H7    1.080352 S    
O3    Cu2   1.951777 S    
O8    C4    1.288236 A    
C53   C54   1.518946 S    
C64   H65   1.110494 S    
C27   N1    1.361131 A    
N3    O9    1.300643 A    
C9    C11   1.408126 A    
C13   C15   1.396785 A    
C10   C12   1.403136 A    
O4    C2    1.294392 A    
O1    Cu1   1.946074 S    
C23   O31   1.381862 S    
O27   C55   1.411967 S    
C5    N8    1.440036 S    
C48   H25   1.109395 S    
C65   H66   1.114789 S    
C37   C42   1.405993 A    
C53   H37   1.112672 S    
C52   H35   1.110139 S    
C38   C41   1.406218 A    
C58   H49   1.110421 S    
C63   H61   1.114950 S    
O6    Cu2   1.930343 S    
C43   H11   1.111677 S    
C63   C64   1.520604 S    
C12   C14   1.411262 A    
O3    C1    1.288224 A    
O8    Cu1   1.942519 S    
C13   C26   1.478353 S    
C36   O18   1.380834 S    
O28   C57   1.411332 S    
C2    C19   1.484868 S    
C16   H4    1.082791 S    
C37   C39   1.415596 A    
C57   H47   1.112788 S    
C29   C31   1.419308 A    
C50   H28   1.109900 S    
C14   C16   1.400893 A    
C51   C52   1.520809 S    
C61   H57   1.111688 S    
C62   H59   1.110634 S    
C54   H40   1.109918 S    
N5    O13   1.301187 A    
C66   H68   1.110731 S    
N7    O21   1.301092 A    
C22   H6    1.083409 S    
C43   C44   1.521838 S    
C55   C56   1.520056 S    
N7    O22   1.301192 A    
C24   C26   1.412349 A    
C5    C7    1.345587 D    
C51   H32   1.114301 S    
C6    C8    1.344140 D    
C60   H54   1.110574 S    
C47   H21   1.115398 S    
O2    Cu2   1.946074 S    
C28   C30   1.413715 A    
O5    Cu1   1.930342 S    
C11   C13   1.408723 A    
C55   H42   1.113537 S    
C52   H33   1.110695 S    
C4    C6    1.460330 S    
O30   C61   1.414613 S    
N4    O12   1.301228 A    
C46   H18   1.110423 S    
C39   O19   1.386474 S    
C27   C29   1.412274 A    
C29   N3    1.442171 S    
C24   O32   1.381511 S    
C54   H38   1.109705 S    
C14   C25   1.475923 S    
C53   H36   1.113456 S    
Cu1   N1    2.002119 S    
