data_mof_unit_52582.cif
_audit_creation_date              2012-12-10T20:30:14-0500
_audit_creation_method            fapswitch 2.2
_symmetry_space_group_name_H-M    P1
_symmetry_Int_Tables_number       1
_space_group_crystal_system       triclinic
_cell_length_a                    9.914568
_cell_length_b                    10.693416
_cell_length_c                    13.100321
_cell_angle_alpha                 89.941006
_cell_angle_beta                  69.92599
_cell_angle_gamma                 90.900225
_cell_volume                      1304.33652571

loop_
_atom_site_label
_atom_site_type_symbol
_atom_type_description
_atom_site_fract_x
_atom_site_fract_y
_atom_site_fract_z
_atom_type_partial_charge
C1    C     C_R   0.500728 0.739530 0.500787 0.877362
C2    C     C_R   0.366525 0.502660 0.822435 -0.080362
C3    C     C_R   0.376860 0.934511 0.559180 0.019932
C4    C     C_R   0.419628 0.498052 0.704223 0.845737
C5    C     C_R   0.502736 0.871296 0.505362 -0.047120
C6    C     C_R   0.631912 0.936835 0.454609 -0.191230
C7    C     C_R   0.630532 0.065585 0.448024 -0.184862
C8    C     C_R   0.501323 0.128091 0.495378 -0.026823
C9    C     C_R   0.376116 0.062221 0.551926 0.002140
C10   C     C_3   0.234331 0.060624 0.535448 0.236308
C11   C     C_3   0.231876 0.920032 0.549004 -0.456820
C12   C     C_R   0.430899 0.493550 0.984749 0.100124
C13   C     C_R   0.903111 0.584615 0.560712 0.223778
C14   C     C_R   0.958516 0.426846 0.430698 -0.145056
C15   C     C_R   0.102123 0.426840 0.430630 -0.102652
C16   C     C_R   0.500932 0.260366 0.496337 0.898732
C17   C     C_R   0.045086 0.584581 0.560681 0.156130
C18   C     C_3   0.997239 0.600799 0.680752 -0.630212
C19   C     C_3   0.843199 0.600985 0.680916 0.280878
C20   C     C_R   0.579922 0.496175 0.295866 0.919230
C21   C     C_R   0.735958 0.330309 0.031069 -0.188824
C22   C     C_R   0.626985 0.470769 0.179952 -0.131212
C23   C     C_R   0.446318 0.448295 0.880654 0.023379
C24   C     C_R   0.251092 0.580136 0.875196 -0.214964
C25   C     C_R   0.221463 0.610403 0.983669 -0.117344
C26   C     C_R   0.312228 0.570549 0.037666 -0.142158
C27   C     C_3   0.817077 0.226047 0.739885 0.042761
C28   C     C_3   0.814225 0.110837 0.671951 -0.334529
C29   C     C_3   0.887519 0.139026 0.551625 -0.892136
C30   C     C_3   0.728179 0.737512 0.819915 0.092524
C31   C     C_3   0.594444 0.818228 0.851712 -0.328168
C32   C     C_3   0.547856 0.856412 0.970824 -0.882323
C33   C     C_R   0.534432 0.459525 0.031396 0.013792
C34   C     C_R   0.636704 0.366379 0.982113 -0.008843
C35   C     C_R   0.636969 0.309183 0.885958 0.462896
C36   C     C_R   0.541029 0.350038 0.836386 -0.325200
C37   C     C_R   0.539174 0.516116 0.125918 -0.295801
C38   C     C_R   0.729655 0.379733 0.130866 0.369865
Cl1   Cl    Cl    0.843085 0.316033 0.194661 -0.656176
Cl2   Cl    Cl    0.248938 0.104470 0.399736 -0.632604
H1    H     H_    0.728322 0.115620 0.402043 0.195903
H2    H     H_    0.814761 0.259613 0.994440 0.206684
H3    H     H_    0.468973 0.591766 0.163466 0.155817
H4    H     H_    0.187840 0.621456 0.831380 0.148325
H5    H     H_    0.284953 0.599005 0.121165 0.139449
H6    H     H_    0.131793 0.669741 0.024657 0.150616
H7    H     H_    0.539464 0.303068 0.763541 0.164595
H8    H     H_    0.731255 0.888613 0.414248 0.172513
H9    H     H_    0.927297 0.239795 0.742300 0.143467
H10   H     H_    0.794019 0.309945 0.698578 0.132647
H11   H     H_    0.869073 0.032532 0.696666 0.227261
H12   H     H_    0.151266 0.108779 0.602345 0.099866
H13   H     H_    0.701133 0.082051 0.685627 0.233773
H14   H     H_    0.819163 0.201177 0.523920 0.274216
H15   H     H_    0.905939 0.051075 0.504206 0.290248
H16   H     H_    0.990317 0.189712 0.537008 0.282548
H17   H     H_    0.814411 0.787212 0.840915 0.149817
H18   H     H_    0.699814 0.649093 0.868467 0.128058
H19   H     H_    0.616751 0.903844 0.800332 0.234135
H20   H     H_    0.505486 0.765075 0.837325 0.224161
H21   H     H_    0.526303 0.772437 0.024195 0.252813
H22   H     H_    0.448139 0.911562 0.991891 0.275914
H23   H     H_    0.149782 0.887123 0.626167 0.158050
H24   H     H_    0.632901 0.914958 0.985447 0.279860
H25   H     H_    0.232836 0.867062 0.475749 0.249583
H26   H     H_    0.928288 0.364797 0.376999 0.222110
H27   H     H_    0.179592 0.365797 0.375999 0.216116
H28   H     H_    0.020355 0.517945 0.723013 0.183434
H29   H     H_    0.034395 0.691641 0.703453 0.207143
H30   H     H_    0.775238 0.520151 0.723126 0.084216
N1    N     N_R   0.856940 0.500860 0.500710 -0.149002
N2    N     N_R   0.142580 0.500820 0.500710 -0.112205
O1    O     O_R   0.385310 0.683210 0.499990 -0.616847
O2    O     O_3   0.776350 0.718081 0.706347 -0.610629
O3    O     O_R   0.614650 0.683240 0.500000 -0.600814
O4    O     O_R   0.328390 0.499940 0.653610 -0.615364
O5    O     O_R   0.557730 0.499980 0.653620 -0.611967
O6    O     O_R   0.385350 0.316760 0.500000 -0.587759
O7    O     O_R   0.614690 0.316790 0.500010 -0.640619
O8    O     O_R   0.442270 0.500020 0.346380 -0.610314
O9    O     O_R   0.671610 0.500060 0.346390 -0.570231
O10   O     O_3   0.721531 0.205657 0.847242 -0.643362
Zn1   Zn    Zn3+2 0.346870 0.499980 0.499990 0.962011
Zn2   Zn    Zn3+2 0.653130 0.500020 0.500010 0.973617

loop_
_geom_bond_atom_site_label_1
_geom_bond_atom_site_label_2
_ccdc_geom_bond_type
C14   N1    A    
C35   C36   A    
C10   H12   S    
C7    C8    A    
C15   N2    A    
C12   C23   A    
C6    H8    S    
C1    C5    S    
C5    C6    A    
C28   C29   S    
C32   H21   S    
C18   C19   S    
C11   H23   S    
O7    Zn2   S    
C30   O2    S    
C28   H11   S    
O3    Zn2   S    
C29   H14   S    
C18   H28   S    
C22   C38   A    
C30   H17   S    
C36   H7    S    
C10   Cl2   S    
C34   C35   A    
C31   H19   S    
C26   H5    S    
O6    Zn1   S    
C21   C38   A    
C8    C9    A    
C9    C10   S    
C27   H10   S    
C18   H29   S    
C8    C16   S    
C20   O9    A    
O8    Zn1   S    
O4    Zn1   S    
C35   O10   S    
C33   C34   A    
C19   O2    S    
C20   O8    A    
C1    O3    A    
C24   C25   A    
C32   H24   S    
C13   C19   S    
C21   C34   A    
C13   N1    A    
O5    Zn2   S    
C25   C26   A    
C22   C37   A    
C33   C37   A    
C12   C26   A    
C31   H20   S    
C37   H3    S    
C2    C4    S    
C3    C9    A    
C31   C32   S    
C30   C31   S    
C15   H27   S    
C17   C18   S    
C14   H26   S    
C20   C22   S    
C2    C24   A    
C24   H4    S    
C2    C23   A    
O9    Zn2   S    
N1    Zn2   S    
C27   O10   S    
C3    C5    A    
C28   H13   S    
C6    C7    A    
C29   H16   S    
C29   H15   S    
C13   C17   A    
C16   O7    A    
C1    O1    A    
C32   H22   S    
C4    O5    A    
C38   Cl1   S    
C30   H18   S    
C16   O6    A    
C7    H1    S    
C4    O4    A    
N2    Zn1   S    
C3    C11   S    
C10   C11   S    
C21   H2    S    
C27   H9    S    
C17   N2    A    
C23   C36   A    
C27   C28   S    
C14   C15   A    
C19   H30   S    
C12   C33   A    
C25   H6    S    
O1    Zn1   S    
C11   H25   S    
