data_mof_unit_5066.cif
_audit_creation_date              2012-12-11T14:01:26-0500
_audit_creation_method            fapswitch 2.2
_symmetry_space_group_name_H-M    P1
_symmetry_Int_Tables_number       1
_space_group_crystal_system       triclinic
_cell_length_a                    19.253386
_cell_length_b                    10.987924
_cell_length_c                    18.945432
_cell_angle_alpha                 90.216006
_cell_angle_beta                  90.414983
_cell_angle_gamma                 90.451232
_cell_volume                      4007.73721131

loop_
_atom_site_label
_atom_site_type_symbol
_atom_type_description
_atom_site_fract_x
_atom_site_fract_y
_atom_site_fract_z
_atom_type_partial_charge
C1    C     C_R   0.272126 0.047676 0.851026 0.539123
C2    C     C_R   0.728541 0.045281 0.149299 0.528186
C3    C     C_R   0.771788 0.544833 0.852044 0.521998
C4    C     C_R   0.227839 0.547455 0.148892 0.522339
C5    C     C_R   0.471444 0.038625 0.078051 -0.039617
C6    C     C_R   0.487719 0.062054 0.933225 -0.109001
C7    C     C_R   0.997685 0.550370 0.069978 -0.019752
C8    C     C_R   0.021849 0.552041 0.925633 -0.007033
C9    C     C_R   0.011541 0.660193 0.036602 0.281883
C10   C     C_R   0.029618 0.659272 0.964359 0.296694
C11   C     C_R   0.458777 0.150499 0.046476 0.373546
C12   C     C_R   0.470161 0.164337 0.973851 0.283812
C13   C     C_2   0.251633 0.585881 0.922491 0.297565
C14   C     C_2   0.751517 0.582667 0.078232 0.283858
C15   C     C_2   0.761328 0.149383 0.933247 0.265979
C16   C     C_2   0.247860 0.084085 0.077401 0.280958
C17   C     C_2   0.250342 0.612035 0.084573 0.281159
C18   C     C_2   0.744439 0.600866 0.916830 0.308327
C19   C     C_2   0.762306 0.116203 0.093975 0.313873
C20   C     C_2   0.249829 0.112236 0.915158 0.292549
C21   C     C_2   0.298527 0.559955 0.044142 -0.143220
C22   C     C_2   0.704444 0.531560 0.959330 -0.070907
C23   C     C_2   0.795976 0.054356 0.043501 -0.133614
C24   C     C_2   0.200764 0.061309 0.955442 -0.081044
C25   C     C_2   0.305691 0.591289 0.968988 -0.129219
C26   C     C_2   0.697096 0.555069 0.035578 -0.078050
C27   C     C_2   0.812260 0.105182 0.973943 -0.133016
C28   C     C_2   0.194500 0.092592 0.030682 -0.126210
C29   C     C_2   0.515665 0.831846 0.586966 0.263475
C30   C     C_2   0.526259 0.821275 0.429092 0.289797
C31   C     C_2   0.016013 0.331374 0.587552 0.266867
C32   C     C_2   0.026187 0.322861 0.429580 0.274809
C33   C     C_2   0.551510 0.739321 0.475323 0.262651
C34   C     C_2   0.522514 0.730465 0.546023 0.280182
C35   C     C_2   0.050924 0.239213 0.475270 0.255434
C36   C     C_2   0.022998 0.230055 0.546498 0.271760
C37   C     C_2   0.248075 0.587865 0.577605 0.267777
C38   C     C_2   0.760499 0.563809 0.412314 0.314973
C39   C     C_2   0.748481 0.096268 0.575422 0.274442
C40   C     C_2   0.261211 0.056173 0.410574 0.316497
C41   C     C_2   0.250026 0.600390 0.416027 0.279502
C42   C     C_2   0.770115 0.547643 0.571692 0.309766
C43   C     C_2   0.751090 0.097823 0.415504 0.266095
C44   C     C_2   0.272616 0.041133 0.569563 0.299164
C45   C     C_R   0.472029 0.823799 0.852664 0.557120
C46   C     C_R   0.530961 0.820450 0.145115 0.546725
C47   C     C_R   0.972640 0.322541 0.852073 0.539738
C48   C     C_R   0.031054 0.320715 0.144765 0.542473
C49   C     C_2   0.198169 0.609346 0.461922 -0.121089
C50   C     C_2   0.820302 0.545790 0.524233 -0.158067
C51   C     C_2   0.702233 0.139209 0.458565 -0.136392
C52   C     C_2   0.323034 0.031119 0.522193 -0.144683
C53   C     C_2   0.210308 0.654454 0.531168 0.206779
C54   C     C_2   0.808702 0.608522 0.458658 0.228570
C55   C     C_2   0.717603 0.174653 0.529514 0.181851
C56   C     C_2   0.314908 0.089584 0.453874 0.220575
C57   C     C_R   0.261872 0.638949 0.852330 0.546066
C58   C     C_R   0.738447 0.637924 0.147724 0.543103
C59   C     C_R   0.772720 0.182097 0.859126 0.543320
C60   C     C_R   0.238218 0.137657 0.147819 0.547137
C61   C     C_R   0.288887 0.002992 0.640161 0.551278
C62   C     C_R   0.727706 0.046164 0.350488 0.550548
C63   C     C_R   0.788023 0.505087 0.640273 0.561306
C64   C     C_R   0.228827 0.549107 0.349147 0.524444
C65   C     C_R   0.472469 0.823574 0.649904 0.544849
C66   C     C_R   0.557122 0.820035 0.360000 0.578609
C67   C     C_R   0.972336 0.323343 0.649931 0.545231
C68   C     C_R   0.056634 0.320267 0.360067 0.577361
C69   C     C_R   0.261176 0.640344 0.645591 0.600336
C70   C     C_R   0.739877 0.637693 0.353350 0.640088
C71   C     C_R   0.761092 0.140691 0.645463 0.605169
C72   C     C_R   0.240459 0.135267 0.352714 0.635944
C73   C     C_R   0.507497 0.824262 0.070723 -0.045162
C74   C     C_R   0.504871 0.838190 0.922747 -0.027068
C75   C     C_R   0.007701 0.325102 0.069889 -0.057805
C76   C     C_R   0.006557 0.330963 0.921609 -0.026348
C77   C     C_R   0.492387 0.936484 0.038215 -0.126209
C78   C     C_R   0.494690 0.945450 0.963899 -0.108208
C79   C     C_R   0.004252 0.438375 0.034047 -0.130105
C80   C     C_R   0.008423 0.440798 0.959697 -0.119621
C81   C     C_R   0.525267 0.730436 0.955159 0.269115
C82   C     C_R   0.519023 0.719233 0.028188 0.260179
C83   C     C_R   0.018476 0.221191 0.956098 0.268092
C84   C     C_R   0.011566 0.215266 0.029440 0.245283
Cr1   Cr    Cr6+3 0.230530 0.836340 0.748870 1.069635
Cr2   Cr    Cr6+3 0.769470 0.836340 0.251130 1.058444
Cr3   Cr    Cr6+3 0.730530 0.336340 0.748870 1.036336
Cr4   Cr    Cr6+3 0.269470 0.336340 0.251130 1.041437
Cr5   Cr    Cr6+3 0.387420 0.989430 0.750820 0.986939
Cr6   Cr    Cr6+3 0.612580 0.989430 0.249180 1.022404
Cr7   Cr    Cr6+3 0.887420 0.489430 0.750820 1.010998
Cr8   Cr    Cr6+3 0.112580 0.489430 0.249180 1.012335
Cr9   Cr    Cr6+3 0.385640 0.677860 0.749230 1.009190
Cr10  Cr    Cr6+3 0.614360 0.677860 0.250770 1.022681
Cr11  Cr    Cr6+3 0.885640 0.177860 0.749230 1.012960
Cr12  Cr    Cr6+3 0.114360 0.177860 0.250770 1.023774
H1    H     H_    0.144624 0.583981 0.449710 0.124396
H2    H     H_    0.872229 0.513823 0.537062 0.132395
H3    H     H_    0.648659 0.151697 0.441704 0.127814
H4    H     H_    0.373921 0.996998 0.537197 0.137826
H5    H     H_    0.459821 0.030981 0.133621 0.161223
H6    H     H_    0.500426 0.077009 0.878524 0.125439
H7    H     H_    0.980789 0.554652 0.124192 0.169156
H8    H     H_    0.035023 0.554025 0.870174 0.163911
H9    H     H_    0.328190 0.483429 0.063569 0.094679
H10   H     H_    0.681568 0.446997 0.940019 0.134716
H11   H     H_    0.804441 0.957131 0.049163 0.125433
H12   H     H_    0.168204 0.987693 0.935329 0.133880
H13   H     H_    0.357348 0.615691 0.951050 0.078516
H14   H     H_    0.646712 0.540885 0.058354 0.181089
H15   H     H_    0.861664 0.084017 0.951005 0.074811
H16   H     H_    0.144231 0.121299 0.048563 0.174676
O1    O     O_R   0.215090 0.709860 0.828130 -0.465376
O2    O     O_R   0.784910 0.709860 0.171870 -0.475731
O3    O     O_R   0.715090 0.209860 0.828130 -0.502868
O4    O     O_R   0.284910 0.209860 0.171870 -0.458899
O5    O     O_R   0.445660 0.919250 0.676780 -0.522868
O6    O     O_R   0.554340 0.919250 0.323220 -0.504103
O7    O     O_R   0.945660 0.419250 0.676780 -0.513050
O8    O     O_R   0.054340 0.419250 0.323220 -0.517730
O9    O     O_R   0.456260 0.718170 0.670000 -0.494493
O10   O     O_R   0.543740 0.718170 0.330000 -0.557383
O11   O     O_R   0.956260 0.218170 0.670000 -0.499095
O12   O     O_R   0.043740 0.218170 0.330000 -0.545973
O13   O     O_R   0.320940 0.626760 0.674370 -0.505702
O14   O     O_R   0.679060 0.626760 0.325630 -0.495389
O15   O     O_R   0.820940 0.126760 0.674370 -0.505288
O16   O     O_R   0.179060 0.126760 0.325630 -0.490374
O17   O     O_3   0.334530 0.834540 0.749640 -0.286117
O18   O     O_3   0.665470 0.834540 0.250360 -0.284459
O19   O     O_3   0.834530 0.334540 0.749640 -0.299421
O20   O     O_3   0.165470 0.334540 0.250360 -0.278007
O21   O     O_R   0.236990 0.958390 0.823710 -0.517496
O22   O     O_R   0.763010 0.958390 0.176290 -0.537647
O23   O     O_R   0.736990 0.458390 0.823710 -0.539641
O24   O     O_R   0.263010 0.458390 0.176290 -0.528077
O25   O     O_R   0.332380 0.074750 0.830850 -0.514625
O26   O     O_R   0.667620 0.074750 0.169150 -0.504061
O27   O     O_R   0.832380 0.574750 0.830850 -0.494817
O28   O     O_R   0.167620 0.574750 0.169150 -0.511907
O29   O     O_R   0.445800 0.917770 0.825070 -0.522252
O30   O     O_R   0.554200 0.917770 0.174930 -0.512463
O31   O     O_R   0.945800 0.417770 0.825070 -0.525119
O32   O     O_R   0.054200 0.417770 0.174930 -0.515172
O33   O     O_R   0.456410 0.716580 0.829970 -0.497120
O34   O     O_R   0.543590 0.716580 0.170030 -0.469270
O35   O     O_R   0.956410 0.216580 0.829970 -0.500932
O36   O     O_R   0.043590 0.216580 0.170030 -0.467736
O37   O     O_R   0.321080 0.625290 0.822650 -0.554635
O38   O     O_R   0.678920 0.625290 0.177350 -0.531876
O39   O     O_R   0.821080 0.125290 0.822650 -0.541550
O40   O     O_R   0.178920 0.125290 0.177350 -0.541684
O41   O     O_R   0.214930 0.711450 0.668160 -0.491506
O42   O     O_R   0.785070 0.711450 0.331840 -0.484380
O43   O     O_R   0.714930 0.211450 0.668160 -0.492060
O44   O     O_R   0.285070 0.211450 0.331840 -0.481669
O45   O     O_R   0.236850 0.959870 0.675420 -0.458882
O46   O     O_R   0.763150 0.959870 0.324580 -0.458459
O47   O     O_R   0.736850 0.459870 0.675420 -0.453673
O48   O     O_R   0.263150 0.459870 0.324580 -0.509226
O49   O     O_R   0.332230 0.076350 0.670880 -0.551332
O50   O     O_R   0.667770 0.076350 0.329120 -0.560635
O51   O     O_R   0.832230 0.576350 0.670880 -0.549177
O52   O     O_R   0.167770 0.576350 0.329120 -0.544776
O53   O     O_3   0.560987 0.645648 0.914793 -0.571433
C85   C     C_3   0.527283 0.531288 0.913106 -0.045049
H17   H     H_    0.469723 0.537393 0.915522 0.132820
H18   H     H_    0.547859 0.472223 0.955572 0.193340
H19   H     H_    0.539845 0.486223 0.862343 0.130420
O54   O     O_3   0.532586 0.607492 0.058041 -0.566268
C86   C     C_3   0.469622 0.553024 0.079182 -0.105334
H20   H     H_    0.442313 0.513900 0.032768 0.105427
H21   H     H_    0.434826 0.616700 0.107787 0.101949
H22   H     H_    0.481824 0.477576 0.115797 0.180388
O55   O     O_3   0.052786 0.131530 0.918352 -0.577621
C87   C     C_3   0.013699 0.023183 0.913397 -0.055210
H23   H     H_    0.958105 0.037687 0.902153 0.130938
H24   H     H_    0.019913 0.969561 0.961559 0.158224
H25   H     H_    0.034323 0.968802 0.868927 0.176464
O56   O     O_3   0.020633 0.103400 0.061403 -0.575262
C88   C     C_3   0.956709 0.061033 0.088138 -0.100510
H26   H     H_    0.930122 0.005217 0.047319 0.110754
H27   H     H_    0.921951 0.134586 0.107393 0.111764
H28   H     H_    0.967390 0.000703 0.133684 0.177426
O57   O     O_3   0.183394 0.767444 0.548521 -0.684278
H29   H     H_    0.153713 0.796432 0.509082 0.337951
O58   O     O_3   0.840742 0.720634 0.448996 -0.662657
H30   H     H_    0.872051 0.737583 0.489771 0.336365
O59   O     O_3   0.697724 0.290360 0.550504 -0.693535
H31   H     H_    0.667168 0.326310 0.513900 0.344234
O60   O     O_3   0.357987 0.187200 0.438110 -0.692667
H32   H     H_    0.392159 0.198434 0.477103 0.335549
O61   O     O_3   0.317674 0.634127 0.435812 -0.599018
C89   C     C_3   0.367325 0.608528 0.383630 -0.120108
H33   H     H_    0.353595 0.650385 0.332047 0.106272
H34   H     H_    0.375643 0.508923 0.378887 0.163805
H35   H     H_    0.417566 0.648177 0.400719 0.132169
O62   O     O_3   0.706106 0.599826 0.557031 -0.507190
C90   C     C_3   0.694884 0.699087 0.603117 -0.046035
H36   H     H_    0.667870 0.667793 0.651433 0.142088
H37   H     H_    0.743402 0.749718 0.617532 0.140453
H38   H     H_    0.661299 0.765272 0.575883 0.151626
O63   O     O_3   0.818718 0.079065 0.437399 -0.551621
C91   C     C_3   0.859235 0.175934 0.412066 -0.122362
H39   H     H_    0.854334 0.253968 0.448826 0.134582
H40   H     H_    0.845936 0.202849 0.356865 0.095415
H41   H     H_    0.914183 0.147931 0.411660 0.143785
O64   O     O_3   0.209829 0.095668 0.552436 -0.503253
C92   C     C_3   0.197925 0.195715 0.597704 -0.048244
H42   H     H_    0.169933 0.165534 0.645680 0.149074
H43   H     H_    0.246334 0.246173 0.612604 0.138122
H44   H     H_    0.164905 0.261520 0.569435 0.149526
O65   O     O_3   0.277218 0.475552 0.563001 -0.753742
H45   H     H_    0.253915 0.437359 0.521727 0.329019
O66   O     O_3   0.731512 0.448556 0.416965 -0.771584
H46   H     H_    0.761936 0.396301 0.445886 0.316692
O67   O     O_3   0.766588 0.977408 0.560099 -0.728164
H47   H     H_    0.736755 0.946074 0.521226 0.340842
O68   O     O_3   0.223729 0.949374 0.419503 -0.745394
H48   H     H_    0.251324 0.891256 0.447705 0.337267
O69   O     O_3   0.007130 0.764631 0.076672 -0.735328
H49   H     H_    0.009525 0.835559 0.045261 0.325512
O70   O     O_3   0.058769 0.757790 0.931031 -0.724341
H50   H     H_    0.088894 0.800513 0.965965 0.336096
O71   O     O_3   0.434723 0.243598 0.088482 -0.682323
H51   H     H_    0.415355 0.307854 0.057847 0.356448
O72   O     O_3   0.465086 0.278272 0.944102 -0.767814
H52   H     H_    0.476955 0.273011 0.893349 0.296598
O73   O     O_3   0.211390 0.706968 0.055370 -0.548363
C93   C     C_3   0.184590 0.788424 0.106169 -0.093832
H53   H     H_    0.221251 0.805831 0.150866 0.088415
H54   H     H_    0.132919 0.758490 0.124762 0.210049
H55   H     H_    0.173598 0.875367 0.080037 0.116003
O74   O     O_3   0.770241 0.712061 0.940511 -0.522714
C94   C     C_3   0.753318 0.802421 0.890759 -0.106589
H56   H     H_    0.696030 0.809521 0.883590 0.119048
H57   H     H_    0.778947 0.787092 0.839159 0.136280
H58   H     H_    0.772829 0.890850 0.910804 0.132208
O75   O     O_3   0.756749 0.242262 0.090926 -0.560450
C95   C     C_3   0.759699 0.293461 0.159682 -0.117856
H59   H     H_    0.798518 0.248054 0.194503 0.081837
H60   H     H_    0.707487 0.292541 0.184154 0.163875
H61   H     H_    0.776324 0.389411 0.156471 0.113991
O76   O     O_3   0.290565 0.206367 0.943714 -0.529970
C96   C     C_3   0.307983 0.295077 0.892682 -0.081309
H62   H     H_    0.263473 0.318103 0.857503 0.077053
H63   H     H_    0.354139 0.270564 0.861616 0.173734
H64   H     H_    0.325389 0.377433 0.920902 0.132426
O77   O     O_3   0.184232 0.560986 0.944033 -0.518174
C97   C     C_3   0.176731 0.437472 0.963417 -0.106897
H65   H     H_    0.223854 0.394819 0.985494 0.141287
H66   H     H_    0.157203 0.383555 0.917680 0.128543
H67   H     H_    0.138935 0.431603 0.006751 0.157823
O78   O     O_3   0.818949 0.587371 0.052846 -0.518562
C98   C     C_3   0.841229 0.470057 0.032698 -0.107719
H68   H     H_    0.799760 0.405738 0.015707 0.158325
H69   H     H_    0.870114 0.428052 0.076997 0.121333
H70   H     H_    0.875137 0.480026 0.986276 0.155923
O79   O     O_3   0.697804 0.177714 0.962867 -0.529381
C99   C     C_3   0.653808 0.074946 0.958967 -0.090820
H71   H     H_    0.679335 0.989129 0.975503 0.100087
H72   H     H_    0.632099 0.064316 0.904810 0.124097
H73   H     H_    0.611140 0.089699 0.996653 0.164565
O80   O     O_3   0.314324 0.054702 0.055800 -0.518875
C100  C     C_3   0.318227 0.929035 0.040478 -0.116202
H74   H     H_    0.272804 0.892199 0.011188 0.151014
H75   H     H_    0.327774 0.876940 0.089653 0.110064
H76   H     H_    0.361727 0.913570 0.004181 0.147694
O81   O     O_3   0.604185 0.660148 0.455612 -0.546937
C101  C     C_3   0.576449 0.542236 0.442933 -0.006970
H77   H     H_    0.523958 0.543053 0.418275 0.063365
H78   H     H_    0.577240 0.487486 0.491955 0.184453
H79   H     H_    0.609007 0.493998 0.404458 0.194056
O82   O     O_3   0.509908 0.614389 0.572285 -0.586114
C102  C     C_3   0.443021 0.573431 0.550956 -0.053570
H80   H     H_    0.422574 0.512134 0.592413 0.198984
H81   H     H_    0.404760 0.648238 0.544198 0.171208
H82   H     H_    0.445744 0.518300 0.502226 0.107614
O83   O     O_3   0.102470 0.158397 0.454628 -0.543190
C103  C     C_3   0.073099 0.042163 0.440375 0.004848
H83   H     H_    0.019535 0.045659 0.418431 0.069572
H84   H     H_    0.075869 0.983928 0.487976 0.187384
H85   H     H_    0.103101 0.996250 0.398859 0.196409
O84   O     O_3   0.013695 0.113660 0.573919 -0.580261
C104  C     C_3   0.946938 0.067619 0.555626 -0.051834
H86   H     H_    0.906680 0.139448 0.550965 0.149008
H87   H     H_    0.948421 0.012732 0.506744 0.124578
H88   H     H_    0.929820 0.004960 0.597966 0.188178
O85   O     O_3   0.468153 0.890830 0.445580 -0.582951
C105  C     C_3   0.421477 0.903008 0.387912 -0.098582
H89   H     H_    0.368483 0.884135 0.406975 0.138670
H90   H     H_    0.428484 0.837942 0.343611 0.105435
H91   H     H_    0.424401 0.997183 0.367187 0.180370
O86   O     O_3   0.537919 0.944707 0.562378 -0.578835
C106  C     C_3   0.579415 0.004311 0.613728 -0.118770
H92   H     H_    0.622972 0.946353 0.632142 0.082629
H93   H     H_    0.548691 0.036824 0.659166 0.145664
H94   H     H_    0.601691 0.086918 0.589403 0.170260
O87   O     O_3   0.969211 0.394863 0.447461 -0.598924
C107  C     C_3   0.931209 0.436645 0.388208 -0.103124
H95   H     H_    0.876615 0.442167 0.402619 0.100620
H96   H     H_    0.930284 0.372632 0.342602 0.110051
H97   H     H_    0.949501 0.528767 0.372718 0.181340
O88   O     O_3   0.037909 0.444762 0.563821 -0.575723
C108  C     C_3   0.082654 0.499450 0.614223 -0.121397
H98   H     H_    0.132588 0.450055 0.617272 0.086919
H99   H     H_    0.060030 0.506371 0.667729 0.132827
H100  H     H_    0.092991 0.594109 0.597472 0.185917

loop_
_geom_bond_atom_site_label_1
_geom_bond_atom_site_label_2
_ccdc_geom_bond_type
C89   H34   S    
C98   H69   S    
C37   C69   S    
C105  H91   S    
O70   H50   S    
C64   O52   A    
C63   O51   A    
C86   H21   S    
C2    O22   A    
O84   C104  S    
Cr9   O9    S    
C47   C76   S    
C89   H35   S    
Cr7   O19   S    
C97   H66   S    
C47   O31   A    
Cr5   O17   S    
O76   C96   S    
C48   O32   A    
O82   C102  S    
C84   O56   S    
C41   O61   S    
Cr1   O17   S    
Cr2   O22   S    
C87   H25   S    
C102  H80   S    
C66   O10   A    
Cr3   O3    S    
C70   O14   A    
C97   H67   S    
C56   O60   S    
C90   H36   S    
C96   H62   S    
C76   C83   A    
C41   C49   D    
C32   O87   S    
C88   H27   S    
C5    H5    S    
O60   H32   S    
C2    O26   A    
C42   O62   S    
C12   O72   S    
C88   H26   S    
C17   C21   D    
C35   C36   S    
C19   C23   D    
O66   H46   S    
O73   C93   S    
C15   C27   D    
O55   C87   S    
C23   H11   S    
C14   C26   D    
C93   H54   S    
C8    H8    S    
Cr10  O10   S    
C54   O58   S    
C101  H78   S    
C74   C81   A    
C5    C77   A    
Cr4   O44   S    
C107  H95   S    
C7    C79   A    
C1    C20   S    
C2    C19   S    
C67   O11   A    
C18   O74   S    
Cr10  O38   S    
C13   O77   S    
Cr2   O42   S    
C104  H87   S    
C46   O34   A    
C49   C53   S    
Cr3   O47   S    
C51   C55   S    
C6    H6    S    
C49   H1    S    
C8    C10   A    
O61   C89   S    
C96   H64   S    
C73   C77   A    
C31   C36   D    
C75   C79   A    
C58   O38   A    
C72   O44   A    
C63   O47   A    
C106  H93   S    
Cr11  O15   S    
O77   C97   S    
Cr10  O18   S    
Cr6   O50   S    
C45   O33   A    
C55   O59   S    
Cr8   O20   S    
C75   C84   A    
C6    C78   A    
C13   C57   S    
O54   C86   S    
Cr12  O40   S    
C16   C60   S    
Cr3   O19   S    
O80   C100  S    
C108  H99   S    
C57   O37   A    
C90   H38   S    
C24   C28   S    
C9    C10   A    
C107  H97   S    
C25   H13   S    
C37   C53   D    
C44   C52   D    
C87   H24   S    
C27   H15   S    
C7    H7    S    
C85   H18   S    
C93   H53   S    
C1    O21   A    
Cr6   O26   S    
O85   C105  S    
Cr7   O31   S    
C47   O35   A    
C50   H2    S    
C102  H82   S    
Cr11  O35   S    
C103  H83   S    
Cr2   O18   S    
C57   O1    A    
O67   H47   S    
C52   H4    S    
C45   C74   S    
O69   H49   S    
C19   O75   S    
C83   C84   A    
C14   O78   S    
O83   C103  S    
C92   H42   S    
Cr4   O48   S    
C100  H75   S    
C42   C50   D    
C29   C65   S    
Cr5   O5    S    
C74   C78   A    
C94   H58   S    
Cr7   O7    S    
C60   O4    A    
C3    O27   A    
C1    O25   A    
Cr11  O11   S    
C21   C25   S    
C87   H23   S    
C39   C71   S    
C40   C72   S    
C18   C22   D    
C39   O67   S    
C76   C80   A    
C99   H71   S    
C44   C61   S    
Cr1   O1    S    
Cr8   O8    S    
C68   O8    A    
C95   H59   S    
C91   H39   S    
C58   O2    A    
C65   O5    A    
C67   O7    A    
C46   C73   S    
C98   H68   S    
Cr10  O34   S    
C45   O29   A    
C38   C70   S    
Cr9   O37   S    
O75   C95   S    
C103  H85   S    
C38   O66   S    
O63   C91   S    
Cr7   O51   S    
C46   O30   A    
C77   C78   A    
C28   H16   S    
C50   C54   S    
Cr6   O6    S    
O71   H51   S    
C5    C11   A    
C6    C12   A    
O86   C106  S    
C92   H44   S    
Cr12  O16   S    
C105  H89   S    
C60   O40   A    
C37   O65   S    
C30   O85   S    
C39   C55   D    
O64   C92   S    
C40   C56   D    
C94   H56   S    
C62   O46   A    
C24   H12   S    
C65   O9    A    
C4    O24   A    
C89   H33   S    
C98   H70   S    
C69   O13   A    
O81   C101  S    
Cr11  O19   S    
C101  H79   S    
C71   O15   A    
Cr1   O45   S    
C99   H73   S    
Cr9   O17   S    
Cr5   O49   S    
C107  H96   S    
C14   C58   S    
C86   H22   S    
Cr3   O23   S    
Cr4   O24   S    
O68   H48   S    
C17   O73   S    
C97   H65   S    
C29   C34   D    
C95   H61   S    
C69   O41   A    
O87   C107  S    
C104  H86   S    
C61   O45   A    
C38   C54   D    
C91   H41   S    
O65   H45   S    
C11   O71   S    
C71   O43   A    
C64   O48   A    
Cr6   O30   S    
C10   O70   S    
Cr7   O27   S    
C4    C17   S    
C72   O16   A    
Cr5   O25   S    
C96   H63   S    
C40   O68   S    
Cr11  O39   S    
O74   C94   S    
Cr8   O28   S    
C73   C82   A    
C106  H92   S    
O56   C88   S    
C88   H28   S    
C20   O76   S    
C15   C59   S    
O58   H30   S    
C43   C51   D    
O57   H29   S    
C62   O50   A    
C3    O23   A    
O59   H31   S    
Cr9   O13   S    
C31   C67   S    
Cr6   O18   S    
C9    O69   S    
C108  H98   S    
C22   C26   S    
C90   H37   S    
C101  H77   S    
C41   C64   S    
C42   C63   S    
C21   H9    S    
C43   C62   S    
Cr1   O21   S    
C16   C28   D    
C86   H20   S    
C82   O54   S    
O53   C85   S    
C83   O55   S    
C68   O12   A    
C81   C82   A    
C34   O82   S    
O78   C98   S    
C35   O83   S    
C93   H55   S    
C61   O49   A    
C102  H81   S    
C103  H84   S    
C104  H88   S    
C31   O88   S    
C44   O64   S    
C3    C18   S    
C53   O57   S    
O72   H52   S    
Cr9   O33   S    
O62   C90   S    
C23   C27   S    
C100  H74   S    
C26   H14   S    
Cr12  O20   S    
Cr8   O52   S    
C94   H57   S    
C48   C75   S    
C13   C25   D    
C106  H94   S    
Cr10  O14   S    
C51   H3    S    
Cr12  O12   S    
C32   C35   D    
C20   C24   D    
C36   O84   S    
C99   H72   S    
C22   H10   S    
Cr12  O36   S    
Cr4   O4    S    
C4    O28   A    
C108  H100  S    
C95   H60   S    
C33   C34   S    
Cr1   O41   S    
Cr2   O46   S    
C30   C66   S    
O88   C108  S    
C91   H40   S    
C43   O63   S    
C85   H17   S    
Cr3   O43   S    
Cr4   O20   S    
O79   C99   S    
C15   O79   S    
C7    C9    A    
C30   C33   D    
C33   O81   S    
C70   O42   A    
C29   O86   S    
C11   C12   A    
C59   O39   A    
C32   C68   S    
Cr2   O2    S    
Cr5   O29   S    
C48   O36   A    
C92   H43   S    
C105  H90   S    
Cr8   O32   S    
C100  H76   S    
C79   C80   A    
C16   O80   S    
C85   H19   S    
C59   O3    A    
C66   O6    A    
C8    C80   A    
C81   O53   S    
C52   C56   S    
