data_mof_unit_25056.cif
_audit_creation_date              2012-10-26T20:20:00-0400
_audit_creation_method            fapswitch 2.2
_symmetry_space_group_name_H-M    P1
_symmetry_Int_Tables_number       1
_space_group_crystal_system       triclinic
_cell_length_a                    15.132312
_cell_length_b                    13.686346
_cell_length_c                    27.787087
_cell_angle_alpha                 89.956347
_cell_angle_beta                  89.854929
_cell_angle_gamma                 90.147299
_cell_volume                      5754.83488315

loop_
_atom_site_label
_atom_site_type_symbol
_atom_type_description
_atom_site_fract_x
_atom_site_fract_y
_atom_site_fract_z
_atom_type_partial_charge
C1    C     C_R   0.328984 0.499901 0.499991 0.573639
C2    C     C_R   0.411381 0.474492 0.873011 -0.007947
C3    C     C_R   0.498799 0.499611 0.354361 -0.075137
C4    C     C_R   0.495808 0.499804 0.645627 -0.072713
C5    C     C_R   0.410090 0.475779 0.974839 0.048504
C6    C     C_R   0.573229 0.471622 0.025096 0.048455
C7    C     C_R   0.572375 0.485795 0.974412 -0.003727
C8    C     C_R   0.411525 0.489112 0.025594 -0.003882
C9    C     C_R   0.491178 0.482228 0.949252 -0.024458
C10   C     C_R   0.492525 0.481498 0.050721 -0.024540
C11   C     C_R   0.330933 0.456397 0.948881 0.262513
C12   C     C_R   0.671761 0.500114 0.499949 0.594502
C13   C     C_R   0.651507 0.448138 0.050936 0.262672
C14   C     C_R   0.333222 0.455597 0.898285 -0.084785
C15   C     C_R   0.649313 0.446952 0.101513 -0.085012
C16   C     C_R   0.499878 0.499986 0.407351 0.547308
C17   C     C_R   0.498980 0.499970 0.592647 0.549905
C18   C     C_R   0.335288 0.514950 0.051746 -0.080020
C19   C     C_R   0.649659 0.508613 0.948395 -0.079697
C20   C     C_R   0.815847 0.418108 0.482988 0.214954
C21   C     C_R   0.187043 0.569104 0.527307 0.219499
C22   C     C_R   0.769221 0.500293 0.500100 -0.010399
C23   C     C_R   0.492901 0.485180 0.101693 -0.083288
C24   C     C_R   0.232829 0.499699 0.499746 -0.008495
C25   C     C_R   0.816036 0.582757 0.517236 0.234932
C26   C     C_R   0.187284 0.430319 0.471799 0.239881
C27   C     C_R   0.908843 0.578767 0.521950 0.032833
C28   C     C_R   0.094236 0.426067 0.473807 0.035814
C29   C     C_R   0.954992 0.500636 0.499941 -0.076884
C30   C     C_R   0.048037 0.499797 0.499491 -0.078342
C31   C     C_R   0.908209 0.422661 0.478747 -0.029858
C32   C     C_R   0.094693 0.572275 0.525209 -0.023208
C33   C     C_R   0.956196 0.651771 0.547305 0.280712
C34   C     C_R   0.491108 0.486411 0.898285 -0.083443
C35   C     C_R   0.046353 0.351337 0.450138 0.288179
C36   C     C_R   0.048560 0.645632 0.549639 -0.097404
C37   C     C_R   0.954187 0.349113 0.454263 -0.102576
C38   C     C_R   0.449638 0.792558 0.532617 0.086763
C39   C     C_R   0.549974 0.207434 0.467235 0.052652
C40   C     C_R   0.549960 0.792985 0.467232 0.056539
C41   C     C_R   0.449771 0.207033 0.532678 0.076599
C42   C     C_R   0.417761 0.508784 0.178232 0.444872
C43   C     C_R   0.567549 0.506709 0.821868 0.442370
C44   C     C_R   0.551325 0.896413 0.465893 -0.046944
C45   C     C_R   0.414188 0.504461 0.127524 0.047689
C46   C     C_R   0.449012 0.103598 0.534268 -0.038100
C47   C     C_R   0.448701 0.895975 0.534112 -0.038150
C48   C     C_R   0.551089 0.104021 0.465799 -0.054085
C49   C     C_R   0.500058 0.948208 0.500023 0.008105
C50   C     C_R   0.500070 0.051796 0.500036 0.007489
C51   C     C_R   0.602979 0.948570 0.431756 0.029772
C52   C     C_R   0.398085 0.051433 0.568727 0.035078
C53   C     C_R   0.397557 0.947686 0.568462 0.038310
C54   C     C_R   0.602498 0.052325 0.431545 0.025440
C55   C     C_R   0.572097 0.473752 0.177268 0.471307
C56   C     C_R   0.570666 0.502216 0.872563 0.046001
C57   C     C_R   0.411864 0.478921 0.822577 0.471670
C58   C     C_R   0.501475 0.588280 0.278040 0.044500
C59   C     C_R   0.491295 0.589154 0.721655 0.044208
C60   C     C_R   0.501130 0.587732 0.328546 -0.164471
C61   C     C_R   0.495749 0.588157 0.671219 -0.163762
C62   C     C_R   0.495516 0.410864 0.329345 -0.137264
C63   C     C_R   0.491297 0.411256 0.670831 -0.137615
C64   C     C_R   0.492951 0.409630 0.279081 0.298110
C65   C     C_R   0.489260 0.410303 0.721129 0.298164
C66   C     C_R   0.497718 0.497848 0.253285 0.220371
C67   C     C_R   0.334981 0.519696 0.101975 0.273491
C68   C     C_R   0.488117 0.498912 0.746650 0.221383
C69   C     C_3   0.773613 0.733244 0.492167 -0.041305
C70   C     C_3   0.252547 0.410425 0.398711 -0.068115
C71   C     C_3   0.945770 0.815473 0.568463 -0.090098
C72   C     C_3   0.061929 0.263563 0.379889 -0.095942
C73   C     C_2   0.654440 0.894763 0.394802 0.558790
C74   C     C_2   0.349333 0.105100 0.606835 0.574028
C75   C     C_2   0.347139 0.893405 0.605804 0.579501
C76   C     C_2   0.652018 0.106583 0.393791 0.580444
C77   C     C_3   0.406188 0.280921 0.258182 -0.101875
C78   C     C_R   0.650337 0.513790 0.898191 0.273018
C79   C     C_3   0.565542 0.275581 0.744377 -0.093620
C80   C     C_3   0.198507 0.467605 0.124973 -0.077320
C81   C     C_3   0.784879 0.456213 0.875426 -0.072568
C82   C     C_2   0.489886 0.685114 0.746901 0.610996
C83   C     C_2   0.506279 0.683955 0.252528 0.611300
C84   C     C_3   0.178727 0.468082 0.957176 -0.139672
C85   C     C_3   0.804082 0.452390 0.042572 -0.140170
C86   C     C_3   0.772280 0.264248 0.502869 -0.087896
C87   C     C_3   0.249627 0.597144 0.600244 -0.093898
C88   C     C_R   0.572135 0.469399 0.126861 -0.008164
Cu1   Cu    Cu3+1 0.500000 0.597420 0.500000 1.001266
Cu2   Cu    Cu3+1 0.500000 0.402580 0.500000 0.987766
H1    H     H_    0.494751 0.342091 0.348655 0.174185
H2    H     H_    0.504159 0.656286 0.347934 0.206329
H3    H     H_    0.273833 0.437947 0.878510 0.162664
H4    H     H_    0.707926 0.426329 0.121214 0.162022
H5    H     H_    0.275597 0.537050 0.033715 0.167616
H6    H     H_    0.710110 0.527910 0.966539 0.166974
H7    H     H_    0.742976 0.702552 0.459086 0.112942
H8    H     H_    0.842412 0.756577 0.483932 0.128248
H9    H     H_    0.735945 0.799418 0.502515 0.149300
H10   H     H_    0.297400 0.474315 0.402865 0.105408
H11   H     H_    0.190790 0.433233 0.380213 0.110004
H12   H     H_    0.489432 0.342469 0.651631 0.170958
H13   H     H_    0.286490 0.356798 0.375185 0.139600
H14   H     H_    0.968735 0.829762 0.530958 0.108449
H15   H     H_    0.000102 0.828473 0.594484 0.148585
H16   H     H_    0.893003 0.869205 0.576488 0.161051
H17   H     H_    0.051117 0.334871 0.361425 0.098007
H18   H     H_    0.001173 0.218021 0.378387 0.141226
H19   H     H_    0.114079 0.224407 0.359525 0.155139
H20   H     H_    0.652189 0.803613 0.337830 0.353221
H21   H     H_    0.355884 0.196210 0.663761 0.359434
H22   H     H_    0.351289 0.804590 0.663689 0.344715
H23   H     H_    0.084460 0.698394 0.571010 0.171989
H24   H     H_    0.646565 0.197841 0.336834 0.361370
H25   H     H_    0.354777 0.332158 0.244725 0.130760
H26   H     H_    0.391064 0.258267 0.295767 0.120311
H27   H     H_    0.403493 0.214463 0.235408 0.163543
H28   H     H_    0.619146 0.323097 0.758796 0.136958
H29   H     H_    0.581941 0.251030 0.707279 0.131106
H30   H     H_    0.562044 0.209570 0.767493 0.162073
H31   H     H_    0.228419 0.400678 0.140865 0.126909
H32   H     H_    0.174448 0.452494 0.087922 0.110698
H33   H     H_    0.140217 0.486903 0.147270 0.156312
H34   H     H_    0.918497 0.288927 0.438152 0.172635
H35   H     H_    0.752487 0.390506 0.859614 0.128936
H36   H     H_    0.808314 0.440228 0.912503 0.109576
H37   H     H_    0.843876 0.473092 0.853124 0.160888
H38   H     H_    0.511466 0.830590 0.743059 0.359700
H39   H     H_    0.494092 0.830630 0.256627 0.360835
H40   H     H_    0.150989 0.429076 0.925598 0.140374
H41   H     H_    0.188956 0.547020 0.948878 0.118203
H42   H     H_    0.128723 0.463773 0.986371 0.137308
H43   H     H_    0.830093 0.411550 0.074010 0.139803
H44   H     H_    0.797446 0.531611 0.051117 0.116785
H45   H     H_    0.410108 0.749713 0.557299 0.174039
H46   H     H_    0.853774 0.446075 0.013325 0.137673
H47   H     H_    0.737871 0.289418 0.536035 0.133916
H48   H     H_    0.840784 0.241569 0.511887 0.119812
H49   H     H_    0.737167 0.198459 0.489586 0.151820
H50   H     H_    0.290909 0.530147 0.597875 0.113413
H51   H     H_    0.186952 0.580932 0.619748 0.129028
H52   H     H_    0.286946 0.651473 0.621761 0.155932
H53   H     H_    0.589369 0.250323 0.442526 0.183331
H54   H     H_    0.588807 0.750407 0.442302 0.146959
H55   H     H_    0.410102 0.249578 0.557285 0.161504
H56   H     H_    0.498084 0.656651 0.651691 0.207173
N1    N     N_R   0.495940 0.494132 0.201669 -0.362602
N2    N     N_R   0.488979 0.495626 0.798292 -0.364024
N3    N     N_R   0.500000 0.743810 0.500000 -0.250577
N4    N     N_R   0.500000 0.256190 0.500000 -0.256588
O1    O     O_R   0.370260 0.582280 0.500010 -0.471815
O2    O     O_2   0.642006 0.521631 0.796060 -0.443052
O3    O     O_2   0.335843 0.467421 0.797889 -0.471334
O4    O     O_2   0.647690 0.458618 0.201832 -0.469168
O5    O     O_3   0.770390 0.665930 0.530757 -0.491189
O6    O     O_3   0.234481 0.365451 0.443438 -0.487707
O7    O     O_3   0.910475 0.720522 0.574540 -0.509292
O8    O     O_3   0.090565 0.274756 0.427935 -0.503407
O9    O     O_2   0.735121 0.899378 0.394595 -0.491001
O10   O     O_R   0.610213 0.837735 0.360770 -0.677214
O11   O     O_2   0.268790 0.099723 0.609132 -0.450237
O12   O     O_R   0.629740 0.417720 0.499990 -0.477878
O13   O     O_R   0.396053 0.162501 0.639736 -0.713943
O14   O     O_2   0.266392 0.895776 0.606044 -0.459651
O15   O     O_R   0.392514 0.838538 0.640182 -0.688503
O16   O     O_2   0.732668 0.102586 0.392307 -0.466460
O17   O     O_R   0.605895 0.163345 0.360437 -0.693927
O18   O     O_3   0.491557 0.321844 0.254485 -0.528990
O19   O     O_3   0.482913 0.322871 0.745902 -0.535050
O20   O     O_3   0.258242 0.546925 0.125555 -0.510610
O21   O     O_3   0.728183 0.537891 0.874718 -0.509753
O22   O     O_2   0.465310 0.691057 0.788742 -0.489878
O23   O     O_R   0.629740 0.582280 0.499990 -0.476279
O24   O     O_R   0.515851 0.769790 0.722374 -0.661156
O25   O     O_2   0.526840 0.688217 0.209999 -0.488594
O26   O     O_R   0.488109 0.770263 0.277569 -0.666027
O27   O     O_3   0.256704 0.421753 0.973219 -0.575016
O28   O     O_3   0.724065 0.410227 0.026456 -0.574214
O29   O     O_3   0.770639 0.336556 0.466514 -0.552441
O30   O     O_3   0.233045 0.637337 0.554374 -0.554081
O31   O     O_R   0.370260 0.417720 0.500010 -0.472456
O32   O     O_R   0.500020 0.582260 0.430260 -0.513292
O33   O     O_R   0.499980 0.417740 0.569740 -0.520853
O34   O     O_R   0.499980 0.582260 0.569740 -0.498745
O35   O     O_R   0.500020 0.417740 0.430260 -0.501256
O36   O     O_2   0.344208 0.527254 0.204166 -0.454933

loop_
_geom_bond_atom_site_label_1
_geom_bond_atom_site_label_2
_ccdc_geom_bond_type
C44   C49   A    
C55   O4    S    
C71   H14   S    
C63   C65   A    
C34   C56   A    
C23   C45   A    
C83   O25   D    
C81   H36   S    
C25   O5    S    
C26   O6    S    
Cu2   O33   S    
C59   C82   S    
C80   O20   S    
C87   H50   S    
Cu2   N4    S    
C15   H4    S    
C70   H11   S    
C56   C78   A    
H24   O17   S    
C47   C49   A    
C80   H32   S    
C27   C33   A    
C77   O18   S    
C48   C54   A    
C73   O10   S    
C69   O5    S    
Cu2   O12   S    
C70   O6    S    
C32   C36   A    
C35   C37   A    
C24   C26   A    
C5    C11   A    
C52   C74   S    
C16   O35   A    
C74   O13   S    
C11   C14   A    
C16   O32   A    
C3    C62   A    
C27   C29   A    
C36   H23   S    
C58   C60   A    
C13   O28   S    
C79   H28   S    
C12   C22   S    
C33   C36   A    
C72   O8    S    
C76   O17   S    
C84   H40   S    
C55   C88   A    
C86   O29   S    
C62   C64   A    
C43   N2    A    
C15   C88   A    
C86   H47   S    
C87   O30   S    
C58   C66   A    
C21   O30   S    
C82   O24   S    
C28   C35   A    
C33   O7    S    
C85   O28   S    
C22   C25   A    
C79   H29   S    
C45   C67   A    
C41   C46   A    
C72   H17   S    
H39   O26   S    
C76   O16   D    
C11   O27   S    
Cu1   O23   S    
C77   H26   S    
C14   H3    S    
C68   N2    S    
C85   H44   S    
C47   C53   A    
C3    C60   A    
C42   O36   S    
Cu1   N3    S    
C83   O26   S    
C62   H1    S    
C18   H5    S    
C53   C75   S    
C63   H12   S    
C42   N1    A    
C70   H10   S    
C20   O29   S    
C80   H31   S    
C60   H2    S    
C67   O20   S    
C71   O7    S    
C21   C32   A    
C82   O22   D    
C59   C61   A    
Cu1   O34   S    
C72   H18   S    
H21   O13   S    
C43   O2    S    
C1    O31   A    
C70   H13   S    
C41   N4    A    
C18   C67   A    
C57   O3    S    
C4    C61   A    
C84   H42   S    
C8    C18   A    
C31   C37   A    
C65   O19   S    
C75   O14   D    
C42   C45   A    
C64   C66   A    
C19   C78   A    
C61   H56   S    
C5    C9    A    
C29   C30   A    
C59   C68   A    
C5    C8    A    
C37   H34   S    
C17   O33   A    
C55   N1    A    
C39   N4    A    
Cu2   O31   S    
C40   C44   A    
C65   C68   A    
C79   H30   S    
C66   N1    S    
C75   O15   S    
C38   H45   S    
C87   H51   S    
C38   C47   A    
C86   H49   S    
C54   C76   S    
C4    C17   S    
C69   H9    S    
C44   C51   A    
C4    C63   A    
C39   H53   S    
C7    C19   A    
C23   C88   A    
C71   H15   S    
C9    C34   A    
C71   H16   S    
C21   C24   A    
H20   O10   S    
C52   C53   A    
C2    C57   A    
C7    C9    A    
C73   O9    D    
C72   H19   S    
C38   N3    A    
C81   H35   S    
C26   C28   A    
C8    C10   A    
C51   C73   S    
C20   C22   A    
C6    C10   A    
C74   O11   D    
C6    C7    A    
Cu2   O35   S    
C10   C23   A    
C25   C27   A    
C46   C50   A    
C84   H41   S    
C77   H27   S    
C40   H54   S    
C51   C54   A    
Cu1   O32   S    
C79   O19   S    
C13   C15   A    
C35   O8    S    
C28   C30   A    
C29   C31   A    
C58   C83   S    
C69   H8    S    
C46   C52   A    
C30   C32   A    
C17   O34   A    
C2    C34   A    
H22   O15   S    
C48   C50   A    
C78   O21   S    
C40   N3    A    
C1    O1    A    
C81   O21   S    
C87   H52   S    
C84   O27   S    
C2    C14   A    
C86   H48   S    
C85   H46   S    
C12   O12   A    
C19   H6    S    
C43   C56   A    
Cu1   O1    S    
C41   H55   S    
H38   O24   S    
C1    C24   S    
C64   O18   S    
C49   C50   A    
C57   N2    A    
C39   C48   A    
Cu1   Cu2   S    
C77   H25   S    
C80   H33   S    
C81   H37   S    
C3    C16   S    
C85   H43   S    
C12   O23   A    
C6    C13   A    
C20   C31   A    
C69   H7    S    
