data_mof_unit_37605.cif
_audit_creation_date              2012-10-26T19:03:22-0400
_audit_creation_method            fapswitch 2.2
_symmetry_space_group_name_H-M    P1
_symmetry_Int_Tables_number       1
_space_group_crystal_system       triclinic
_cell_length_a                    10.751819
_cell_length_b                    13.022134
_cell_length_c                    11.769303
_cell_angle_alpha                 99.755426
_cell_angle_beta                  91.416843
_cell_angle_gamma                 91.90951
_cell_volume                      1622.33792915

loop_
_atom_site_label
_atom_site_type_symbol
_atom_type_description
_atom_site_fract_x
_atom_site_fract_y
_atom_site_fract_z
_atom_type_partial_charge
C1    C     C_R   0.497818 0.299556 0.478770 0.556070
C2    C     C_R   0.493799 0.124924 0.356751 -0.154173
C3    C     C_R   0.490222 0.139498 0.564925 -0.107258
C4    C     C_R   0.262951 0.499337 0.502205 0.526880
C5    C     C_R   0.486220 0.031218 0.554584 -0.001638
C6    C     C_R   0.484135 0.969410 0.443317 0.009936
C7    C     C_R   0.477109 0.860760 0.431473 0.229975
C8    C     C_R   0.482933 0.875439 0.640659 -0.120378
C9    C     C_R   0.483693 0.983901 0.653377 0.266015
C10   C     C_R   0.353273 0.430224 0.033293 0.239415
C11   C     C_R   0.372128 0.435123 0.153614 -0.019958
C12   C     C_R   0.072309 0.598931 0.544540 -0.108956
C13   C     C_R   0.572541 0.514211 0.148161 0.442069
C14   C     C_R   0.555774 0.519686 0.028758 -0.100288
C15   C     C_R   0.445207 0.476341 0.970533 -0.079704
C16   C     C_R   0.495093 0.700389 0.520992 0.580845
C17   C     C_R   0.429179 0.480846 0.850564 0.379101
C18   C     C_R   0.623725 0.571638 0.848591 0.369070
C19   C     C_R   0.646617 0.567699 0.967100 0.231944
C20   C     C_R   0.737421 0.503284 0.497972 0.659632
C21   C     C_R   0.142878 0.691029 0.588845 -0.166736
C22   C     C_R   0.085873 0.785637 0.621674 0.228633
C23   C     C_R   0.129636 0.504000 0.507116 -0.017542
C24   C     C_R   0.955282 0.789635 0.611419 0.301336
C25   C     C_R   0.886386 0.701084 0.555516 0.269975
C26   C     C_R   0.941885 0.602467 0.532313 -0.077502
C27   C     C_3   0.585449 0.049953 0.822769 -0.122768
C28   C     C_3   0.236378 0.538147 0.821593 -0.059966
C29   C     C_3   0.676336 0.738497 0.829395 -0.091529
C30   C     C_3   0.140346 0.389619 0.032719 -0.131364
C31   C     C_3   0.862077 0.584204 0.974888 -0.097949
C32   C     C_3   0.760381 0.448687 0.176849 -0.079404
C33   C     C_3   0.169415 0.934647 0.574742 -0.108910
C34   C     C_R   0.060153 0.413163 0.463279 -0.128910
C35   C     C_3   0.915131 0.921585 0.760684 -0.099517
C36   C     C_3   0.782918 0.743212 0.402173 -0.069782
C37   C     C_3   0.905136 0.255737 0.328744 -0.135296
C38   C     C_3   0.340844 0.781581 0.290480 -0.110335
C39   C     C_R   0.930264 0.413803 0.455539 0.228657
C40   C     C_R   0.871960 0.507952 0.492846 0.031952
C41   C     C_R   0.485551 0.813653 0.531116 -0.023591
C42   C     C_R   0.494242 0.186413 0.466497 -0.001435
C43   C     C_R   0.488612 0.017266 0.345165 -0.128312
Cu1   Cu    Cu3+1 0.509250 0.507730 0.615930 1.053025
Cu2   Cu    Cu3+1 0.490750 0.492270 0.384070 0.997986
H1    H     H_    0.108329 0.341612 0.437461 0.106799
H2    H     H_    0.735963 0.770881 0.906253 0.126588
H3    H     H_    0.576810 0.752595 0.849164 0.089023
H4    H     H_    0.700471 0.782206 0.759505 0.174940
H5    H     H_    0.132342 0.471875 0.076570 0.074121
H6    H     H_    0.129777 0.335108 0.095206 0.102991
H7    H     H_    0.061657 0.372221 0.968821 0.137824
H8    H     H_    0.895859 0.637184 0.916799 0.148022
H9    H     H_    0.854408 0.502505 0.927105 0.095580
H10   H     H_    0.934291 0.586483 0.044328 0.109154
H11   H     H_    0.304532 0.399179 0.202231 0.136397
H12   H     H_    0.660647 0.083490 0.775164 0.120958
H13   H     H_    0.718919 0.382004 0.212726 0.142313
H14   H     H_    0.854436 0.467681 0.217334 0.121944
H15   H     H_    0.772099 0.423570 0.082858 0.078346
H16   H     H_    0.243146 0.691100 0.597801 0.143911
H17   H     H_    0.218087 0.892339 0.499734 0.089105
H18   H     H_    0.224885 0.006979 0.609026 0.170950
H19   H     H_    0.077280 0.959059 0.546191 0.147526
H20   H     H_    0.997162 0.976697 0.773290 0.181849
H21   H     H_    0.926208 0.859734 0.814770 0.097632
H22   H     H_    0.833892 0.966579 0.792689 0.096348
H23   H     H_    0.610926 0.972724 0.842621 0.093728
H24   H     H_    0.840453 0.687810 0.344897 0.127638
H25   H     H_    0.823393 0.823958 0.410387 0.125767
H26   H     H_    0.690594 0.741581 0.358601 0.221967
H27   H     H_    0.945715 0.298463 0.263176 0.077222
H28   H     H_    0.828174 0.203780 0.285040 0.135816
H29   H     H_    0.974879 0.205315 0.360324 0.126642
H30   H     H_    0.333756 0.731275 0.204319 0.136931
H31   H     H_    0.293332 0.855043 0.283894 0.091114
H32   H     H_    0.291870 0.739121 0.351884 0.120691
H33   H     H_    0.478054 0.839797 0.716953 0.134760
H34   H     H_    0.576580 0.103136 0.906140 0.140491
H35   H     H_    0.488707 0.971919 0.259061 0.158327
H36   H     H_    0.497387 0.159866 0.279609 0.132533
H37   H     H_    0.490697 0.187485 0.649688 0.186409
H38   H     H_    0.276226 0.609407 0.793336 0.111321
H39   H     H_    0.217288 0.556774 0.914971 0.091548
H40   H     H_    0.145720 0.517623 0.774815 0.142003
N1    N     N_R   0.523180 0.519350 0.790130 -0.263852
N2    N     N_R   0.476820 0.480650 0.209890 -0.267973
O1    O     O_R   0.506570 0.354460 0.582000 -0.492172
O2    O     O_3   0.315243 0.452692 0.795770 -0.471362
O3    O     O_3   0.700080 0.632271 0.791824 -0.527574
O4    O     O_3   0.252863 0.373036 0.973750 -0.509777
O5    O     O_3   0.750114 0.620070 0.025984 -0.535590
O6    O     O_3   0.687841 0.538130 0.201404 -0.498085
O7    O     O_3   0.159429 0.873792 0.662797 -0.567284
O8    O     O_3   0.893679 0.881708 0.642191 -0.563216
O9    O     O_3   0.768933 0.714397 0.511906 -0.552769
O10   O     O_3   0.856041 0.323234 0.422251 -0.567488
O11   O     O_3   0.468066 0.801252 0.321958 -0.561100
O12   O     O_R   0.490940 0.341410 0.386200 -0.521822
O13   O     O_R   0.327470 0.506530 0.597920 -0.474065
O14   O     O_R   0.311840 0.493480 0.402120 -0.541450
O15   O     O_R   0.509060 0.658590 0.613800 -0.500467
O16   O     O_R   0.493430 0.645540 0.418000 -0.440447
O17   O     O_R   0.688160 0.506520 0.597880 -0.442890
O18   O     O_R   0.672530 0.493470 0.402080 -0.454063
O19   O     O_3   0.470513 0.043189 0.761382 -0.553096

loop_
_geom_bond_atom_site_label_1
_geom_bond_atom_site_label_2
_ccdc_geom_bond_type
C19   O5    S    
C30   H6    S    
C3    C42   A    
C7    O11   S    
C28   H39   S    
C32   H13   S    
C37   H29   S    
C33   O7    S    
C1    O12   A    
C37   O10   S    
Cu1   O17   S    
C29   H4    S    
Cu1   Cu2   S    
C12   C23   A    
C18   N1    A    
C29   H2    S    
C21   C22   A    
Cu2   N2    S    
C27   H34   S    
C10   C15   A    
C5    C6    A    
C20   C40   S    
C39   O10   S    
C35   H20   S    
C18   C19   A    
C37   H28   S    
C27   H23   S    
Cu2   O16   S    
Cu2   O18   S    
C8    C9    A    
C28   O2    S    
C34   H1    S    
C21   H16   S    
C36   H26   S    
C38   O11   S    
C1    O1    A    
C32   O6    S    
C30   H5    S    
C13   C14   A    
C28   H38   S    
C8    H33   S    
C22   O7    S    
Cu1   N1    S    
C29   O3    S    
C36   H25   S    
C38   H30   S    
C29   H3    S    
C17   N1    A    
C18   O3    S    
C17   O2    S    
C8    C41   A    
C27   H12   S    
C24   O8    S    
C11   N2    A    
C39   C40   A    
C4    C23   S    
Cu1   O15   S    
C33   H17   S    
C38   H31   S    
C35   H21   S    
C9    O19   S    
C12   C21   A    
C31   H8    S    
C34   C39   A    
C13   O6    S    
C5    C9    A    
C36   O9    S    
C16   O16   A    
C35   H22   S    
C2    C43   A    
C33   H18   S    
C23   C34   A    
C4    O14   A    
C13   N2    A    
C3    H37   S    
C24   C25   A    
Cu2   O14   S    
C16   O15   A    
C10   O4    S    
C6    C43   A    
C4    O13   A    
Cu2   O12   S    
C22   C24   A    
C32   H15   S    
C36   H24   S    
C20   O18   A    
C15   C17   A    
C30   H7    S    
C14   C19   A    
C30   O4    S    
C3    C5    A    
C6    C7    A    
C20   O17   A    
C38   H32   S    
C35   O8    S    
C27   O19   S    
C25   C26   A    
Cu1   O13   S    
C26   C40   A    
C2    C42   A    
C33   H19   S    
C43   H35   S    
C7    C41   A    
C31   H9    S    
C10   C11   A    
C1    C42   S    
C25   O9    S    
C31   O5    S    
C37   H27   S    
C12   C26   A    
C28   H40   S    
C14   C15   A    
C2    H36   S    
C32   H14   S    
C31   H10   S    
Cu1   O1    S    
C16   C41   S    
C11   H11   S    
