data_mof_unit_14001.cif
_audit_creation_date              2012-10-26T21:02:39-0400
_audit_creation_method            fapswitch 2.2
_symmetry_space_group_name_H-M    P1
_symmetry_Int_Tables_number       1
_space_group_crystal_system       triclinic
_cell_length_a                    12.311776
_cell_length_b                    13.097246
_cell_length_c                    15.057819
_cell_angle_alpha                 77.40686
_cell_angle_beta                  101.30929
_cell_angle_gamma                 116.584845
_cell_volume                      2105.57892884

loop_
_atom_site_label
_atom_site_type_symbol
_atom_type_description
_atom_site_fract_x
_atom_site_fract_y
_atom_site_fract_z
_atom_type_partial_charge
C1    C     C_R   0.855080 0.286245 0.506775 0.535668
C2    C     C_R   0.087691 0.477340 0.832852 -0.136090
C3    C     C_R   0.998250 0.498303 0.768173 -0.015953
C4    C     C_R   0.999294 0.499411 0.671241 0.548890
C5    C     C_R   0.908114 0.517946 0.796403 -0.136272
C6    C     C_R   0.272241 0.031161 0.393391 0.270614
C7    C     C_R   0.227767 0.836755 0.471668 -0.058324
C8    C     C_R   0.817125 0.081459 0.557573 -0.134680
C9    C     C_R   0.738510 0.963856 0.571096 0.259935
C10   C     C_R   0.614117 0.929110 0.542791 -0.094824
C11   C     C_R   0.566989 0.008892 0.493900 -0.020009
C12   C     C_R   0.908331 0.518223 0.074882 0.011437
C13   C     C_R   0.650584 0.124144 0.467895 -0.003896
C14   C     C_R   0.439653 0.978207 0.469988 -0.017928
C15   C     C_R   0.398727 0.059667 0.414147 0.041776
C16   C     C_R   0.145063 0.714020 0.487552 0.551862
C17   C     C_R   0.484504 0.167050 0.378352 -0.137526
C18   C     C_R   0.608304 0.197926 0.403380 -0.131665
C19   C     C_R   0.351619 0.869168 0.501106 -0.161674
C20   C     C_R   0.187649 0.918478 0.419794 -0.115826
C21   C     C_R   0.773943 0.162438 0.507769 -0.055250
C22   C     C_R   0.334515 0.311866 0.637351 0.258277
C23   C     C_R   0.177475 0.455498 0.082920 -0.128123
C24   C     C_R   0.760639 0.648681 0.377962 0.042025
C25   C     C_R   0.664142 0.680888 0.352174 -0.163122
C26   C     C_R   0.559527 0.623034 0.397505 -0.120365
C27   C     C_R   0.549983 0.531666 0.470075 -0.013756
C28   C     C_R   0.000128 0.499740 0.328808 0.551498
C29   C     C_R   0.651587 0.502505 0.494222 0.127193
C30   C     C_R   0.444660 0.469508 0.519982 -0.102348
C31   C     C_R   0.440159 0.375339 0.590381 0.040276
C32   C     C_R   0.540688 0.346721 0.612084 0.228517
C33   C     C_R   0.645248 0.413847 0.567357 -0.116646
C34   C     C_R   0.177301 0.455653 0.990304 -0.129065
C35   C     C_R   0.342881 0.497430 0.503015 0.012100
C36   C     C_R   0.241199 0.348781 0.619333 0.032334
C37   C     C_R   0.909673 0.518803 0.167415 -0.137466
C38   C     C_R   0.999599 0.498552 0.232027 -0.013490
C39   C     C_R   0.088539 0.477064 0.203920 -0.137375
C40   C     C_R   0.088553 0.476367 0.111555 0.012720
C41   C     C_R   0.998221 0.497162 0.046736 0.061948
C42   C     C_3   0.231455 0.185080 0.395451 -0.016069
C43   C     C_3   0.104069 0.145524 0.422243 -0.389032
C44   C     C_3   0.871289 0.881334 0.581462 -0.019066
C45   C     C_R   0.088099 0.476505 0.925482 0.009999
C46   C     C_3   0.887961 0.771563 0.621865 -0.351101
C47   C     C_3   0.556139 0.173794 0.652206 0.003616
C48   C     C_3   0.536393 0.070795 0.727406 -0.351524
C49   C     C_3   0.237061 0.115404 0.672844 -0.009533
C50   C     C_3   0.190350 0.022175 0.754105 -0.361012
C51   C     C_R   0.997913 0.497115 0.953654 0.060807
C52   C     C_R   0.907552 0.517845 0.888829 0.013676
C53   C     C_R   0.818370 0.538308 0.917491 -0.121700
C54   C     C_R   0.818798 0.538558 0.010085 -0.129009
Cu1   Cu    Cu3+1 0.098270 0.475420 0.521130 0.913291
Cu2   Cu    Cu3+1 0.901730 0.524580 0.478870 0.892403
H1    H     H_    0.840573 0.535161 0.188918 0.126659
H2    H     H_    0.841461 0.694058 0.342464 0.127114
H3    H     H_    0.487790 0.651580 0.373943 0.100751
H4    H     H_    0.670349 0.750894 0.296738 0.104477
H5    H     H_    0.721175 0.394329 0.593569 0.190574
H6    H     H_    0.247177 0.439315 0.132094 0.113653
H7    H     H_    0.246911 0.439608 0.969345 0.117660
H8    H     H_    0.157314 0.461773 0.811307 0.134465
H9    H     H_    0.838431 0.533407 0.746637 0.130674
H10   H     H_    0.748579 0.554327 0.868314 0.126739
H11   H     H_    0.749288 0.554759 0.031025 0.112235
H12   H     H_    0.456368 0.228221 0.330964 0.149071
H13   H     H_    0.091324 0.894440 0.397542 0.134658
H14   H     H_    0.258195 0.272367 0.354285 0.149358
H15   H     H_    0.298815 0.195223 0.458246 0.104228
H16   H     H_    0.075920 0.059682 0.465549 0.112715
H17   H     H_    0.104218 0.208281 0.461392 0.123874
H18   H     H_    0.037304 0.139597 0.359978 0.169425
H19   H     H_    0.959080 0.956006 0.596752 0.113161
H20   H     H_    0.848747 0.883049 0.505803 0.130650
H21   H     H_    0.802620 0.694776 0.606012 0.173264
H22   H     H_    0.963663 0.771353 0.592339 0.128310
H23   H     H_    0.376864 0.806106 0.547287 0.132466
H24   H     H_    0.910547 0.766748 0.697346 0.150419
H25   H     H_    0.650097 0.205196 0.634053 0.131122
H26   H     H_    0.488556 0.143865 0.591823 0.127844
H27   H     H_    0.441644 0.032089 0.745377 0.156640
H28   H     H_    0.551684 0.004422 0.703315 0.107252
H29   H     H_    0.601464 0.098231 0.789236 0.168581
H30   H     H_    0.280170 0.086483 0.631093 0.135901
H31   H     H_    0.155922 0.124255 0.630349 0.083568
H32   H     H_    0.137452 0.045250 0.791794 0.159384
H33   H     H_    0.129904 0.938303 0.729699 0.092205
H34   H     H_    0.911023 0.109846 0.588619 0.120359
H35   H     H_    0.267667 0.012959 0.801593 0.167098
H36   H     H_    0.557699 0.838066 0.558275 0.129055
H37   H     H_    0.670133 0.279914 0.370134 0.157840
H38   H     H_    0.162084 0.303627 0.656805 0.132623
H39   H     H_    0.157964 0.461134 0.253721 0.122076
H40   H     H_    0.338162 0.566164 0.450492 0.135297
N1    N     N_R   0.246280 0.438190 0.553160 -0.269769
N2    N     N_R   0.754320 0.561190 0.447410 -0.236234
O1    O     O_R   0.972510 0.318130 0.526570 -0.509171
O2    O     O_3   0.777531 0.882166 0.622004 -0.555254
O3    O     O_3   0.542166 0.260571 0.684307 -0.507417
O4    O     O_3   0.324641 0.218746 0.705147 -0.508211
O5    O     O_R   0.806530 0.359650 0.490890 -0.527863
O6    O     O_R   0.082980 0.479210 0.647590 -0.498207
O7    O     O_R   0.917000 0.520730 0.611900 -0.530593
O8    O     O_R   0.193470 0.640350 0.509110 -0.495559
O9    O     O_R   0.027490 0.681870 0.473430 -0.514377
O10   O     O_R   0.083000 0.479270 0.388100 -0.506803
O11   O     O_R   0.917020 0.520790 0.352410 -0.510711
O12   O     O_3   0.230329 0.109634 0.340236 -0.564419

loop_
_geom_bond_atom_site_label_1
_geom_bond_atom_site_label_2
_ccdc_geom_bond_type
C43   H17   S    
Cu1   Cu2   S    
C1    C21   S    
C43   H16   S    
C47   O3    S    
C27   C29   A    
C11   C13   A    
C49   H31   S    
Cu2   N2    S    
C1    O1    A    
C53   C54   A    
C26   C27   A    
C37   C38   A    
C13   C18   A    
C24   N2    A    
C30   C31   A    
C11   C14   A    
C45   C51   A    
C23   C40   A    
C29   C33   A    
C42   H14   S    
C47   H26   S    
C12   C37   A    
C44   H20   S    
C42   H15   S    
C16   O9    A    
C6    C15   A    
C23   H6    S    
C31   C32   A    
C44   C46   S    
C8    C9    A    
C5    C52   A    
C36   N1    A    
C25   H4    S    
C9    C10   A    
C1    O5    A    
C16   O8    A    
C43   H18   S    
C10   H36   S    
C27   C30   A    
C6    O12   S    
C14   C19   A    
C2    H8    S    
C8    C21   A    
C2    C45   A    
C22   C31   A    
Cu1   O8    S    
C51   C52   A    
C24   C25   A    
C5    H9    S    
C49   O4    S    
C46   H22   S    
C54   H11   S    
C25   C26   A    
C35   H40   S    
Cu1   O6    S    
C48   H28   S    
C44   H19   S    
Cu2   O9    S    
C12   C41   A    
C50   H33   S    
C47   C48   S    
C14   C15   A    
C28   C38   S    
C23   C34   A    
Cu1   N1    S    
C17   C18   A    
C13   C21   A    
C34   C45   A    
C19   H23   S    
C53   H10   S    
C39   H39   S    
C30   C35   A    
C33   H5    S    
C7    C16   S    
C49   C50   S    
C9    O2    S    
C7    C19   A    
C20   H13   S    
C8    H34   S    
C42   C43   S    
C3    C4    S    
Cu2   O11   S    
C39   C40   A    
C6    C20   A    
C52   C53   A    
C26   H3    S    
C15   C17   A    
C40   C41   A    
C17   H12   S    
C48   H29   S    
C49   H30   S    
Cu2   O5    S    
C3    C5    A    
C46   H21   S    
C50   H32   S    
C28   O11   A    
C22   C36   A    
C4    O7    A    
C22   O4    S    
C48   H27   S    
Cu1   O10   S    
C32   C33   A    
C2    C3    A    
C42   O12   S    
C46   H24   S    
C44   O2    S    
C38   C39   A    
C28   O10   A    
C4    O6    A    
C34   H7    S    
C29   N2    A    
C47   H25   S    
C12   C54   A    
Cu2   O7    S    
C10   C11   A    
C36   H38   S    
C50   H35   S    
C24   H2    S    
C7    C20   A    
Cu1   O1    S    
C18   H37   S    
C32   O3    S    
C35   N1    A    
C41   C51   A    
C37   H1    S    
