data_mof_unit_28352.cif
_audit_creation_date              2012-12-10T18:11:51-0500
_audit_creation_method            fapswitch 2.2
_symmetry_space_group_name_H-M    P1
_symmetry_Int_Tables_number       1
_space_group_crystal_system       triclinic
_cell_length_a                    15.843588
_cell_length_b                    10.741563
_cell_length_c                    9.456858
_cell_angle_alpha                 89.603667
_cell_angle_beta                  91.05892
_cell_angle_gamma                 89.010236
_cell_volume                      1608.85732115

loop_
_atom_site_label
_atom_site_type_symbol
_atom_type_description
_atom_site_fract_x
_atom_site_fract_y
_atom_site_fract_z
_atom_type_partial_charge
C1    C     C_R   0.499956 0.259746 0.500009 0.752345
C2    C     C_3   0.082517 0.503288 0.494860 0.206937
C3    C     C_3   0.972833 0.579075 0.599465 -0.162196
C4    C     C_3   0.917201 0.504119 0.497753 0.199358
C5    C     C_3   0.026431 0.619971 0.472521 -0.162109
C6    C     C_3   0.969209 0.544982 0.370771 -0.164316
C7    C     C_1   0.174312 0.502278 0.494924 -0.092402
C8    C     C_1   0.825479 0.503819 0.499929 -0.075463
C9    C     C_3   0.572638 0.068091 0.593478 -0.387147
C10   C     C_3   0.575699 0.924907 0.586635 -0.384323
C11   C     C_3   0.415082 0.073405 0.556717 -0.387985
C12   C     C_R   0.339849 0.500265 0.498847 0.833053
C13   C     C_3   0.510213 0.071729 0.346111 -0.373344
C14   C     C_3   0.499531 0.121455 0.499019 0.175120
C15   C     C_3   0.499712 0.877806 0.498018 0.177351
C16   C     C_3   0.416579 0.929479 0.561290 -0.380143
C17   C     C_3   0.507160 0.929208 0.344890 -0.381321
C18   C     C_3   0.524822 0.623805 0.084038 -0.193767
C19   C     C_3   0.520663 0.627146 0.916939 -0.201429
C20   C     C_3   0.561180 0.405917 0.088608 -0.214116
C21   C     C_3   0.417359 0.471063 0.081400 -0.195351
C22   C     C_3   0.562762 0.407529 0.921911 0.021991
C23   C     C_R   0.499774 0.740008 0.499398 0.752350
C24   C     C_3   0.417129 0.471288 0.914194 -0.221256
C25   C     C_R   0.660118 0.500685 0.500867 0.834526
C26   C     C_3   0.973301 0.387480 0.520041 -0.165328
C27   C     C_3   0.026879 0.428311 0.393106 -0.156265
C28   C     C_1   0.249994 0.501272 0.496254 -0.211679
C29   C     C_1   0.749877 0.502603 0.501633 -0.173792
C30   C     C_3   0.030456 0.462448 0.621719 -0.173090
Cu1   Cu    Cu3+1 0.500040 0.499860 0.642410 0.904238
Cu2   Cu    Cu3+1 0.499960 0.500140 0.357590 0.888085
H1    H     H_    0.050411 0.366448 0.308381 0.119825
H2    H     H_    0.574748 0.885936 0.695988 0.158035
H3    H     H_    0.404363 0.109916 0.664905 0.156243
H4    H     H_    0.459123 0.109828 0.274942 0.158903
H5    H     H_    0.571585 0.102285 0.303385 0.156717
H6    H     H_    0.565292 0.891462 0.295083 0.155332
H7    H     H_    0.452121 0.899756 0.279073 0.157568
H8    H     H_    0.361589 0.107273 0.487987 0.149119
H9    H     H_    0.361224 0.893884 0.500776 0.144365
H10   H     H_    0.588217 0.650385 0.124136 0.133717
H11   H     H_    0.950011 0.292160 0.539872 0.118316
H12   H     H_    0.480370 0.696571 0.122677 0.141076
H13   H     H_    0.470879 0.696106 0.883193 0.133812
H14   H     H_    0.579229 0.663884 0.871805 0.141145
H15   H     H_    0.624737 0.420150 0.136476 0.159654
H16   H     H_    0.396526 0.378951 0.120953 0.137822
H17   H     H_    0.369727 0.540698 0.117219 0.147361
H18   H     H_    0.368086 0.539244 0.875412 0.152142
H19   H     H_    0.397545 0.378603 0.874750 0.137486
H20   H     H_    0.543050 0.311593 0.125138 0.125862
H21   H     H_    0.942627 0.578796 0.267772 0.120476
H22   H     H_    0.539582 0.314485 0.889257 0.092404
H23   H     H_    0.049623 0.715374 0.452942 0.119763
H24   H     H_    0.949174 0.640678 0.684344 0.120152
H25   H     H_    0.056959 0.428556 0.724729 0.117549
H26   H     H_    0.561621 0.094880 0.704932 0.157683
H27   H     H_    0.634125 0.106211 0.560232 0.144549
H28   H     H_    0.635910 0.893353 0.538481 0.148863
N1    N     N_3   0.501840 0.500250 0.143650 -0.118608
N2    N     N_3   0.501160 0.503300 0.856280 -0.126179
O1    O     O_R   0.500050 0.317570 0.620260 -0.599404
O2    O     O_R   0.499980 0.317810 0.379740 -0.596602
O3    O     O_R   0.379110 0.499870 0.620240 -0.587640
O4    O     O_R   0.379040 0.500110 0.379720 -0.585499
O5    O     O_R   0.500020 0.682190 0.620260 -0.598546
O6    O     O_R   0.499950 0.682430 0.379740 -0.599110
O7    O     O_R   0.620960 0.499890 0.620280 -0.558514
O8    O     O_R   0.620890 0.500130 0.379760 -0.592092
H29   H     H_    0.410964 0.897126 0.672751 0.158958
C31   C     C_R   0.655651 0.411759 0.877347 0.165278
C32   C     C_R   0.710833 0.507306 0.919957 -0.149435
C33   C     C_R   0.797266 0.499011 0.893610 -0.146671
C34   C     C_R   0.830912 0.394481 0.827280 -0.102433
C35   C     C_R   0.778063 0.298835 0.785007 -0.152817
C36   C     C_R   0.691622 0.306968 0.810758 -0.149663
H30   H     H_    0.689528 0.585484 0.980657 0.095421
H31   H     H_    0.838613 0.572441 0.928210 0.114007
H32   H     H_    0.898034 0.387066 0.809869 0.122876
H33   H     H_    0.804243 0.217258 0.734179 0.115791
H34   H     H_    0.653288 0.229389 0.782154 0.096408

loop_
_geom_bond_atom_site_label_1
_geom_bond_atom_site_label_2
_ccdc_geom_bond_type
C32   C33   A    
C2    C7    S    
C4    C8    S    
C21   H17   S    
C19   H14   S    
C22   H22   S    
C27   H1    S    
Cu1   O5    S    
C26   C27   S    
C12   C28   S    
C8    C29   T    
Cu2   N1    S    
C9    H26   S    
C10   C15   S    
C18   H10   S    
C5    C6    S    
C11   C14   S    
C19   N2    S    
C15   C16   S    
C30   H25   S    
C15   C17   S    
C18   C19   S    
C17   H7    S    
C23   O5    A    
C20   N1    S    
C6    C27   S    
C32   H30   S    
C2    C27   S    
C9    C10   S    
C13   H5    S    
Cu2   O6    S    
C21   H16   S    
C24   H19   S    
C15   C23   S    
C13   C14   S    
C25   C29   S    
Cu1   N2    S    
C16   H29   S    
C1    O1    A    
C22   C31   S    
C26   H11   S    
C24   H18   S    
C33   C34   A    
C20   H15   S    
Cu1   O1    S    
C35   C36   A    
Cu2   O2    S    
C13   H4    S    
C4    C6    S    
C9    C14   S    
Cu2   O8    S    
C12   O4    A    
C7    C28   T    
C9    H27   S    
C23   O6    A    
C3    C30   S    
C10   H28   S    
C34   C35   A    
C31   C36   A    
C18   H12   S    
C22   N2    S    
C3    H24   S    
Cu1   Cu2   S    
C10   H2    S    
C20   C22   S    
C26   C30   S    
C33   H31   S    
C2    C5    S    
C25   O7    A    
C6    H21   S    
C3    C4    S    
C1    O2    A    
Cu2   O4    S    
C34   H32   S    
Cu1   O3    S    
C24   N2    S    
C21   N1    S    
C5    H23   S    
C31   C32   A    
C3    C5    S    
C35   H33   S    
C4    C26   S    
C19   H13   S    
C18   N1    S    
C1    C14   S    
C12   O3    A    
C13   C17   S    
C2    C30   S    
C11   H3    S    
C20   H20   S    
C36   H34   S    
C17   H6    S    
C11   H8    S    
C11   C16   S    
Cu1   O7    S    
C21   C24   S    
C25   O8    A    
C16   H9    S    
