data_mof_unit_8581.cif
_audit_creation_date              2012-12-11T14:44:37-0500
_audit_creation_method            fapswitch 2.2
_symmetry_space_group_name_H-M    P1
_symmetry_Int_Tables_number       1
_space_group_crystal_system       triclinic
_cell_length_a                    19.879643
_cell_length_b                    7.218957
_cell_length_c                    19.824137
_cell_angle_alpha                 89.981473
_cell_angle_beta                  98.087684
_cell_angle_gamma                 89.888314
_cell_volume                      2816.66547658

loop_
_atom_site_label
_atom_site_type_symbol
_atom_type_description
_atom_site_fract_x
_atom_site_fract_y
_atom_site_fract_z
_atom_type_partial_charge
O1    O     O_R   0.673210 0.377390 0.686390 -0.534106
O2    O     O_R   0.326790 0.622610 0.313610 -0.540043
O3    O     O_R   0.826790 0.877390 0.813610 -0.534401
O4    O     O_R   0.173210 0.122610 0.186390 -0.539953
O5    O     O_R   0.810750 0.706450 0.681250 -0.539895
O6    O     O_R   0.189250 0.293550 0.318750 -0.541215
O7    O     O_R   0.689250 0.206450 0.818750 -0.539750
O8    O     O_R   0.310750 0.793550 0.181250 -0.540684
C1    C     C_R   0.831204 0.538273 0.665420 0.693838
C2    C     C_R   0.168526 0.461701 0.334333 0.691712
C3    C     C_R   0.669014 0.038495 0.834790 0.693790
C4    C     C_R   0.331306 0.961443 0.165504 0.697409
O9    O     O_R   0.672750 0.707060 0.678240 -0.538773
O10   O     O_R   0.327250 0.292940 0.321760 -0.535387
O11   O     O_R   0.827250 0.207060 0.821760 -0.539254
O12   O     O_R   0.172750 0.792940 0.178240 -0.536405
O13   O     O_R   0.687800 0.877990 0.810580 -0.538073
O14   O     O_R   0.312200 0.122010 0.189420 -0.539945
O15   O     O_R   0.812200 0.377990 0.689420 -0.539270
O16   O     O_R   0.187800 0.622010 0.310580 -0.539734
C5    C     C_R   0.649607 0.538890 0.660269 0.683476
C6    C     C_R   0.350197 0.461160 0.339960 0.690635
C7    C     C_R   0.850354 0.038568 0.839664 0.682892
C8    C     C_R   0.150227 0.961710 0.159563 0.683940
O17   O     O_3   0.755100 0.544060 0.793420 -0.374808
O18   O     O_3   0.244900 0.455940 0.206580 -0.377572
O19   O     O_3   0.744900 0.044060 0.706580 -0.374461
O20   O     O_3   0.255100 0.955940 0.293420 -0.375384
V1    V     V_3+5 0.749050 0.818670 0.741950 1.372964
V2    V     V_3+5 0.250950 0.181330 0.258050 1.387301
V3    V     V_3+5 0.750950 0.318670 0.758050 1.372054
V4    V     V_3+5 0.249050 0.681330 0.241950 1.387362
C9    C     C_R   0.090205 0.966664 0.105447 -0.073448
C10   C     C_R   0.910437 0.034162 0.893513 -0.075292
C11   C     C_R   0.410196 0.465342 0.394103 -0.077736
C12   C     C_R   0.589673 0.535191 0.606052 -0.077068
C13   C     C_R   0.021999 0.161548 0.932895 -0.203551
C14   C     C_R   0.978631 0.838100 0.065760 -0.200220
C15   C     C_R   0.477781 0.661945 0.566122 -0.198466
C16   C     C_R   0.522832 0.341606 0.433072 -0.200260
C17   C     C_R   0.964580 0.150090 0.884418 -0.205791
C18   C     C_R   0.035699 0.851847 0.114715 -0.196099
C19   C     C_R   0.535347 0.651849 0.614619 -0.204164
C20   C     C_R   0.465884 0.355747 0.383876 -0.205850
C21   C     C_R   0.913649 0.927184 0.954198 0.021930
C22   C     C_R   0.087511 0.070486 0.043956 0.028608
C23   C     C_R   0.586941 0.428688 0.545296 0.023072
C24   C     C_R   0.411415 0.562599 0.456763 0.083013
C25   C     C_R   0.972958 0.939981 0.004597 0.109329
C26   C     C_R   0.027936 0.058243 0.993821 0.111041
C27   C     C_R   0.527647 0.440818 0.494784 0.104438
C28   C     C_R   0.471782 0.555850 0.505966 0.108499
H1    H     H_    0.037387 0.770148 0.160831 0.126612
H2    H     H_    0.962562 0.233226 0.838612 0.125375
H3    H     H_    0.465015 0.277625 0.337063 0.128785
H4    H     H_    0.537306 0.736468 0.660022 0.126650
H5    H     H_    0.061475 0.253460 0.921117 0.138517
H6    H     H_    0.939411 0.744730 0.077119 0.133066
H7    H     H_    0.438448 0.756298 0.576780 0.124838
H8    H     H_    0.562827 0.251110 0.421265 0.133948
C29   C     C_R   0.576078 0.178324 0.892325 -0.220979
C30   C     C_R   0.424362 0.820901 0.108085 -0.222511
C31   C     C_R   0.920994 0.367448 0.612982 -0.219577
C32   C     C_R   0.078702 0.632747 0.386758 -0.215084
C33   C     C_R   0.620031 0.028768 0.884835 -0.078471
C34   C     C_R   0.380829 0.971187 0.115966 -0.077403
C35   C     C_R   0.880740 0.527453 0.615932 -0.080034
C36   C     C_R   0.118797 0.472483 0.383674 -0.076468
C37   C     C_R   0.616039 0.868148 0.924481 -0.222069
C38   C     C_R   0.385847 0.132982 0.077298 -0.215689
C39   C     C_R   0.888522 0.676360 0.571773 -0.224289
C40   C     C_R   0.110733 0.323300 0.427626 -0.226329
C41   C     C_R   0.569028 0.856346 0.971011 0.090972
C42   C     C_R   0.432358 0.144058 0.030296 0.090334
C43   C     C_R   0.935446 0.665856 0.525087 0.090823
C44   C     C_R   0.064017 0.334134 0.474481 0.093633
C45   C     C_R   0.524527 0.005836 0.977411 0.054588
C46   C     C_R   0.476470 0.993989 0.023508 0.055194
C47   C     C_R   0.975924 0.505552 0.523037 0.054814
C48   C     C_R   0.023659 0.494601 0.476628 0.054816
C49   C     C_R   0.527965 0.167129 0.937771 0.088964
C50   C     C_R   0.472805 0.832433 0.062953 0.089217
C51   C     C_R   0.968743 0.356120 0.567298 0.088648
C52   C     C_R   0.030904 0.644081 0.432411 0.086715
C53   C     C_R   0.565652 0.697541 0.011276 -0.195279
C54   C     C_R   0.435660 0.302811 0.990009 -0.198311
C55   C     C_R   0.942620 0.812810 0.480303 -0.187234
C56   C     C_R   0.056920 0.187270 0.519318 -0.189433
C57   C     C_R   0.517999 0.685739 0.056824 -0.187864
C58   C     C_R   0.482879 0.313988 0.944023 -0.186576
C59   C     C_R   0.989985 0.802150 0.434455 -0.194601
C60   C     C_R   0.009671 0.198078 0.565268 -0.195154
H9    H     H_    0.578375 0.302210 0.861804 0.126442
H10   H     H_    0.421598 0.696394 0.138162 0.126562
H11   H     H_    0.915928 0.252177 0.646965 0.127795
H12   H     H_    0.083906 0.748166 0.352884 0.127706
H13   H     H_    0.649936 0.752630 0.919546 0.125302
H14   H     H_    0.353149 0.250189 0.083460 0.127175
H15   H     H_    0.857627 0.799841 0.573208 0.128206
H16   H     H_    0.141365 0.199398 0.426010 0.129311
H17   H     H_    0.599645 0.581763 0.007260 0.133054
H18   H     H_    0.401847 0.418864 0.994237 0.132502
H19   H     H_    0.911769 0.936556 0.480924 0.135169
H20   H     H_    0.087744 0.063486 0.518666 0.134056
H21   H     H_    0.516376 0.561370 0.087162 0.135853
H22   H     H_    0.484383 0.438213 0.913582 0.135538
H23   H     H_    0.994768 0.918049 0.400711 0.132723
H24   H     H_    0.004941 0.082247 0.599057 0.132183
C61   C     C_3   0.148448 0.185435 0.029831 -0.379724
C62   C     C_3   0.188455 0.086785 0.979372 -0.318868
C63   C     C_3   0.234976 0.221308 0.948692 -0.760609
H25   H     H_    0.204153 0.322741 0.915292 0.222284
H26   H     H_    0.267577 0.297690 0.989377 0.224562
H27   H     H_    0.267977 0.143678 0.917741 0.225244
H28   H     H_    0.219672 0.974433 0.006554 0.188839
H29   H     H_    0.153739 0.022217 0.937122 0.203374
H30   H     H_    0.131165 0.325233 0.011441 0.174855
H31   H     H_    0.184606 0.214549 0.076063 0.191441
C64   C     C_3   0.853162 0.807985 0.966226 -0.383358
C65   C     C_3   0.865301 0.603250 0.950347 -0.265474
C66   C     C_3   0.806688 0.482280 0.966419 -0.718206
H32   H     H_    0.801416 0.492571 0.021329 0.208462
H33   H     H_    0.758332 0.526070 0.935458 0.227233
H34   H     H_    0.816810 0.335444 0.954490 0.213817
H35   H     H_    0.870531 0.587704 0.895570 0.216070
H36   H     H_    0.913088 0.552495 0.980529 0.185897
H37   H     H_    0.842304 0.825256 0.019270 0.163930
H38   H     H_    0.805593 0.855290 0.934879 0.169098
C67   C     C_3   0.347044 0.658489 0.473338 -0.366109
C68   C     C_3   0.313711 0.553195 0.527489 -0.329146
C69   C     C_3   0.292469 0.356927 0.504827 -0.706309
H39   H     H_    0.260706 0.359737 0.454200 0.215115
H40   H     H_    0.337904 0.269097 0.501947 0.224786
H41   H     H_    0.262560 0.293985 0.542176 0.205057
H42   H     H_    0.348304 0.545460 0.576458 0.197070
H43   H     H_    0.267690 0.630967 0.537111 0.186116
H44   H     H_    0.358633 0.802920 0.490173 0.137901
H45   H     H_    0.307872 0.674374 0.428302 0.184451
C70   C     C_3   0.647855 0.310374 0.533415 -0.381724
C71   C     C_3   0.636066 0.105174 0.548677 -0.262481
C72   C     C_3   0.695511 0.985359 0.533536 -0.723269
H46   H     H_    0.701450 0.995663 0.478785 0.209078
H47   H     H_    0.743376 0.030243 0.565000 0.229712
H48   H     H_    0.685862 0.838332 0.545501 0.212476
H49   H     H_    0.629899 0.088589 0.603193 0.215428
H50   H     H_    0.588871 0.054324 0.517598 0.185586
H51   H     H_    0.659130 0.328983 0.480579 0.163236
H52   H     H_    0.695111 0.357363 0.565230 0.171186

loop_
_geom_bond_atom_site_label_1
_geom_bond_atom_site_label_2
_ccdc_geom_bond_type
O17   V3    S    
C39   C43   A    
O1    C5    A    
C16   H8    S    
C55   C59   A    
O19   V1    S    
O13   V1    S    
O3    C7    A    
C63   H25   S    
C48   C52   A    
C69   H41   S    
O15   V3    S    
C61   H30   S    
C5    C12   S    
C45   C46   A    
O7    C3    A    
C6    C11   S    
C70   H51   S    
C50   C57   A    
C9    C18   A    
C32   C36   A    
O9    V1    S    
C14   C18   A    
C72   H47   S    
C18   H1    S    
O16   V4    S    
O4    C8    A    
C29   H9    S    
C31   H11   S    
O1    V3    S    
C12   C23   A    
O2    V4    S    
O3    V1    S    
C38   C42   A    
C32   C52   A    
C66   H34   S    
C62   C63   S    
C60   H24   S    
C67   H45   S    
C56   C60   A    
C2    O16   A    
O2    C6    A    
C37   C41   A    
O14   V2    S    
C52   C59   A    
C45   C49   A    
C63   H27   S    
C44   C56   A    
C16   C20   A    
C36   C40   A    
C64   H38   S    
C21   C64   S    
O11   C7    A    
C15   C28   A    
C30   C50   A    
O12   C8    A    
C14   H6    S    
C9    C22   A    
C10   C17   A    
C38   H14   S    
O10   V2    S    
C11   C24   A    
C56   H20   S    
C1    O15   A    
C61   H31   S    
O5    V1    S    
C31   C35   A    
C70   H52   S    
O7    V3    S    
C30   C34   A    
C27   C28   A    
O8    V4    S    
C59   H23   S    
C71   C72   S    
C58   H22   S    
C54   C58   A    
C72   H48   S    
C71   H50   S    
C14   C25   A    
C53   C57   A    
O18   V4    S    
C23   C27   A    
C4    C34   S    
C31   C51   A    
C1    C35   S    
O5    C1    A    
C51   C60   A    
C46   C50   A    
C21   C25   A    
O8    C4    A    
C7    C10   S    
C15   H7    S    
O9    C5    A    
C40   C44   A    
C63   H26   S    
C10   C21   A    
C42   C54   A    
C64   C65   S    
C11   C20   A    
C41   C53   A    
C66   H32   S    
C65   H36   S    
C55   H19   S    
C49   C58   A    
C43   C55   A    
O6    V2    S    
C68   H42   S    
C30   H10   S    
C24   C67   S    
C23   C70   S    
C69   H39   S    
C54   H18   S    
C62   H29   S    
C53   H17   S    
C65   C66   S    
C67   C68   S    
C40   H16   S    
C3    O13   A    
C65   H35   S    
C68   H43   S    
C44   C48   A    
C69   H40   S    
C71   H49   S    
O6    C2    A    
C15   C19   A    
C70   C71   S    
O11   V3    S    
C2    C36   S    
O12   V4    S    
C16   C27   A    
C22   C26   A    
C8    C9    S    
C57   H21   S    
O10   C6    A    
O20   V2    S    
C68   C69   S    
C29   C49   A    
C61   C62   S    
C47   C51   A    
C13   C26   A    
C20   H3    S    
C34   C38   A    
C39   H15   S    
C33   C37   A    
C32   H12   S    
C35   C39   A    
C13   C17   A    
O4    V2    S    
C17   H2    S    
C66   H33   S    
C47   C48   A    
C29   C33   A    
C19   H4    S    
C24   C28   A    
C67   H44   S    
C25   C26   A    
C42   C46   A    
C22   C61   S    
C4    O14   A    
C41   C45   A    
C12   C19   A    
C72   H46   S    
C43   C47   A    
C62   H28   S    
C13   H5    S    
C3    C33   S    
C37   H13   S    
C64   H37   S    
