data_mof_unit_9654.cif
_audit_creation_date              2012-12-11T15:55:37-0500
_audit_creation_method            fapswitch 2.2
_symmetry_space_group_name_H-M    P1
_symmetry_Int_Tables_number       1
_space_group_crystal_system       triclinic
_cell_length_a                    8.194708
_cell_length_b                    18.783315
_cell_length_c                    19.065674
_cell_angle_alpha                 98.738765
_cell_angle_beta                  94.639984
_cell_angle_gamma                 91.218444
_cell_volume                      2889.40944221

loop_
_atom_site_label
_atom_site_type_symbol
_atom_type_description
_atom_site_fract_x
_atom_site_fract_y
_atom_site_fract_z
_atom_type_partial_charge
Ba1   Ba    Ba6+2 0.152460 0.535140 0.468980 1.639019
Ba2   Ba    Ba6+2 0.657710 0.464850 0.530960 1.629276
C1    C     C_3   0.345336 0.716330 0.215204 -0.359533
C2    C     C_R   0.085255 0.903494 0.575247 -0.092421
C3    C     C_R   0.220744 0.047220 0.564303 -0.109593
C4    C     C_3   0.893050 0.732594 0.327798 0.352455
C5    C     C_R   0.061578 0.023234 0.534903 0.019006
C6    C     C_R   0.277897 0.117455 0.564505 -0.085675
C7    C     C_R   0.179446 0.167575 0.535606 -0.029375
C8    C     C_R   0.023092 0.144412 0.501543 -0.004790
C9    C     C_R   0.964257 0.071820 0.500614 0.022913
C10   C     C_R   0.232804 0.240252 0.539566 -0.007049
C11   C     C_R   0.128058 0.289538 0.513221 -0.305397
C12   C     C_3   0.370836 0.693209 0.288110 0.354926
C13   C     C_R   0.979038 0.267392 0.474753 0.044591
C14   C     C_R   0.926849 0.193511 0.467450 -0.037902
C15   C     C_R   0.843411 0.928793 0.502100 0.022332
C16   C     C_3   0.901193 0.808193 0.308669 -0.368775
C17   C     C_R   0.784303 0.856236 0.501228 -0.001598
C18   C     C_R   0.881358 0.806880 0.534548 -0.037236
C19   C     C_R   0.027031 0.833175 0.574394 -0.026540
C20   C     C_R   0.782364 0.166854 0.426858 -0.024643
C21   C     C_R   0.723837 0.096620 0.426353 -0.090541
C22   C     C_R   0.808829 0.048506 0.465349 0.011954
C23   C     C_3   0.511959 0.683605 0.644458 0.313808
C24   C     C_R   0.746059 0.977434 0.467927 0.016527
C25   C     C_R   0.586470 0.953690 0.438960 -0.103989
C26   C     C_R   0.627424 0.833240 0.467554 -0.035560
C27   C     C_R   0.529023 0.883480 0.438781 -0.092400
C28   C     C_3   0.788634 0.378357 0.311046 0.312136
C29   C     C_R   0.573534 0.760623 0.463828 -0.000878
C30   C     C_R   0.677193 0.711452 0.491040 -0.299082
C31   C     C_R   0.828661 0.733117 0.527426 0.037853
C32   C     C_R   0.607109 0.529588 0.299217 -0.350513
C33   C     C_R   0.461091 0.491397 0.273875 0.017534
C34   C     C_3   0.521062 0.764995 0.666340 -0.397542
C35   C     C_R   0.407867 0.483381 0.200231 0.360430
C36   C     C_R   0.506205 0.513001 0.153101 -0.061617
C37   C     C_R   0.656187 0.548862 0.180018 -0.200232
C38   C     C_R   0.706909 0.556199 0.252704 0.019955
C39   C     C_R   0.449782 0.565242 0.039860 -0.080880
C40   C     C_3   0.754305 0.357281 0.230853 -0.401003
C41   C     C_R   0.396780 0.557661 0.967297 -0.079191
C42   C     C_R   0.347416 0.489649 0.928804 0.058150
C43   C     C_R   0.355797 0.429270 0.963955 -0.092862
C44   C     C_R   0.413090 0.436669 0.035905 -0.035070
C45   C     C_3   0.913002 0.264645 0.673163 0.353956
C46   C     C_R   0.455287 0.504941 0.075371 0.102785
C47   C     C_R   0.147408 0.443638 0.822991 -0.126131
C48   C     C_R   0.098376 0.438213 0.749946 0.014500
C49   C     C_R   0.341517 0.506956 0.733302 0.040348
C50   C     C_R   0.390171 0.513731 0.806021 -0.125857
C51   C     C_R   0.294851 0.481381 0.851518 -0.016454
C52   C     C_3   0.013310 0.618491 0.688023 0.312072
C53   C     C_R   0.199457 0.467197 0.705298 -0.279531
C54   C     C_3   0.036237 0.636479 0.768823 -0.399413
C55   C     C_3   0.295258 0.318985 0.370759 0.305493
C56   C     C_3   0.893840 0.188895 0.691105 -0.348710
C57   C     C_3   0.288895 0.237605 0.348245 -0.401968
C58   C     C_3   0.375177 0.153305 0.771458 0.168566
C59   C     C_3   0.241803 0.380665 0.167534 0.221015
C60   C     C_3   0.432474 0.305693 0.712305 0.379341
C61   C     C_3   0.431928 0.276490 0.782583 0.290789
C62   C     C_R   0.999243 0.951988 0.537083 0.012390
H1    H     H_    0.299785 0.641972 0.286783 0.093968
H2    H     H_    0.171996 0.336902 0.382921 0.009347
H3    H     H_    0.382714 0.332512 0.418762 0.077152
H4    H     H_    0.213960 0.726445 0.202677 0.151378
H5    H     H_    0.198181 0.222497 0.301528 0.117043
H6    H     H_    0.252929 0.209884 0.392173 0.062318
H7    H     H_    0.411386 0.219159 0.333812 0.119703
H8    H     H_    0.503206 0.684120 0.299079 -0.059361
H9    H     H_    0.383931 0.673026 0.174336 0.069893
H10   H     H_    0.635457 0.665299 0.631893 0.014956
H11   H     H_    0.424746 0.670800 0.596222 0.064194
H12   H     H_    0.650319 0.317231 0.218928 0.117485
H13   H     H_    0.610272 0.779888 0.713622 0.124019
H14   H     H_    0.561041 0.791459 0.622105 0.057201
H15   H     H_    0.398600 0.784626 0.679459 0.117892
H16   H     H_    0.419512 0.766258 0.214061 0.104670
H17   H     H_    0.817576 0.811159 0.260440 0.110517
H18   H     H_    0.844178 0.266483 0.620865 0.079730
H19   H     H_    0.045060 0.276033 0.669349 -0.026162
H20   H     H_    0.762291 0.174631 0.693048 0.125374
H21   H     H_    0.945313 0.149516 0.649992 0.072399
H22   H     H_    0.960139 0.185651 0.743610 0.146391
H23   H     H_    0.723203 0.405118 0.205698 0.058569
H24   H     H_    0.305197 0.319476 0.696219 -0.073254
H25   H     H_    0.511021 0.355593 0.720599 0.038062
H26   H     H_    0.402894 0.321337 0.824053 -0.010060
H27   H     H_    0.975747 0.731558 0.376687 0.095329
H28   H     H_    0.557180 0.259381 0.799032 0.026353
H29   H     H_    0.168005 0.345511 0.518647 0.072837
H30   H     H_    0.400712 0.131745 0.588115 0.103094
H31   H     H_    0.099299 0.799804 0.605422 0.096717
H32   H     H_    0.710978 0.199950 0.395207 0.096308
H33   H     H_    0.405904 0.869338 0.415424 0.112459
H34   H     H_    0.864139 0.333294 0.207539 0.115513
H35   H     H_    0.636246 0.655685 0.486534 0.076231
H36   H     H_    0.306606 0.012561 0.586850 0.065084
H37   H     H_    0.198083 0.918432 0.607655 0.054941
H38   H     H_    0.611824 0.081313 0.393439 0.057381
H39   H     H_    0.765276 0.720379 0.338671 -0.062071
H40   H     H_    0.500535 0.988629 0.416856 0.071787
H41   H     H_    0.500953 0.544785 0.827134 0.076951
H42   H     H_    0.392590 0.605109 0.941334 0.064317
H43   H     H_    0.485732 0.618283 0.068230 0.061948
H44   H     H_    0.321849 0.376078 0.935402 0.071163
H45   H     H_    0.128661 0.598949 0.667425 0.003834
H46   H     H_    0.427327 0.388677 0.060302 0.045638
H47   H     H_    0.068786 0.421090 0.857622 0.081550
H48   H     H_    0.734840 0.569693 0.144309 0.100069
H49   H     H_    0.161400 0.463341 0.649116 0.064477
H50   H     H_    0.863530 0.847711 0.353284 0.077172
H51   H     H_    0.648028 0.535132 0.355243 0.086166
H52   H     H_    0.028257 0.822380 0.298171 0.143957
H53   H     H_    0.674888 0.397125 0.333981 0.012251
H54   H     H_    0.884294 0.422203 0.321946 0.064905
H55   H     H_    0.449429 0.146638 0.821357 0.025143
H56   H     H_    0.916051 0.575775 0.673372 0.076515
H57   H     H_    0.450409 0.143262 0.725200 0.055068
H58   H     H_    0.273730 0.112035 0.762682 0.055549
H59   H     H_    0.158250 0.364057 0.205406 0.082467
H60   H     H_    0.361851 0.354604 0.174657 -0.019644
H61   H     H_    0.184919 0.359417 0.113420 0.029332
H62   H     H_    0.141321 0.675421 0.785031 0.126893
H63   H     H_    0.060044 0.587155 0.792677 0.067519
H64   H     H_    0.923585 0.660477 0.789534 0.125056
O1    O     O_2   0.118870 0.674530 0.547560 -0.464076
O2    O     O_2   0.760179 0.447002 0.745980 -0.489679
O3    O     O_3   0.850542 0.313880 0.726614 -0.597321
O4    O     O_3   0.870460 0.585330 0.542110 -0.491871
O5    O     O_3   0.436130 0.464210 0.414140 -0.488638
O6    O     O_2   0.629420 0.533310 0.672080 -0.459103
O7    O     O_3   0.459173 0.651391 0.700826 -0.642712
O8    O     O_2   0.572378 0.242044 0.529988 -0.493126
O9    O     O_3   0.495902 0.254069 0.661294 -0.620571
O10   O     O_3   0.354280 0.631750 0.418430 -0.486849
O11   O     O_2   0.233671 0.757217 0.469485 -0.492380
O12   O     O_3   0.345301 0.351007 0.314235 -0.654193
O13   O     O_3   0.970401 0.681019 0.660677 -0.642601
O14   O     O_3   0.315748 0.747132 0.339262 -0.609051
O15   O     O_2   0.180880 0.466650 0.327890 -0.450666
O16   O     O_3   0.939000 0.596010 0.380670 -0.493686
O17   O     O_2   0.046198 0.552297 0.253573 -0.438457
O18   O     O_3   0.307333 0.222114 0.777665 -0.646336
O19   O     O_3   0.251231 0.456719 0.175433 -0.619996
O20   O     O_3   0.943142 0.683457 0.271068 -0.602354
O21   O     O_2   0.691430 0.325420 0.452420 -0.466993
O22   O     O_3   0.939830 0.414660 0.457830 -0.493731
O23   O     O_3   0.456020 0.368240 0.581510 -0.476098
O24   O     O_3   0.841709 0.317716 0.339335 -0.643641
O25   O     O_3   0.374170 0.535780 0.585810 -0.477246
O26   O     O_3   0.871300 0.403980 0.619270 -0.485495
P1    P     P_3+3 0.947550 0.663200 0.567530 0.972690
P2    P     P_3+3 0.354660 0.445020 0.336980 0.995793
P3    P     P_3+3 0.908718 0.595909 0.288798 0.964974
P4    P     P_3+3 0.862750 0.336790 0.432410 0.971900
P5    P     P_3+3 0.895442 0.401387 0.711131 0.949592
P6    P     P_3+3 0.369374 0.725111 0.423851 0.934548
P7    P     P_3+3 0.448527 0.557763 0.675148 0.946809
P8    P     P_3+3 0.439445 0.275100 0.576717 0.942709

loop_
_geom_bond_atom_site_label_1
_geom_bond_atom_site_label_2
_ccdc_geom_bond_type
Ba2   O22   S    
C12   O14   S    
C52   H56   S    
C25   C27   A    
O5    P2    S    
C39   C41   A    
C9    C22   A    
C1    H4    S    
C55   H2    S    
Ba1   O4    S    
C16   H50   S    
O4    P1    S    
O8    P8    D    
C43   C44   A    
C42   C43   A    
C5    C9    A    
C10   C11   A    
C24   C25   A    
Ba2   O6    S    
C59   H60   S    
C32   C38   A    
C15   C24   A    
C26   C27   A    
C33   C35   A    
C22   C24   A    
Ba1   Ba2   S    
Ba1   O1    S    
C34   H13   S    
C40   H34   S    
C15   C62   A    
C36   C37   A    
C32   C33   A    
C55   C57   S    
C21   H38   S    
C13   C14   A    
C60   H25   S    
C25   H40   S    
C16   H17   S    
C4    O20   S    
C58   H55   S    
C23   H10   S    
C54   H63   S    
Ba1   P1    S    
C42   C51   S    
C39   C46   A    
C17   C18   A    
C6    C7    A    
C61   H28   S    
Ba2   O4    S    
C21   C22   A    
C54   H62   S    
O22   P4    S    
C7    C8    A    
C61   O18   S    
C36   C46   S    
C29   P6    S    
C43   H44   S    
C47   H47   S    
Ba2   O21   S    
Ba2   O26   S    
O7    P7    S    
C58   O18   S    
C55   H3    S    
Ba1   O5    S    
C1    H16   S    
C56   H22   S    
C44   C46   A    
C4    C16   S    
C52   C54   S    
Ba2   O5    S    
C49   C50   A    
C38   P3    S    
C6    H30   S    
C33   P2    S    
C13   P4    S    
C16   H52   S    
C37   C38   A    
C3    C5    A    
O13   P1    S    
C28   H54   S    
C32   H51   S    
C60   H24   S    
O6    P7    D    
C55   O12   S    
C11   H29   S    
O2    P5    D    
C23   H11   S    
C41   H42   S    
Ba1   P2    S    
Ba1   O25   S    
C41   C42   A    
O10   P6    S    
C35   C36   A    
Ba1   O15   S    
C56   H20   S    
O17   P3    D    
C28   O24   S    
C29   C30   A    
C3    H36   S    
Ba2   P4    S    
O23   P8    S    
C2    H37   S    
C60   C61   S    
Ba1   O22   S    
C4    H39   S    
C35   O19   S    
C58   H58   S    
C17   C26   A    
C1    C12   S    
C57   H5    S    
O24   P4    S    
C18   C31   A    
C37   H48   S    
O12   P2    S    
O11   P6    D    
Ba2   O25   S    
C45   H19   S    
C11   C13   A    
C56   H21   S    
C50   C51   A    
O1    P1    D    
O21   P4    D    
Ba2   O23   S    
O3    P5    S    
C14   C20   A    
C39   H43   S    
C23   C34   S    
C20   H32   S    
C45   H18   S    
C26   C29   A    
O14   P6    S    
C34   H15   S    
C50   H41   S    
C3    C6    A    
C59   H61   S    
C31   P1    S    
C28   H53   S    
C48   P5    S    
C19   H31   S    
C2    C62   A    
C40   H12   S    
C48   C53   A    
C30   H35   S    
C27   H33   S    
C59   H59   S    
C12   H8    S    
C30   C31   A    
C44   H46   S    
C59   O19   S    
O26   P5    S    
Ba1   O16   S    
C34   H14   S    
C45   C56   S    
C2    C19   A    
O15   P2    D    
O9    P8    S    
C47   C51   A    
C61   H26   S    
C15   C17   A    
C12   H1    S    
C49   P7    S    
C49   C53   A    
O20   P3    S    
C54   H64   S    
C60   O9    S    
C58   H57   S    
C1    H9    S    
C7    C10   A    
C5    C62   A    
C8    C9    A    
C57   H6    S    
C10   P8    S    
C53   H49   S    
C52   O13   S    
C18   C19   A    
C52   H45   S    
C47   C48   A    
C23   O7    S    
C45   O3    S    
C20   C21   A    
C28   C40   S    
C8    C14   A    
C40   H23   S    
O16   P3    S    
O25   P7    S    
Ba1   O10   S    
C4    H27   S    
C57   H7    S    
