data_mof_unit_10852.cif
_audit_creation_date              2012-12-10T17:28:36-0500
_audit_creation_method            fapswitch 2.2
_symmetry_space_group_name_H-M    P1
_symmetry_Int_Tables_number       1
_space_group_crystal_system       triclinic
_cell_length_a                    10.442536
_cell_length_b                    12.162946
_cell_length_c                    12.861505
_cell_angle_alpha                 92.685422
_cell_angle_beta                  91.432051
_cell_angle_gamma                 82.922257
_cell_volume                      1619.03289925

loop_
_atom_site_label
_atom_site_type_symbol
_atom_type_description
_atom_site_fract_x
_atom_site_fract_y
_atom_site_fract_z
_atom_type_partial_charge
Br1   Br    Br    0.830866 0.248626 0.356998 -0.573166
Br2   Br    Br    0.169134 0.751379 0.642992 -0.573166
C1    C     C_R   0.498007 0.521481 0.700074 0.887007
C2    C     C_R   0.531874 0.553441 0.132168 -0.289193
C3    C     C_R   0.479892 0.452026 0.974648 0.190571
C4    C     C_R   0.520100 0.547976 0.025352 0.190573
C5    C     C_R   0.406933 0.959636 0.385808 -0.313202
C6    C     C_R   0.593067 0.040364 0.614192 -0.313204
C7    C     C_R   0.406667 0.844407 0.399564 0.290432
C8    C     C_R   0.593333 0.155593 0.600435 0.290435
C9    C     C_R   0.538089 0.856788 0.551596 -0.049740
C10   C     C_R   0.461911 0.143212 0.448403 -0.049738
C11   C     C_R   0.532656 0.974067 0.542093 0.044404
C12   C     C_R   0.501992 0.478519 0.299926 0.887008
C13   C     C_R   0.467344 0.025933 0.457906 0.044405
C14   C     C_R   0.740189 0.495032 0.484268 0.914355
C15   C     C_R   0.259810 0.504968 0.515731 0.914353
C16   C     C_R   0.937267 0.283684 0.474836 0.279342
C17   C     C_R   0.062732 0.716317 0.525155 0.279335
C18   C     C_R   0.013656 0.197266 0.523937 -0.203069
C19   C     C_R   0.986345 0.802733 0.476051 -0.203067
C20   C     C_R   0.110908 0.220996 0.596750 0.182856
C21   C     C_R   0.889091 0.779002 0.403241 0.182852
C22   C     C_R   0.137687 0.330124 0.610857 -0.194883
C23   C     C_R   0.501088 0.465698 0.188736 -0.031580
C24   C     C_R   0.862311 0.669874 0.389138 -0.194881
C25   C     C_R   0.071279 0.414135 0.552334 0.007686
C26   C     C_R   0.928719 0.585865 0.447662 0.007689
C27   C     C_R   0.959083 0.394351 0.497536 0.003962
C28   C     C_R   0.040915 0.605649 0.502459 0.003962
C29   C     C_R   0.121960 0.513873 0.538401 -0.149948
C30   C     C_R   0.878038 0.486127 0.461595 -0.149947
C31   C     C_3   0.803343 0.865005 0.344306 -0.441868
C32   C     C_3   0.817608 0.984325 0.376601 -0.797577
C33   C     C_3   0.196653 0.134992 0.655685 -0.441870
C34   C     C_R   0.498908 0.534302 0.811264 -0.031581
C35   C     C_3   0.182393 0.015673 0.623383 -0.797609
C36   C     C_3   0.670163 0.219104 0.678960 -0.356220
C37   C     C_3   0.798554 0.155078 0.714002 -0.920703
C38   C     C_3   0.329841 0.780893 0.321038 -0.356209
C39   C     C_3   0.201459 0.844921 0.285978 -0.920719
C40   C     C_R   0.546937 0.637282 0.968589 -0.217093
C41   C     C_R   0.453056 0.362720 0.031411 -0.217094
C42   C     C_R   0.536274 0.630465 0.861131 -0.170088
C43   C     C_R   0.463721 0.369536 0.138869 -0.170088
C44   C     C_R   0.468119 0.446560 0.867832 -0.289193
H1    H     H_    0.357576 0.998688 0.319673 0.166039
H2    H     H_    0.560215 0.698721 0.817154 0.158839
H3    H     H_    0.577211 0.711271 0.007050 0.138873
H4    H     H_    0.422781 0.288732 0.992950 0.138873
H5    H     H_    0.408117 0.182710 0.384377 0.136737
H6    H     H_    0.591883 0.817290 0.615623 0.136738
H7    H     H_    0.914822 0.003649 0.356172 0.269167
H8    H     H_    0.743147 0.038621 0.333731 0.289988
H9    H     H_    0.801740 0.000003 0.461308 0.261567
H10   H     H_    0.823009 0.851618 0.259833 0.210873
H11   H     H_    0.700925 0.852760 0.355729 0.216665
H12   H     H_    0.642425 0.001312 0.680326 0.166038
H13   H     H_    0.085183 0.996344 0.643812 0.269175
H14   H     H_    0.198257 0.000003 0.538677 0.261572
H15   H     H_    0.256855 0.961379 0.666246 0.289997
H16   H     H_    0.299072 0.147240 0.644269 0.216666
H17   H     H_    0.176982 0.148374 0.740157 0.210878
H18   H     H_    0.782723 0.097786 0.775839 0.259454
H19   H     H_    0.846615 0.106725 0.647575 0.268284
H20   H     H_    0.863875 0.213955 0.746876 0.265950
H21   H     H_    0.695709 0.294309 0.645389 0.269344
H22   H     H_    0.610670 0.243006 0.748594 0.197560
H23   H     H_    0.997411 0.112867 0.503917 0.156972
H24   H     H_    0.153385 0.893278 0.352397 0.268284
H25   H     H_    0.217307 0.902208 0.224141 0.259456
H26   H     H_    0.136142 0.786045 0.253096 0.265951
H27   H     H_    0.389343 0.756977 0.251412 0.197568
H28   H     H_    0.304280 0.705696 0.354616 0.269339
H29   H     H_    0.002591 0.887133 0.496068 0.156973
H30   H     H_    0.216746 0.348585 0.662560 0.148525
H31   H     H_    0.783250 0.651412 0.337436 0.148526
H32   H     H_    0.563678 0.626603 0.171255 0.143529
H33   H     H_    0.436314 0.373399 0.828745 0.143532
H34   H     H_    0.439782 0.301280 0.182846 0.158838
N1    N     N_R   0.523130 0.207800 0.519340 -0.115416
N2    N     N_R   0.476870 0.792200 0.480660 -0.115416
O1    O     O_R   0.506170 0.421700 0.658830 -0.669034
O2    O     O_R   0.493830 0.578300 0.341170 -0.669034
O3    O     O_R   0.491330 0.609310 0.646410 -0.592541
O4    O     O_R   0.508670 0.390690 0.353590 -0.592541
O5    O     O_R   0.690650 0.406190 0.506220 -0.601846
O6    O     O_R   0.309350 0.593810 0.493780 -0.601846
O7    O     O_R   0.675800 0.593810 0.493800 -0.620026
O8    O     O_R   0.324200 0.406190 0.506200 -0.620025
Zn1   Zn    Zn3+2 0.509910 0.374730 0.508290 0.948213
Zn2   Zn    Zn3+2 0.490090 0.625270 0.491710 0.948212

loop_
_geom_bond_atom_site_label_1
_geom_bond_atom_site_label_2
_ccdc_geom_bond_type
C6    C11   A    
O5    Zn1   S    
C1    O3    A    
C15   O6    A    
C22   C25   A    
C12   O2    A    
C2    C23   A    
C37   H18   S    
Br1   C16   S    
C17   C19   A    
C27   C30   A    
O4    Zn1   S    
C44   H33   S    
C25   C27   A    
N2    Zn2   S    
C38   H27   S    
C21   C24   A    
C9    H6    S    
C6    H12   S    
C19   C21   A    
O6    Zn2   S    
C21   C31   S    
C14   O5    A    
C34   C44   A    
C43   H34   S    
C7    N2    A    
C39   H25   S    
C31   H10   S    
C5    C13   A    
C3    C41   A    
C32   H9    S    
C37   H19   S    
C40   C42   A    
O3    Zn2   S    
C9    N2    A    
C36   C37   S    
C24   H31   S    
C25   C29   A    
C26   C30   A    
C12   O4    A    
C2    C4    A    
C22   H30   S    
C7    C38   S    
C5    H1    S    
C2    H32   S    
C20   C33   S    
C10   C13   A    
C28   C29   A    
C31   C32   S    
C16   C27   A    
O7    Zn2   S    
C41   C43   A    
C35   H13   S    
C39   H26   S    
C38   C39   S    
C36   H22   S    
C32   H8    S    
C11   C13   A    
C1    O1    A    
C15   C29   S    
C37   H20   S    
C20   C22   A    
C18   H23   S    
C34   C42   A    
C23   C43   A    
C10   H5    S    
C5    C7    A    
C31   H11   S    
C33   C35   S    
Br2   C17   S    
C15   O8    A    
C18   C20   A    
C35   H15   S    
C41   H4    S    
C14   C30   S    
O1    Zn1   S    
C3    C44   A    
C19   H29   S    
C8    N1    A    
C24   C26   A    
C8    C36   S    
C26   C28   A    
C9    C11   A    
O8    Zn1   S    
C3    C4    A    
C1    C34   S    
C38   H28   S    
C10   N1    A    
C33   H16   S    
C16   C18   A    
C12   C23   S    
C35   H14   S    
C40   H3    S    
N1    Zn1   S    
C14   O7    A    
C36   H21   S    
C32   H7    S    
C6    C8    A    
C4    C40   A    
C33   H17   S    
O2    Zn2   S    
C17   C28   A    
C42   H2    S    
C39   H24   S    
