data_mof_unit_25557.cif
_audit_creation_date              2012-12-11T15:14:44-0500
_audit_creation_method            fapswitch 2.2
_symmetry_space_group_name_H-M    P1
_symmetry_Int_Tables_number       1
_space_group_crystal_system       triclinic
_cell_length_a                    22.167395
_cell_length_b                    7.240118
_cell_length_c                    19.367715
_cell_angle_alpha                 90.755501
_cell_angle_beta                  99.420301
_cell_angle_gamma                 90.080575
_cell_volume                      3066.20687085

loop_
_atom_site_label
_atom_site_type_symbol
_atom_type_description
_atom_site_fract_x
_atom_site_fract_y
_atom_site_fract_z
_atom_type_partial_charge
O1    O     O_R   0.448470 0.506130 0.415700 -0.536000
O2    O     O_R   0.551530 0.006130 0.584300 -0.534245
O3    O     O_R   0.436320 0.174490 0.555800 -0.532555
O4    O     O_R   0.563680 0.674490 0.444200 -0.534245
C1    C     C_R   0.421317 0.344823 0.575173 0.708791
C2    C     C_R   0.578470 0.843484 0.424529 0.706073
O5    O     O_R   0.441350 0.176340 0.414480 -0.533809
O6    O     O_R   0.558650 0.676340 0.585520 -0.532615
O7    O     O_R   0.556600 0.007100 0.441970 -0.534436
O8    O     O_R   0.443400 0.507100 0.558030 -0.534685
C3    C     C_R   0.426862 0.342972 0.389022 0.685979
C4    C     C_R   0.572663 0.845462 0.611076 0.687671
O9    O     O_3   0.537810 0.339550 0.509190 -0.372998
O10   O     O_3   0.462190 0.839550 0.490810 -0.374590
V1    V     V_3+5 0.492990 0.064280 0.498300 1.413763
V2    V     V_3+5 0.507010 0.564280 0.501700 1.411510
C5    C     C_R   0.872654 0.923090 0.692681 0.236549
C6    C     C_R   0.133849 0.564493 0.301724 0.270992
C7    C     C_R   0.887045 0.937702 0.820130 -0.127548
C8    C     C_R   0.112599 0.453047 0.180644 -0.152723
C9    C     C_R   0.591456 0.803170 0.738266 -0.205467
C10   C     C_R   0.400750 0.233915 0.267524 -0.197899
C11   C     C_R   0.629889 0.772758 0.801112 -0.188925
C12   C     C_R   0.357839 0.167642 0.212512 -0.190602
C13   C     C_R   0.693456 0.790954 0.806650 0.302411
C14   C     C_R   0.295528 0.205157 0.209448 0.297516
C15   C     C_R   0.719271 0.861263 0.749140 0.063982
C16   C     C_R   0.276344 0.335608 0.257459 0.066684
C17   C     C_R   0.679368 0.882479 0.683819 -0.032889
C18   C     C_R   0.320464 0.392414 0.316466 -0.020909
C19   C     C_R   0.783361 0.900883 0.752868 -0.008120
C20   C     C_R   0.214755 0.404782 0.250660 -0.025899
C21   C     C_R   0.807826 0.924351 0.689944 -0.026958
C22   C     C_R   0.195771 0.503217 0.307811 -0.022186
C23   C     C_R   0.767163 0.950835 0.626093 0.305465
C24   C     C_R   0.239977 0.544598 0.368028 0.303826
C25   C     C_R   0.703950 0.931209 0.624448 -0.237611
C26   C     C_R   0.301099 0.495245 0.370220 -0.273949
C27   C     C_R   0.823682 0.924475 0.817243 -0.251302
C28   C     C_R   0.172830 0.389573 0.186878 -0.235767
C29   C     C_R   0.911964 0.931532 0.758104 0.215838
C30   C     C_R   0.092949 0.539786 0.238441 0.206928
C31   C     C_R   0.615278 0.851697 0.678684 -0.062587
C32   C     C_R   0.382777 0.337053 0.322129 -0.071701
H1    H     H_    0.806735 0.938967 0.866144 0.166303
H2    H     H_    0.187320 0.342467 0.139186 0.171161
C33   C     C_3   0.775621 0.819765 0.308913 0.199823
C34   C     C_3   0.225049 0.311549 0.691539 0.217716
C35   C     C_3   0.796555 0.004440 0.282187 0.325932
C36   C     C_3   0.200359 0.494239 0.717357 0.301960
C37   C     C_1   0.876020 0.943024 0.121732 -0.188075
C38   C     C_1   0.124243 0.438930 0.878956 -0.193166
C39   C     C_1   0.623825 0.850437 0.378385 -0.203445
C40   C     C_1   0.375534 0.355638 0.620717 -0.195986
C41   C     C_3   0.771765 0.730574 0.235075 -0.244588
C42   C     C_3   0.231551 0.230192 0.765928 -0.171757
C43   C     C_3   0.792434 0.918485 0.208180 0.012492
C44   C     C_3   0.207321 0.416001 0.792001 0.011032
C45   C     C_3   0.704727 0.797894 0.218797 0.302143
C46   C     C_3   0.296993 0.312040 0.780739 0.299777
C47   C     C_3   0.707984 0.881226 0.292934 -0.031909
C48   C     C_3   0.291188 0.387607 0.706056 -0.042332
C49   C     C_3   0.724660 0.982705 0.190050 -0.246430
C50   C     C_3   0.273620 0.495420 0.808564 -0.276213
C51   C     C_3   0.729349 0.065174 0.265359 0.230034
C52   C     C_3   0.266223 0.569879 0.732626 0.206807
C53   C     C_1   0.838382 0.933626 0.160714 0.000642
C54   C     C_1   0.161853 0.428653 0.840020 -0.004667
C55   C     C_1   0.661643 0.860878 0.339685 -0.023048
C56   C     C_1   0.337524 0.368391 0.659140 -0.028412
O11   O     O_R   0.056650 0.288730 0.942060 -0.532980
O12   O     O_R   0.943350 0.788730 0.057940 -0.533450
O13   O     O_R   0.058660 0.616870 0.085540 -0.545237
O14   O     O_R   0.941340 0.116870 0.914460 -0.545378
C57   C     C_R   0.072485 0.450631 0.111394 0.718447
C58   C     C_R   0.927697 0.947900 0.888692 0.766380
O15   O     O_R   0.063700 0.618520 0.944220 -0.529574
O16   O     O_R   0.936300 0.118520 0.055780 -0.540891
O17   O     O_R   0.948460 0.787610 0.915680 -0.526881
O18   O     O_R   0.051540 0.287610 0.084320 -0.531364
C59   C     C_R   0.078736 0.449542 0.924730 0.713198
C60   C     C_R   0.921389 0.950740 0.075554 0.701835
O19   O     O_3   0.962230 0.453430 0.990860 -0.377737
O20   O     O_3   0.037770 0.953430 0.009140 -0.371769
V3    V     V_3+5 0.007010 0.728750 0.001700 1.420830
V4    V     V_3+5 0.992990 0.228750 0.998300 1.400981
N1    N     N_2   0.976785 0.927156 0.762291 -0.533139
H3    H     H_    0.992229 0.834510 0.728386 0.259911
C61   C     C_3   0.005970 0.106460 0.763514 -0.561899
H4    H     H_    0.992712 0.176402 0.712636 0.179720
H5    H     H_    0.056402 0.089202 0.773461 0.198580
H6    H     H_    0.993036 0.195376 0.805779 0.219523
N2    N     N_2   0.033106 0.616216 0.232725 -0.523957
H7    H     H_    0.024957 0.724129 0.198310 0.264987
C62   C     C_3   0.983330 0.484512 0.226324 -0.550699
H8    H     H_    0.941479 0.556567 0.236553 0.191928
H9    H     H_    0.994253 0.371899 0.264722 0.199899
H10   H     H_    0.973727 0.424127 0.172729 0.198617
N3    N     N_2   0.803140 0.732507 0.373324 -0.524629
H11   H     H_    0.779643 0.617623 0.384928 0.260582
C63   C     C_3   0.868730 0.706989 0.382966 -0.529521
H12   H     H_    0.882304 0.594571 0.420803 0.177541
H13   H     H_    0.892346 0.834902 0.404865 0.219844
H14   H     H_    0.884042 0.670713 0.332734 0.197750
N4    N     N_2   0.199651 0.208964 0.628831 -0.520541
H15   H     H_    0.214779 0.252300 0.584259 0.252601
C64   C     C_3   0.134727 0.171398 0.619210 -0.550026
H16   H     H_    0.124263 0.049044 0.584143 0.195885
H17   H     H_    0.108754 0.291004 0.594569 0.198108
H18   H     H_    0.119688 0.142417 0.669933 0.205460
N5    N     N_2   0.705025 0.246690 0.276608 -0.512459
H19   H     H_    0.663536 0.269265 0.245228 0.258752
C65   C     C_3   0.705084 0.302748 0.348445 -0.572988
H20   H     H_    0.691072 0.449514 0.349978 0.197192
H21   H     H_    0.751298 0.287792 0.379816 0.199351
H22   H     H_    0.671529 0.220644 0.371755 0.206306
N6    N     N_2   0.286728 0.754422 0.719500 -0.505920
H23   H     H_    0.330161 0.782567 0.745706 0.271940
C66   C     C_3   0.277968 0.810701 0.647281 -0.500788
H24   H     H_    0.296017 0.952959 0.644352 0.221694
H25   H     H_    0.228717 0.811924 0.624967 0.216169
H26   H     H_    0.302932 0.717867 0.615844 0.184271
H27   H     H_    0.702884 0.049759 0.141041 0.130646
H28   H     H_    0.294452 0.570736 0.856934 0.135075
N7    N     N_2   0.653962 0.686741 0.184632 -0.500160
H29   H     H_    0.639610 0.590393 0.217156 0.259988
C67   C     C_3   0.661119 0.611216 0.117021 -0.546822
H30   H     H_    0.617957 0.542169 0.092687 0.192673
H31   H     H_    0.698514 0.507696 0.122902 0.193090
H32   H     H_    0.671391 0.722874 0.081849 0.202028
N8    N     N_2   0.350294 0.213820 0.814570 -0.500487
H33   H     H_    0.390312 0.286967 0.815173 0.254089
C68   C     C_3   0.344802 0.136300 0.881642 -0.551755
H34   H     H_    0.387212 0.059977 0.902220 0.191743
H35   H     H_    0.305871 0.037562 0.876108 0.207681
H36   H     H_    0.338014 0.247835 0.919559 0.189320
H37   H     H_    0.787884 0.593965 0.219655 0.139622
H38   H     H_    0.218319 0.090198 0.780418 0.136654
N9    N     N_2   0.790059 0.016802 0.565999 -0.482882
H39   H     H_    0.813358 0.140742 0.573744 0.259781
C69   C     C_3   0.754767 0.990589 0.496901 -0.516569
H40   H     H_    0.784195 0.019830 0.457314 0.217543
H41   H     H_    0.715648 0.087805 0.488841 0.172442
H42   H     H_    0.738389 0.845481 0.489443 0.211084
N10   N     N_2   0.224407 0.643306 0.426503 -0.470095
H43   H     H_    0.250650 0.760386 0.439362 0.249987
C70   C     C_3   0.221785 0.529792 0.486779 -0.545030
H44   H     H_    0.200076 0.608834 0.525416 0.190295
H45   H     H_    0.268558 0.488800 0.511469 0.172795
H46   H     H_    0.193982 0.403674 0.471444 0.203108
N11   N     N_2   0.898199 0.903870 0.629941 -0.503117
H47   H     H_    0.938900 0.972183 0.629458 0.254995
C71   C     C_3   0.898083 0.716863 0.602615 -0.509531
H48   H     H_    0.927958 0.627641 0.639921 0.170701
H49   H     H_    0.915549 0.716655 0.552065 0.193307
H50   H     H_    0.850922 0.659270 0.593152 0.215815
N12   N     N_2   0.113076 0.661751 0.357798 -0.462362
H51   H     H_    0.094554 0.789486 0.344346 0.261617
C72   C     C_3   0.076281 0.554688 0.398082 -0.484019
H52   H     H_    0.027700 0.553832 0.372456 0.195237
H53   H     H_    0.078931 0.618521 0.450918 0.187405
H54   H     H_    0.092947 0.410168 0.404183 0.184021
H55   H     H_    0.542840 0.778366 0.735120 0.121601
H56   H     H_    0.447825 0.189672 0.270794 0.125767
N13   N     N_2   0.730269 0.717293 0.867165 -0.547964
H57   H     H_    0.710677 0.724916 0.911922 0.246833
C73   C     C_3   0.754901 0.535921 0.856603 -0.536532
H58   H     H_    0.717249 0.433030 0.844631 0.192890
H59   H     H_    0.785699 0.493983 0.904925 0.195889
H60   H     H_    0.781855 0.536998 0.813041 0.213354
N14   N     N_2   0.253069 0.092623 0.164017 -0.544626
H61   H     H_    0.269007 0.044822 0.119932 0.248378
C74   C     C_3   0.225128 0.947433 0.198885 -0.527161
H62   H     H_    0.260372 0.847282 0.222306 0.195167
H63   H     H_    0.190642 0.872886 0.160378 0.198052
H64   H     H_    0.201545 0.005867 0.240573 0.209762
H65   H     H_    0.610188 0.722466 0.844955 0.120573
H66   H     H_    0.372760 0.073008 0.174983 0.122287
H67   H     H_    0.673250 0.955063 0.576110 0.125238
H68   H     H_    0.333386 0.536139 0.416020 0.138136
N15   N     N_2   0.847431 0.108692 0.319995 -0.508740
H69   H     H_    0.846217 0.119910 0.372819 0.253468
C75   C     C_3   0.859656 0.283000 0.290243 -0.582719
H70   H     H_    0.903558 0.338407 0.318619 0.191322
H71   H     H_    0.822982 0.381430 0.297023 0.230695
H72   H     H_    0.863061 0.267004 0.233955 0.212690
N16   N     N_2   0.146819 0.585157 0.680086 -0.516499
H73   H     H_    0.148316 0.600955 0.627629 0.244887
C76   C     C_3   0.127491 0.749865 0.712955 -0.554167
H74   H     H_    0.087041 0.808597 0.679068 0.184695
H75   H     H_    0.164645 0.853851 0.720213 0.225871
H76   H     H_    0.114263 0.717806 0.764223 0.217934

loop_
_geom_bond_atom_site_label_1
_geom_bond_atom_site_label_2
_ccdc_geom_bond_type
N14   H61   S    
C49   C51   S    
N12   H51   S    
C9    H55   S    
C41   C45   S    
C15   C17   A    
C30   N2    S    
C64   H17   S    
N4    H15   S    
C70   H44   S    
O1    C3    A    
C58   O17   A    
N1    H3    S    
C11   H65   S    
C39   C55   T    
C2    O7    A    
O12   V3    S    
C62   H10   S    
C35   C43   S    
C73   H59   S    
C74   H62   S    
O5    C3    A    
C8    C30   A    
N4    C64   S    
C18   C26   A    
N13   H57   S    
O14   C58   A    
C7    C27   A    
C7    C58   S    
C23   C25   A    
C12   C14   A    
C4    C31   S    
N6    C66   S    
C72   H52   S    
N10   H43   S    
C8    C28   A    
C74   H64   S    
C33   N3    S    
C48   C56   S    
C46   C48   S    
C76   H75   S    
C51   N5    S    
O18   V4    S    
C23   N9    S    
C9    C31   A    
C10   C32   A    
C71   H48   S    
N3    H11   S    
C19   C27   A    
C52   N6    S    
C68   H36   S    
C64   H16   S    
C72   H53   S    
C71   H49   S    
C57   O18   A    
C38   C54   T    
C27   H1    S    
C65   H22   S    
O16   V4    S    
C66   H25   S    
N7    H29   S    
N11   H47   S    
O2    C4    A    
N12   C72   S    
C17   C31   A    
N11   C71   S    
O13   C57   A    
C18   C32   A    
N13   C73   S    
C5    N11   S    
C5    C21   A    
C43   C53   S    
C29   N1    S    
C36   N16   S    
C46   N8    S    
N10   C70   S    
C43   C49   S    
C73   H60   S    
C74   H63   S    
C9    C11   A    
C44   C50   S    
C25   H67   S    
C45   C47   S    
C26   H68   S    
C48   C52   S    
C15   C19   A    
C36   C44   S    
C63   H12   S    
C1    C40   S    
C16   C20   A    
C70   H46   S    
O20   V3    S    
C33   C35   S    
C69   H42   S    
C73   H58   S    
O5    V1    S    
C13   N13   S    
N15   H69   S    
C42   C46   S    
C8    C57   S    
C61   H6    S    
C69   H41   S    
C50   C52   S    
O4    V2    S    
C76   H76   S    
C28   H2    S    
C75   H70   S    
C67   H31   S    
C47   C51   S    
O11   V4    S    
C42   H38   S    
O16   C60   A    
C34   C48   S    
C34   N4    S    
C40   C56   T    
O15   C59   A    
O6    C4    A    
C19   C21   A    
C72   H54   S    
C7    C29   A    
C3    C32   S    
N5    C65   S    
O1    V2    S    
C37   C53   T    
O14   V4    S    
C71   H50   S    
N7    C67   S    
O2    V1    S    
C36   C52   S    
C37   C60   S    
O13   V3    S    
C35   C51   S    
C35   N15   S    
C44   C54   S    
N3    C63   S    
C14   N14   S    
C63   H14   S    
C41   C43   S    
C12   H66   S    
C68   H34   S    
C64   H18   S    
C10   C12   A    
C75   H72   S    
O4    C2    A    
C61   H5    S    
C2    C39   S    
C67   H30   S    
O3    C1    A    
O17   V3    S    
C20   C28   A    
O3    V1    S    
C33   C41   S    
C65   H20   S    
C63   H13   S    
C66   H26   S    
C47   C55   S    
C34   C42   S    
N5    H19   S    
C70   H45   S    
C45   C49   S    
N8    C68   S    
C33   C47   S    
C49   H27   S    
N9    H39   S    
C62   H9    S    
C45   N7    S    
N2    H7    S    
C14   C16   A    
C41   H37   S    
C38   C59   S    
C46   C50   S    
C6    C30   A    
C10   H56   S    
O7    V1    S    
C67   H32   S    
C16   C18   A    
C6    N12   S    
C50   H28   S    
N6    H23   S    
C24   C26   A    
N9    C69   S    
N2    C62   S    
C6    C22   A    
C34   C36   S    
C21   C23   A    
C42   C44   S    
C22   C24   A    
C11   C13   A    
C76   H74   S    
C5    C29   A    
N16   C76   S    
O15   V3    S    
N14   C74   S    
C24   N10   S    
C1    O8    A    
O19   V4    S    
N16   H73   S    
C75   H71   S    
O6    V2    S    
C66   H24   S    
O9    V2    S    
C17   C25   A    
C62   H8    S    
C68   H35   S    
N1    C61   S    
O10   V1    S    
O8    V2    S    
O11   C59   A    
C61   H4    S    
C69   H40   S    
O12   C60   A    
N8    H33   S    
N15   C75   S    
C20   C22   A    
C65   H21   S    
C13   C15   A    
