data_mof_unit_27584.cif
_audit_creation_date              2013-03-05T15:55:21-0500
_audit_creation_method            fapswitch 2.2
_symmetry_space_group_name_H-M    P1
_symmetry_Int_Tables_number       1
_space_group_crystal_system       triclinic
_cell_length_a                    27.686218
_cell_length_b                    10.623736
_cell_length_c                    9.932901
_cell_angle_alpha                 90.447941
_cell_angle_beta                  90.110866
_cell_angle_gamma                 93.195337
_cell_volume                      2916.93527692

loop_
_atom_site_label
_atom_site_type_symbol
_atom_site_description
_atom_site_fract_x
_atom_site_fract_y
_atom_site_fract_z
_atom_type_partial_charge
O1    O     O_R   0.500000 0.316780 0.614690 -0.648337
O2    O     O_R   0.500000 0.316750 0.385360 -0.547710
C1    C     C_R   0.501081 0.260809 0.499608 0.893979
O3    O     O_R   0.428760 0.500030 0.614650 -0.650159
O4    O     O_R   0.428750 0.500010 0.385320 -0.553120
C2    C     C_R   0.406065 0.498419 0.499947 0.943881
Zn1   Zn    Zn3+2 0.500000 0.500020 0.653130 0.962469
Zn2   Zn    Zn3+2 0.500000 0.499980 0.346870 1.013991
O5    O     O_R   0.500000 0.683250 0.614640 -0.614550
O6    O     O_R   0.500000 0.683220 0.385310 -0.627022
O7    O     O_R   0.571250 0.499990 0.614680 -0.586127
O8    O     O_R   0.571240 0.499970 0.385350 -0.574006
C3    C     C_R   0.501737 0.739487 0.500456 0.853412
C4    C     C_R   0.593998 0.497392 0.500074 0.885558
C5    C     C_R   0.175574 0.350975 0.514507 0.593648
O9    O     O_2   0.199290 0.244636 0.531736 -0.544830
N1    N     N_R   0.200996 0.463693 0.498499 -0.336677
C6    C     C_R   0.178537 0.573430 0.480151 0.586496
C7    C     C_R   0.277508 0.476912 0.378330 -0.195218
C8    C     C_R   0.327652 0.486920 0.378007 -0.169006
C9    C     C_R   0.327981 0.479323 0.622422 -0.302243
C10   C     C_R   0.277301 0.465391 0.623240 0.582732
C11   C     C_R   0.252485 0.467552 0.500155 0.222799
C12   C     C_R   0.100926 0.457603 0.493100 -0.058847
C13   C     C_R   0.124951 0.345814 0.512685 -0.113633
C14   C     C_R   0.098125 0.231473 0.526931 -0.184959
C15   C     C_R   0.128066 0.572460 0.476536 -0.111707
C16   C     C_R   0.353207 0.489200 0.500065 -0.098574
H1    H     H_    0.347583 0.483687 0.716815 0.175968
H2    H     H_    0.115951 0.143674 0.535947 0.226331
C17   C     C_R   0.646608 0.482619 0.499760 -0.271318
C18   C     C_R   0.971928 0.342514 0.530707 0.063353
C19   C     C_R   0.975523 0.558785 0.442039 0.060394
C20   C     C_R   0.948433 0.449738 0.485897 0.074001
C21   C     C_R   0.943715 0.243549 0.591134 -0.124652
C22   C     C_R   0.893586 0.245119 0.595784 -0.156016
C23   C     C_R   0.869991 0.345914 0.541262 -0.037110
C24   C     C_R   0.897367 0.448459 0.485823 -0.059605
C25   C     C_R   0.873683 0.550318 0.431221 -0.032244
C26   C     C_R   0.823227 0.548257 0.434123 0.530635
N2    N     N_R   0.797473 0.448796 0.490469 -0.336840
C27   C     C_R   0.819494 0.348423 0.543302 0.535772
C28   C     C_R   0.718955 0.426128 0.380658 -0.197100
C29   C     C_R   0.669170 0.437512 0.382081 0.444172
C30   C     C_R   0.674523 0.509856 0.617387 0.459348
C31   C     C_R   0.724309 0.490382 0.614558 -0.205762
C32   C     C_R   0.746214 0.452146 0.496151 0.194957
O10   O     O_2   0.792567 0.251815 0.597301 -0.527638
C33   C     C_R   0.022810 0.340017 0.517227 -0.075554
C34   C     C_R   0.049845 0.454643 0.490132 -0.049416
C35   C     C_R   0.026255 0.566475 0.460256 -0.073731
C36   C     C_R   0.047878 0.227585 0.527945 0.606680
H3    H     H_    0.736571 0.397172 0.289088 0.165594
H4    H     H_    0.873420 0.167142 0.643033 0.199511
H5    H     H_    0.959642 0.166606 0.641790 0.220111
O11   O     O_2   0.205105 0.682956 0.465703 -0.532438
C37   C     C_R   0.104437 0.683920 0.459625 -0.184695
H6    H     H_    0.346303 0.493813 0.282369 0.183188
H7    H     H_    0.257889 0.477424 0.283913 0.164010
H8    H     H_    0.124652 0.773968 0.453002 0.224773
C38   C     C_R   0.950884 0.655158 0.378998 -0.119128
C39   C     C_R   0.900747 0.651253 0.374442 -0.153215
O12   O     O_2   0.799947 0.645411 0.382644 -0.553033
C40   C     C_R   0.054350 0.682022 0.452921 0.603712
H9    H     H_    0.969631 0.732341 0.327587 0.219774
H10   H     H_    0.883308 0.728166 0.326800 0.200043
H11   H     H_    0.746631 0.506998 0.703122 0.154079
H12   H     H_    0.438274 0.102980 0.384093 0.207406
C41   C     C_R   0.582615 0.145312 0.621970 -0.323063
H13   H     H_    0.584859 0.246836 0.615992 0.157226
C42   C     C_R   0.620441 0.086694 0.686185 0.595962
C43   C     C_R   0.620644 0.955491 0.684756 -0.200373
H14   H     H_    0.650493 0.909576 0.729969 0.157669
C44   C     C_R   0.582715 0.883055 0.625036 -0.286779
H15   H     H_    0.584888 0.781712 0.624971 0.180355
C45   C     C_R   0.543507 0.941384 0.564604 0.101856
C46   C     C_R   0.543496 0.073229 0.563049 0.023360
C47   C     C_R   0.504675 0.129012 0.498638 -0.082309
C48   C     C_R   0.467795 0.058523 0.433166 -0.162414
H16   H     H_    0.438581 0.875141 0.385052 0.163557
C49   C     C_R   0.467869 0.930029 0.434190 -0.204293
C50   C     C_R   0.504737 0.872314 0.501078 -0.066807
H17   H     H_    0.556165 0.640289 0.126522 0.148593
C51   C     C_R   0.432872 0.330394 0.130881 0.542387
C52   C     C_R   0.401019 0.252834 0.054711 -0.347647
H18   H     H_    0.375236 0.188302 0.104282 0.213368
C53   C     C_R   0.402241 0.255792 0.916557 0.535410
C54   C     C_R   0.435415 0.336705 0.852876 -0.267492
H19   H     H_    0.434482 0.331284 0.746397 0.245937
C55   C     C_R   0.467872 0.418960 0.925214 0.018239
C56   C     C_R   0.467402 0.417788 0.069932 0.028993
N3    N     N_R   0.499540 0.498800 0.142780 -0.095884
C57   C     C_R   0.530890 0.577126 0.072331 -0.077897
H20   H     H_    0.556090 0.640364 0.876556 0.151226
C58   C     C_R   0.530856 0.577099 0.929458 -0.060383
N4    N     N_R   0.499520 0.498720 0.857170 -0.094032
O13   O     O_3   0.651644 0.547428 0.734628 -0.597905
C59   C     C_3   0.678415 0.645545 0.802633 -0.314444
H21   H     H_    0.695969 0.715231 0.732304 0.163833
H22   H     H_    0.705641 0.606145 0.870325 0.186787
H23   H     H_    0.653235 0.696971 0.866886 0.184316
F1    F     F_    0.034197 0.795505 0.451504 -0.634402
O14   O     O_3   0.659725 0.156031 0.740163 -0.594408
C60   C     C_3   0.644441 0.227033 0.851354 -0.243119
H24   H     H_    0.624439 0.166387 0.926056 0.131603
H25   H     H_    0.622032 0.305003 0.819010 0.200149
H26   H     H_    0.676918 0.270524 0.902784 0.210723
O15   O     O_3   0.250810 0.461112 0.741854 -0.614113
C61   C     C_3   0.267039 0.367190 0.828171 -0.193876
H27   H     H_    0.299502 0.402817 0.885631 0.157188
H28   H     H_    0.274349 0.278436 0.773114 0.212356
H29   H     H_    0.238166 0.343593 0.902537 0.194082
F2    F     F_    0.427790 0.312226 0.262628 -0.659319
F3    F     F_    0.371352 0.178764 0.843332 -0.651133
O16   O     O_3   0.643259 0.410666 0.265218 -0.581437
C62   C     C_3   0.631565 0.279827 0.259632 -0.255249
H30   H     H_    0.610218 0.247613 0.349064 0.153345
H31   H     H_    0.664654 0.225662 0.249737 0.158169
H32   H     H_    0.608770 0.259128 0.169339 0.180398
F4    F     F_    0.024736 0.111650 0.527589 -0.634864

loop_
_geom_bond_atom_site_label_1
_geom_bond_atom_site_label_2
_geom_bond_distance
_ccdc_geom_bond_type
C46   C47   1.410671 A    
C53   C54   1.380337 A    
C51   F2    1.330868 S    
N2    C27   1.365351 A    
C41   C46   1.414240 A    
C21   C22   1.389740 A    
C12   C15   1.407837 A    
C4    C17   1.473656 S    
C60   H25   1.111291 S    
C49   C50   1.390241 A    
C30   C31   1.405488 A    
C62   H30   1.113450 S    
C40   F1    1.356555 S    
Zn1   N4    2.026927 S    
N1    C11   1.423904 S    
C26   O12   1.350316 S    
C44   C45   1.414540 A    
C22   C23   1.397283 A    
C61   H28   1.114783 S    
O4    C2    1.301143 A    
O7    C4    1.302895 A    
C5    C13   1.399656 A    
C5    O9    1.349799 S    
H17   C57   1.081771 S    
O15   C61   1.412248 S    
N1    C6    1.364801 A    
C23   C27   1.399976 A    
C41   C42   1.402746 A    
O5    C3    1.285779 A    
C53   F3    1.356577 S    
C51   C52   1.391312 A    
C28   H3    1.083445 S    
C2    C16   1.461261 S    
C58   N4    1.367224 A    
C29   O16   1.382831 S    
Zn2   N3    2.027158 S    
C51   C56   1.433373 A    
C6    C15   1.397198 A    
C38   C39   1.387059 A    
C6    O11   1.350238 S    
C54   H19   1.058950 S    
H12   C48   1.083419 S    
C57   C58   1.419147 A    
O1    Zn1   1.980854 S    
C9    C10   1.402729 A    
C41   H13   1.078997 S    
O3    Zn1   2.008342 S    
C60   H24   1.114297 S    
O13   C59   1.411768 S    
C52   C53   1.373313 A    
C12   C34   1.413067 A    
C17   C29   1.419017 A    
C39   H10   1.083438 S    
C21   H5    1.077751 S    
C18   C21   1.412773 A    
C12   C13   1.407802 A    
C43   C44   1.395418 A    
C15   C37   1.395489 A    
C61   H29   1.109216 S    
C45   C50   1.411068 A    
C56   N3    1.399429 A    
C48   C49   1.365320 A    
C47   C48   1.389563 A    
H16   C49   1.084936 S    
C37   H8    1.083585 S    
C8    C16   1.401920 A    
C7    H7    1.083070 S    
C13   C14   1.396337 A    
C52   H18   1.083549 S    
C9    H1    1.081811 S    
C3    C50   1.408899 S    
O1    C1    1.285548 A    
C18   C20   1.417118 A    
Zn1   O7    2.010017 S    
C28   C29   1.390441 A    
C23   C24   1.408352 A    
C14   C36   1.389523 A    
Zn2   O8    2.008339 S    
C33   C36   1.419097 A    
C19   C20   1.416586 A    
N2    C32   1.422819 S    
C34   C35   1.420357 A    
C27   O10   1.349703 S    
C45   C46   1.400906 A    
C55   N4    1.367856 A    
C36   F4    1.356270 S    
O3    C2    1.299580 A    
C26   N2    1.365633 A    
C9    C16   1.404640 A    
C54   C55   1.409801 A    
C14   H2    1.083557 S    
C59   H22   1.110438 S    
C8    H6    1.083147 S    
C25   C26   1.396244 A    
C7    C11   1.396995 A    
C37   C40   1.387205 A    
Zn1   O5    1.986708 S    
C25   C39   1.396741 A    
C42   O14   1.383922 S    
C31   C32   1.392406 A    
C20   C24   1.413131 A    
Zn2   O6    1.980853 S    
O2    Zn2   1.986706 S    
C35   C40   1.418594 A    
O8    C4    1.302292 A    
C43   H14   1.081415 S    
O6    C3    1.285947 A    
O4    Zn2   2.010019 S    
C5    N1    1.365317 A    
C19   C35   1.413580 A    
C59   H23   1.109305 S    
C62   H32   1.109184 S    
C7    C8    1.386453 A    
O2    C1    1.286192 A    
C31   H11   1.081783 S    
C30   O13   1.393014 S    
C61   H27   1.110631 S    
C55   C56   1.437693 A    
C24   C25   1.407837 A    
C10   O15   1.388724 S    
N3    C57   1.366156 A    
C59   H21   1.114259 S    
C62   H31   1.112766 S    
H20   C58   1.081913 S    
C18   C33   1.417049 A    
C22   H4    1.083414 S    
C38   H9    1.078266 S    
C42   C43   1.394159 A    
C44   H15   1.081661 S    
C19   C38   1.411367 A    
C33   C34   1.421233 A    
C17   C30   1.418612 A    
O14   C60   1.411452 S    
C10   C11   1.402236 A    
C1    C47   1.409192 S    
C28   C32   1.389394 A    
C60   H26   1.109564 S    
O16   C62   1.410161 S    
