data_mof_unit_22402.cif
_audit_creation_date              2012-12-10T17:09:51-0500
_audit_creation_method            fapswitch 2.2
_symmetry_space_group_name_H-M    P1
_symmetry_Int_Tables_number       1
_space_group_crystal_system       triclinic
_cell_length_a                    10.762894
_cell_length_b                    13.000394
_cell_length_c                    11.729024
_cell_angle_alpha                 99.789854
_cell_angle_beta                  92.942521
_cell_angle_gamma                 91.275008
_cell_volume                      1614.31582076

loop_
_atom_site_label
_atom_site_type_symbol
_atom_type_description
_atom_site_fract_x
_atom_site_fract_y
_atom_site_fract_z
_atom_type_partial_charge
C1    C     C_R   0.498143 0.299268 0.478602 0.816209
C2    C     C_R   0.071692 0.594398 0.563684 -0.012508
C3    C     C_R   0.128928 0.506196 0.502597 -0.087475
C4    C     C_R   0.057639 0.422766 0.437372 0.144335
C5    C     C_R   0.928982 0.425262 0.435407 -0.260862
C6    C     C_R   0.870898 0.509362 0.498557 -0.108523
C7    C     C_R   0.496584 0.814865 0.535619 -0.094466
C8    C     C_R   0.497552 0.185913 0.466214 -0.053122
C9    C     C_R   0.509122 0.015446 0.346940 -0.190749
C10   C     C_R   0.507080 0.123521 0.357070 -0.200133
C11   C     C_R   0.488504 0.139608 0.564786 -0.239275
C12   C     C_R   0.262744 0.501629 0.501062 0.830128
C13   C     C_R   0.490298 0.031762 0.555278 0.128134
C14   C     C_R   0.501238 0.969168 0.445790 0.173705
C15   C     C_R   0.504453 0.861416 0.436798 -0.348046
C16   C     C_R   0.484308 0.877436 0.645541 0.402318
C17   C     C_R   0.481586 0.986063 0.654019 -0.328301
C18   C     C_R   0.367267 0.415376 0.025497 -0.340627
C19   C     C_R   0.381756 0.422251 0.146870 0.052231
C20   C     C_R   0.560675 0.533809 0.152695 0.302852
C21   C     C_R   0.546867 0.531045 0.031334 0.084232
C22   C     C_R   0.450093 0.470168 0.966758 0.022644
C23   C     C_R   0.500035 0.700952 0.521745 0.800410
C24   C     C_R   0.440337 0.465082 0.844769 0.040048
C25   C     C_R   0.615711 0.580164 0.852488 0.110200
C26   C     C_R   0.629639 0.586811 0.972750 -0.310338
C27   C     C_R   0.737254 0.503110 0.499412 0.793387
C28   C     C_R   0.141781 0.682425 0.623311 -0.162602
C29   C     C_R   0.083264 0.769586 0.681189 0.228656
C30   C     C_R   0.953177 0.769881 0.679789 -0.178841
C31   C     C_R   0.882514 0.684479 0.620324 -0.216759
C32   C     C_R   0.940511 0.595736 0.561890 0.096674
Cu1   Cu    Cu3+1 0.509250 0.507730 0.615930 0.961789
Cu2   Cu    Cu3+1 0.490750 0.492270 0.384070 0.934261
H1    H     H_    0.472453 0.034885 0.737666 0.133704
H2    H     H_    0.514134 0.158152 0.279847 0.158420
H3    H     H_    0.480146 0.187358 0.649217 0.152524
H4    H     H_    0.367243 0.417211 0.793355 0.121135
H5    H     H_    0.679797 0.623275 0.808738 0.134630
H6    H     H_    0.291446 0.367708 0.978060 0.145719
H7    H     H_    0.705263 0.635532 0.018887 0.172830
H8    H     H_    0.316539 0.380135 0.190519 0.147770
H9    H     H_    0.242298 0.685563 0.624423 0.168672
H10   H     H_    0.906091 0.836861 0.723538 0.136287
H11   H     H_    0.782321 0.689685 0.619051 0.146897
H12   H     H_    0.874046 0.359832 0.386724 0.146782
H13   H     H_    0.513663 0.813886 0.352407 0.174652
H14   H     H_    0.517313 0.968263 0.262260 0.138827
N1    N     N_R   0.523180 0.519350 0.790130 -0.179958
N2    N     N_R   0.476820 0.480650 0.209890 -0.192484
O1    O     O_R   0.506570 0.354460 0.582000 -0.589977
O2    O     O_R   0.490940 0.341410 0.386200 -0.584156
O3    O     O_R   0.327470 0.506530 0.597920 -0.594986
O4    O     O_R   0.311840 0.493480 0.402120 -0.564895
O5    O     O_R   0.509060 0.658590 0.613800 -0.530598
O6    O     O_R   0.493430 0.645540 0.418000 -0.610939
O7    O     O_R   0.688160 0.506520 0.597880 -0.588651
O8    O     O_R   0.672530 0.493470 0.402080 -0.598936
N3    N     N_3   0.116453 0.334156 0.374905 -0.598411
H15   H     H_    0.086653 0.326273 0.287501 0.215398
H16   H     H_    0.085823 0.267501 0.405487 0.215257
N4    N     N_3   0.668245 0.589150 0.211933 -0.625047
H17   H     H_    0.646010 0.639903 0.285800 0.259050
H18   H     H_    0.735208 0.536051 0.228696 0.240988
N5    N     N_3   0.157711 0.857253 0.740682 -0.573200
H19   H     H_    0.202951 0.890180 0.678110 0.219460
H20   H     H_    0.100937 0.914724 0.781934 0.204726
O9    O     O_3   0.473698 0.831639 0.742853 -0.713500
H21   H     H_    0.464887 0.886638 0.811496 0.322420

loop_
_geom_bond_atom_site_label_1
_geom_bond_atom_site_label_2
_ccdc_geom_bond_type
Cu1   O5    S    
C24   H4    S    
C9    C14   A    
C11   H3    S    
Cu2   O6    S    
C29   C30   A    
C16   O9    S    
C13   C17   A    
Cu1   O1    S    
C1    C8    S    
C2    C28   A    
C5    H12   S    
C28   H9    S    
C6    C32   A    
C31   C32   A    
C7    C23   S    
C19   H8    S    
C15   H13   S    
C30   C31   A    
C21   C26   A    
C20   C21   A    
C27   O7    A    
C7    C15   A    
C2    C3    A    
N3    H15   S    
C21   C22   A    
C25   H5    S    
C20   N2    A    
C23   O5    A    
C1    O1    A    
C19   N2    A    
C30   H10   S    
C6    C27   S    
N4    H17   S    
C8    C11   A    
C29   N5    S    
C4    N3    S    
C2    C32   A    
C7    C16   A    
Cu1   O7    S    
Cu2   O4    S    
C22   C24   A    
N5    H19   S    
C20   N4    S    
C5    C6    A    
C1    O2    A    
C25   N1    A    
Cu2   N2    S    
N3    H16   S    
Cu1   N1    S    
C3    C4    A    
C16   C17   A    
C11   C13   A    
Cu1   Cu2   S    
Cu1   O3    S    
C9    H14   S    
C8    C10   A    
C18   C19   A    
C9    C10   A    
C23   O6    A    
C24   N1    A    
Cu2   O8    S    
C18   H6    S    
C14   C15   A    
C28   C29   A    
N4    H18   S    
C3    C12   S    
C17   H1    S    
C13   C14   A    
N5    H20   S    
C25   C26   A    
C18   C22   A    
Cu2   O2    S    
O9    H21   S    
C12   O4    A    
C12   O3    A    
C26   H7    S    
C31   H11   S    
C4    C5    A    
C10   H2    S    
C27   O8    A    
