data_mof_unit_17344.cif
_audit_creation_date              2012-12-11T16:26:34-0500
_audit_creation_method            fapswitch 2.2
_symmetry_space_group_name_H-M    P1
_symmetry_Int_Tables_number       1
_space_group_crystal_system       triclinic
_cell_length_a                    14.009284
_cell_length_b                    14.00928
_cell_length_c                    31.972355
_cell_angle_alpha                 90.0
_cell_angle_beta                  89.99998
_cell_angle_gamma                 120.000234
_cell_volume                      5434.2046421

loop_
_atom_site_label
_atom_site_type_symbol
_atom_type_description
_atom_site_fract_x
_atom_site_fract_y
_atom_site_fract_z
_atom_type_partial_charge
C1    C     C_R   0.567937 0.443802 0.810657 0.554145
C2    C     C_R   0.443802 0.567937 0.189343 0.554146
C3    C     C_R   0.432062 0.875864 0.310657 0.554146
C4    C     C_R   0.124136 0.556198 0.189343 0.554145
C5    C     C_1   0.003658 0.520918 0.018697 0.024689
C6    C     C_1   0.517260 0.996339 0.481303 0.024690
C7    C     C_1   0.479083 0.482741 0.018697 0.024689
C8    C     C_1   0.003661 0.520917 0.481303 0.024689
C9    C     C_1   0.517259 0.996341 0.018697 0.024689
C10   C     C_1   0.479084 0.482742 0.481303 0.024689
C11   C     C_1   0.520919 0.003657 0.518697 0.024689
C12   C     C_R   0.875864 0.432063 0.689343 0.554144
C13   C     C_1   0.996340 0.517259 0.981303 0.024690
C14   C     C_1   0.482743 0.479083 0.518697 0.024689
C15   C     C_1   0.520918 0.003659 0.981303 0.024689
C16   C     C_1   0.996343 0.517258 0.518697 0.024689
C17   C     C_1   0.482742 0.479082 0.981303 0.024689
C18   C     C_R   0.929875 0.469461 0.851819 0.001261
C19   C     C_R   0.539586 0.070124 0.648181 0.001261
C20   C     C_R   0.530539 0.460414 0.851819 0.001262
C21   C     C_R   0.929876 0.469462 0.648181 0.001262
C22   C     C_R   0.539586 0.070125 0.851819 0.001261
C23   C     C_R   0.556198 0.124136 0.810657 0.554145
C24   C     C_R   0.530539 0.460414 0.648181 0.001262
C25   C     C_R   0.469461 0.929875 0.351819 0.001261
C26   C     C_R   0.070125 0.539586 0.148181 0.001261
C27   C     C_R   0.460414 0.530539 0.351819 0.001261
C28   C     C_R   0.469461 0.929875 0.148181 0.001261
C29   C     C_R   0.070125 0.539586 0.351819 0.001262
C30   C     C_R   0.460414 0.530539 0.148181 0.001262
C31   C     C_R   0.931837 0.559319 0.872566 0.366254
C32   C     C_R   0.627482 0.068162 0.627435 0.366254
C33   C     C_R   0.440682 0.372516 0.872566 0.366253
C34   C     C_R   0.567937 0.443802 0.689343 0.554147
C35   C     C_R   0.931832 0.559316 0.627433 0.366254
C36   C     C_R   0.627483 0.068165 0.872566 0.366253
C37   C     C_R   0.440683 0.372515 0.627433 0.366252
C38   C     C_R   0.559322 0.931840 0.372565 0.366254
C39   C     C_R   0.068164 0.627483 0.127434 0.366254
C40   C     C_R   0.372515 0.440684 0.372567 0.366254
C41   C     C_R   0.559318 0.931835 0.127434 0.366254
C42   C     C_R   0.068168 0.627484 0.372566 0.366252
C43   C     C_R   0.372516 0.440682 0.127434 0.366253
C44   C     C_R   0.959064 0.577568 0.914846 -0.105920
C45   C     C_R   0.875864 0.432062 0.810657 0.554144
C46   C     C_R   0.618503 0.040933 0.585154 -0.105919
C47   C     C_R   0.422434 0.381495 0.914846 -0.105920
C48   C     C_R   0.959060 0.577565 0.585153 -0.105919
C49   C     C_R   0.618504 0.040937 0.914846 -0.105920
C50   C     C_R   0.422435 0.381495 0.585153 -0.105920
C51   C     C_R   0.577571 0.959068 0.414846 -0.105920
C52   C     C_R   0.040936 0.618504 0.085154 -0.105920
C53   C     C_R   0.381495 0.422436 0.414847 -0.105919
C54   C     C_R   0.577567 0.959063 0.085153 -0.105920
C55   C     C_R   0.040940 0.618504 0.414847 -0.105920
C56   C     C_R   0.556198 0.124136 0.689343 0.554146
C57   C     C_R   0.381495 0.422434 0.085153 -0.105920
C58   C     C_R   0.985468 0.507707 0.936778 -0.001592
C59   C     C_R   0.522238 0.014529 0.563222 -0.001593
C60   C     C_R   0.492293 0.477762 0.936778 -0.001592
C61   C     C_R   0.985471 0.507707 0.563222 -0.001592
C62   C     C_R   0.522238 0.014531 0.936778 -0.001592
C63   C     C_R   0.492294 0.477762 0.563222 -0.001593
C64   C     C_R   0.507707 0.985467 0.436778 -0.001592
C65   C     C_R   0.014530 0.522238 0.063222 -0.001593
C66   C     C_R   0.477763 0.492293 0.436778 -0.001592
C67   C     C_R   0.443802 0.567937 0.310657 0.554144
C68   C     C_R   0.507708 0.985470 0.063222 -0.001593
C69   C     C_R   0.014532 0.522237 0.436778 -0.001593
C70   C     C_R   0.477762 0.492293 0.063222 -0.001593
C71   C     C_R   0.992450 0.423142 0.915923 0.099161
C72   C     C_R   0.430692 0.007548 0.584077 0.099162
C73   C     C_R   0.576856 0.569310 0.915923 0.099163
C74   C     C_R   0.992458 0.423147 0.584078 0.099163
C75   C     C_R   0.430691 0.007548 0.915923 0.099162
C76   C     C_R   0.576856 0.569310 0.584078 0.099164
C77   C     C_R   0.423140 0.992445 0.415924 0.099161
C78   C     C_R   0.432063 0.875864 0.189343 0.554145
C79   C     C_R   0.007547 0.430691 0.084077 0.099162
C80   C     C_R   0.569311 0.576854 0.415922 0.099163
C81   C     C_R   0.423145 0.992454 0.084077 0.099163
C82   C     C_R   0.007546 0.430690 0.415923 0.099164
C83   C     C_R   0.569310 0.576855 0.084077 0.099163
C84   C     C_R   0.964773 0.404769 0.873400 -0.143778
C85   C     C_R   0.439996 0.035226 0.626600 -0.143776
C86   C     C_R   0.595229 0.560005 0.873399 -0.143777
C87   C     C_R   0.964780 0.404774 0.626601 -0.143778
C88   C     C_R   0.439995 0.035225 0.873400 -0.143776
C89   C     C_R   0.124136 0.556198 0.310657 0.554145
C90   C     C_R   0.595228 0.560006 0.626601 -0.143774
C91   C     C_R   0.404766 0.964768 0.373401 -0.143777
C92   C     C_R   0.035225 0.439995 0.126600 -0.143776
C93   C     C_R   0.560006 0.595227 0.373399 -0.143779
C94   C     C_R   0.404772 0.964776 0.126601 -0.143777
C95   C     C_R   0.035223 0.439994 0.373399 -0.143774
C96   C     C_R   0.560005 0.595228 0.126601 -0.143776
Cr1   Cr    Cr6+3 0.504240 0.249200 0.750000 1.139555
Cr2   Cr    Cr6+3 0.744960 0.495760 0.750000 1.139555
Cr3   Cr    Cr6+3 0.750800 0.255040 0.750000 1.139556
Cr4   Cr    Cr6+3 0.249200 0.504240 0.250000 1.139555
Cr5   Cr    Cr6+3 0.495760 0.744960 0.250000 1.139557
Cr6   Cr    Cr6+3 0.255040 0.750800 0.250000 1.139554
F1    F     F_    0.901048 0.625641 0.852957 -0.610722
F2    F     F_    0.625638 0.901043 0.147042 -0.610722
F3    F     F_    0.098961 0.724596 0.352958 -0.610726
F4    F     F_    0.275403 0.374363 0.147042 -0.610724
F5    F     F_    0.724593 0.098951 0.647043 -0.610721
F6    F     F_    0.374362 0.275404 0.852958 -0.610724
F7    F     F_    0.901036 0.625633 0.647041 -0.610723
F8    F     F_    0.724594 0.098955 0.852957 -0.610724
F9    F     F_    0.374364 0.275402 0.647041 -0.610725
F10   F     F_    0.625646 0.901056 0.352956 -0.610720
F11   F     F_    0.098956 0.724595 0.147042 -0.610723
F12   F     F_    0.275401 0.374366 0.352959 -0.610723
H1    H     H_    0.045259 0.688661 0.069058 0.147608
H2    H     H_    0.688661 0.045260 0.930942 0.147608
H3    H     H_    0.954734 0.643396 0.569057 0.147609
H4    H     H_    0.356600 0.311337 0.930942 0.147609
H5    H     H_    0.035061 0.371243 0.142171 0.178728
H6    H     H_    0.336175 0.964928 0.357830 0.178732
H7    H     H_    0.628758 0.663816 0.142172 0.178726
H8    H     H_    0.035057 0.371241 0.357828 0.178728
H9    H     H_    0.336184 0.964941 0.142172 0.178726
H10   H     H_    0.628760 0.663813 0.357827 0.178721
H11   H     H_    0.371244 0.035064 0.642171 0.178729
H12   H     H_    0.643408 0.954749 0.430940 0.147608
H13   H     H_    0.964936 0.336180 0.857829 0.178728
H14   H     H_    0.663815 0.628759 0.642172 0.178726
H15   H     H_    0.371243 0.035061 0.857828 0.178728
H16   H     H_    0.964947 0.336188 0.642173 0.178723
H17   H     H_    0.663817 0.628758 0.857828 0.178725
H18   H     H_    0.895800 0.296750 0.052350 0.238329
H19   H     H_    0.982281 0.273298 0.080922 0.244922
H20   H     H_    0.400938 0.104186 0.447652 0.238331
H21   H     H_    0.291005 0.017698 0.419081 0.244923
H22   H     H_    0.703250 0.599046 0.052351 0.238328
H23   H     H_    0.311337 0.356600 0.069058 0.147608
H24   H     H_    0.726705 0.708980 0.080923 0.244921
H25   H     H_    0.895797 0.296749 0.447649 0.238327
H26   H     H_    0.982276 0.273296 0.419077 0.244922
H27   H     H_    0.400953 0.104202 0.052350 0.238328
H28   H     H_    0.291019 0.017722 0.080922 0.244920
H29   H     H_    0.703250 0.599042 0.447648 0.238328
H30   H     H_    0.726707 0.708975 0.419076 0.244921
H31   H     H_    0.296751 0.895802 0.552350 0.238329
H32   H     H_    0.273301 0.982285 0.580921 0.244922
H33   H     H_    0.104195 0.400946 0.947650 0.238329
H34   H     H_    0.045265 0.688662 0.430943 0.147608
H35   H     H_    0.017711 0.291013 0.919079 0.244922
H36   H     H_    0.599046 0.703250 0.552351 0.238327
H37   H     H_    0.708979 0.726705 0.580923 0.244922
H38   H     H_    0.296750 0.895801 0.947650 0.238328
H39   H     H_    0.273298 0.982282 0.919078 0.244922
H40   H     H_    0.104210 0.400960 0.552352 0.238327
H41   H     H_    0.017731 0.291025 0.580924 0.244921
H42   H     H_    0.599049 0.703250 0.947650 0.238328
H43   H     H_    0.708982 0.726703 0.919077 0.244921
H44   H     H_    0.643401 0.954739 0.069058 0.147609
H45   H     H_    0.311336 0.356604 0.430943 0.147609
H46   H     H_    0.688661 0.045255 0.569059 0.147609
H47   H     H_    0.954743 0.643403 0.930942 0.147608
H48   H     H_    0.356602 0.311337 0.569057 0.147608
N1    N     N_3   0.978220 0.331073 0.061415 -0.584502
N2    N     N_3   0.331073 0.978221 0.938585 -0.584502
N3    N     N_3   0.021790 0.352860 0.561416 -0.584502
N4    N     N_3   0.647146 0.668928 0.938585 -0.584502
N5    N     N_3   0.352845 0.021765 0.438587 -0.584505
N6    N     N_3   0.668929 0.647145 0.061415 -0.584501
N7    N     N_3   0.978217 0.331071 0.438585 -0.584500
N8    N     N_3   0.352855 0.021782 0.061415 -0.584500
N9    N     N_3   0.668931 0.647141 0.438584 -0.584502
N10   N     N_3   0.331075 0.978223 0.561414 -0.584503
N11   N     N_3   0.021775 0.352851 0.938586 -0.584503
N12   N     N_3   0.647145 0.668929 0.561416 -0.584500
O1    O     O_R   0.480350 0.140770 0.796330 -0.496006
O2    O     O_R   0.140770 0.480350 0.203670 -0.496005
O3    O     O_R   0.519650 0.660420 0.296330 -0.496009
O4    O     O_R   0.339580 0.859230 0.203670 -0.496006
O5    O     O_R   0.514930 0.348530 0.793250 -0.431442
O6    O     O_R   0.833600 0.485070 0.706750 -0.431441
O7    O     O_R   0.651470 0.166400 0.793250 -0.431442
O8    O     O_R   0.514930 0.348530 0.706750 -0.431442
O9    O     O_R   0.833600 0.485070 0.793250 -0.431443
O10   O     O_R   0.651470 0.166400 0.706750 -0.431441
O11   O     O_R   0.348530 0.514930 0.293250 -0.431441
O12   O     O_R   0.660420 0.519650 0.703670 -0.496004
O13   O     O_R   0.485070 0.833600 0.206750 -0.431441
O14   O     O_R   0.166400 0.651470 0.293250 -0.431443
O15   O     O_R   0.348530 0.514930 0.206750 -0.431442
O16   O     O_R   0.485070 0.833600 0.293250 -0.431442
O17   O     O_R   0.166400 0.651470 0.206750 -0.431442
O18   O     O_3   0.666667 0.333333 0.750000 -0.305475
O19   O     O_3   0.333333 0.666667 0.250000 -0.305475
O20   O     O_R   0.859230 0.339580 0.796330 -0.496007
O21   O     O_R   0.480350 0.140770 0.703670 -0.496005
O22   O     O_R   0.660420 0.519650 0.796330 -0.496008
O23   O     O_R   0.859230 0.339580 0.703670 -0.496006
O24   O     O_R   0.140770 0.480350 0.296330 -0.496004
O25   O     O_R   0.519650 0.660420 0.203670 -0.496006
O26   O     O_R   0.339580 0.859230 0.296330 -0.496007

loop_
_geom_bond_atom_site_label_1
_geom_bond_atom_site_label_2
_ccdc_geom_bond_type
C19   C56   S    
C21   C87   A    
H26   N7    S    
C65   C79   A    
H32   N10   S    
C29   C42   A    
C50   H48   S    
C64   C77   A    
C60   C73   A    
C85   H11   S    
Cr4   O15   S    
C2    O15   A    
C7    C70   S    
C29   C89   S    
C72   C85   A    
C55   H34   S    
Cr1   O8    S    
Cr4   O19   S    
C89   O24   A    
Cr3   O20   S    
C8    C69   S    
C96   H7    S    
Cr1   O1    S    
C68   C81   A    
C72   N10   S    
C87   H16   S    
C28   C94   A    
C92   H5    S    
C23   O7    A    
Cr3   O18   S    
C42   C55   A    
C86   H17   S    
Cr1   O5    S    
C23   O1    A    
C63   C76   A    
C19   C32   A    
C26   C92   A    
C44   H47   S    
C28   C41   A    
H24   N6    S    
C6    C64   S    
Cr2   O9    S    
C34   O12   A    
C30   C96   A    
C69   C82   A    
C47   C60   A    
C47   H4    S    
C40   F12   S    
C44   C58   A    
C7    C17   T    
C32   F5    S    
C20   C86   A    
Cr4   O2    S    
C18   C84   A    
C12   O23   A    
C93   H10   S    
H40   N3    S    
C34   O8    A    
C82   C95   A    
C22   C88   A    
C57   C70   A    
C28   C78   S    
C5    C13   T    
C35   F7    S    
C59   C72   A    
H28   N8    S    
C94   H9    S    
C84   H13   S    
C10   C66   S    
C39   C52   A    
H31   N10   S    
C8    C16   T    
H37   N12   S    
C78   O4    A    
C50   C63   A    
C4    O17   A    
C33   F6    S    
C88   H15   S    
C11   C59   S    
C35   C48   A    
H19   N1    S    
C18   C31   A    
Cr5   O19   S    
C3    O26   A    
Cr1   O18   S    
C9    C68   S    
C53   H45   S    
C25   C91   A    
C31   C44   A    
H39   N2    S    
C57   H23   S    
C2    O25   A    
C82   N7    S    
C3    C25   S    
C1    O22   A    
C27   C67   S    
C5    C65   S    
Cr5   O16   S    
C67   O3    A    
C3    O16   A    
C6    C11   T    
C29   C95   A    
C38   C51   A    
H22   N6    S    
C39   F11   S    
C12   C21   S    
C24   C34   S    
C71   N11   S    
C75   N2    S    
C43   F4    S    
C31   F1    S    
C36   C49   A    
C70   C83   A    
Cr6   O26   S    
C25   C38   A    
C54   H44   S    
C56   O21   A    
H30   N9    S    
H42   N4    S    
C27   C40   A    
C46   H46   S    
Cr3   O23   S    
H33   N11   S    
Cr6   O17   S    
C79   C92   A    
Cr2   O22   S    
H38   N2    S    
C81   N8    S    
C53   C66   A    
Cr3   O10   S    
C55   C69   A    
C21   C35   A    
C20   C33   A    
C95   H8    S    
Cr2   O18   S    
C12   O6    A    
Cr6   O19   S    
C36   F8    S    
C74   C87   A    
C89   O14   A    
C30   C43   A    
C27   C93   A    
C77   N5    S    
C16   C61   S    
C62   C75   A    
Cr2   O6    S    
C18   C45   S    
C66   C80   A    
C45   O9    A    
C71   C84   A    
C52   H1    S    
C45   O20   A    
C77   C91   A    
C1    C20   S    
H21   N5    S    
C49   C62   A    
H36   N12   S    
C91   H6    S    
C51   H12   S    
C32   C46   A    
C22   C23   S    
C51   C64   A    
C79   N1    S    
C73   N4    S    
C19   C85   A    
C24   C90   A    
H43   N4    S    
C4    C26   S    
Cr5   O25   S    
C48   H3    S    
C13   C58   S    
C61   C74   A    
C24   C37   A    
C22   C36   A    
C83   N6    S    
C41   C54   A    
C41   F2    S    
C2    C30   S    
Cr1   O21   S    
C76   N12   S    
Cr4   O11   S    
C9    C15   T    
H18   N1    S    
H29   N9    S    
Cr2   O12   S    
C81   C94   A    
C1    O5    A    
C48   C61   A    
C83   C96   A    
H41   N3    S    
Cr6   O4    S    
C14   C63   S    
C37   C50   A    
H27   N8    S    
C33   C47   A    
C15   C62   S    
H25   N7    S    
H35   N11   S    
C56   O10   A    
C26   C39   A    
C42   F3    S    
Cr6   O14   S    
C73   C86   A    
C37   F9    S    
Cr5   O3    S    
C58   C71   A    
C43   C57   A    
C17   C60   S    
C75   C88   A    
C49   H2    S    
C54   C68   A    
C46   C59   A    
C40   C53   A    
C4    O2    A    
C76   C90   A    
C90   H14   S    
H20   N5    S    
Cr3   O7    S    
C78   O13   A    
C80   N9    S    
C80   C93   A    
Cr5   O13   S    
C38   F10   S    
C74   N3    S    
C52   C65   A    
C67   O11   A    
C10   C14   T    
Cr4   O24   S    
