data_mof_unit_16457.cif
_audit_creation_date              2012-12-10T18:28:20-0500
_audit_creation_method            fapswitch 2.2
_symmetry_space_group_name_H-M    P1
_symmetry_Int_Tables_number       1
_space_group_crystal_system       triclinic
_cell_length_a                    23.380727
_cell_length_b                    20.24619
_cell_length_c                    14.944282
_cell_angle_alpha                 89.978983
_cell_angle_beta                  99.548003
_cell_angle_gamma                 89.970109
_cell_volume                      6976.18382586

loop_
_atom_site_label
_atom_site_type_symbol
_atom_type_description
_atom_site_fract_x
_atom_site_fract_y
_atom_site_fract_z
_atom_type_partial_charge
C1    C     C_R   0.576104 0.086733 0.554709 0.876170
C2    C     C_R   0.770939 0.802042 0.342875 -0.219905
C3    C     C_R   0.702363 0.261955 0.478346 0.111754
C4    C     C_R   0.205155 0.240163 0.482009 0.104340
C5    C     C_R   0.798694 0.762066 0.524991 0.107568
C6    C     C_R   0.751033 0.302415 0.505439 0.107645
C7    C     C_R   0.199787 0.762254 0.469345 0.113195
C8    C     C_R   0.272730 0.187557 0.601400 -0.238752
C9    C     C_R   0.741363 0.828100 0.407753 -0.238052
C10   C     C_R   0.680802 0.255840 0.384590 -0.236328
C11   C     C_R   0.249907 0.836618 0.582925 -0.237888
C12   C     C_R   0.817714 0.751928 0.618800 -0.233647
C13   C     C_R   0.710175 0.282959 0.319922 -0.215666
C14   C     C_R   0.180835 0.242086 0.388936 -0.223721
C15   C     C_R   0.184700 0.746791 0.376190 -0.231918
C16   C     C_R   0.764354 0.321850 0.597175 -0.234229
C17   C     C_3   0.718663 0.823215 0.821902 -0.377693
C18   C     C_3   0.704554 0.753125 0.849180 -0.842737
C19   C     C_3   0.270039 0.166540 0.180600 -0.397568
C20   C     C_3   0.309331 0.150172 0.111222 -0.752427
C21   C     C_3   0.290171 0.811922 0.177905 -0.379277
C22   C     C_3   0.308716 0.742232 0.156512 -0.830463
C23   C     C_3   0.689428 0.223161 0.808001 -0.375332
C24   C     C_R   0.219265 0.811852 0.647340 -0.218162
C25   C     C_3   0.655764 0.282611 0.834751 -0.853677
C26   C     C_3   0.196002 0.285239 0.811360 -0.373490
C27   C     C_3   0.166765 0.223206 0.840539 -0.862806
C28   C     C_3   0.820041 0.734851 0.196533 -0.375648
C29   C     C_3   0.856651 0.793874 0.176869 -0.851084
C30   C     C_3   0.774350 0.335034 0.179144 -0.374614
C31   C     C_3   0.786236 0.266355 0.144154 -0.853394
C32   C     C_3   0.169068 0.748015 0.795108 -0.375205
C33   C     C_3   0.128709 0.805509 0.806980 -0.849105
C34   C     C_3   0.694805 0.037531 0.216096 -0.431297
C35   C     C_R   0.786925 0.777081 0.682980 -0.213764
C36   C     C_3   0.707079 0.102728 0.267583 -0.830212
C37   C     C_3   0.308572 0.979603 0.802818 -0.361143
C38   C     C_3   0.272689 0.042811 0.787143 -0.867516
C39   C     C_3   0.196320 0.514043 0.211150 -0.397238
C40   C     C_3   0.214869 0.585933 0.204364 -0.842718
C41   C     C_3   0.807536 0.486303 0.801089 -0.368905
C42   C     C_3   0.774746 0.551751 0.787108 -0.850534
C43   C     C_R   0.209192 0.214048 0.323735 -0.223764
C44   C     C_R   0.217352 0.769897 0.313145 -0.218701
C45   C     C_R   0.736016 0.294256 0.662448 -0.224904
C46   C     C_R   0.631016 0.017480 0.208627 -0.037629
C47   C     C_R   0.372517 0.993147 0.801438 0.055407
C48   C     C_R   0.130857 0.508591 0.206639 -0.022625
C49   C     C_R   0.422994 0.914295 0.444620 0.879075
C50   C     C_R   0.872084 0.496384 0.800751 0.053525
C51   C     C_R   0.607555 0.004108 0.288267 0.570145
C52   C     C_R   0.393134 0.990182 0.719055 0.512181
C53   C     C_R   0.107482 0.499226 0.286734 0.531470
C54   C     C_R   0.893021 0.491275 0.718804 0.507699
C55   C     C_R   0.511306 0.006820 0.207236 -0.131507
C56   C     C_R   0.490060 0.009941 0.791296 -0.104596
C57   C     C_R   0.011110 0.507864 0.207476 -0.118554
C58   C     C_R   0.990007 0.510404 0.791264 -0.098113
C59   C     C_R   0.531133 0.016081 0.124704 -0.037224
C60   C     C_R   0.422777 0.084934 0.444452 0.865730
C61   C     C_R   0.472546 0.012217 0.876817 -0.037220
C62   C     C_R   0.030695 0.516617 0.124520 -0.041433
C63   C     C_R   0.972220 0.515228 0.876487 -0.038778
C64   C     C_R   0.592024 0.017446 0.124811 0.068488
C65   C     C_R   0.412193 0.008251 0.880306 0.048793
C66   C     C_R   0.091512 0.516024 0.124050 0.079116
C67   C     C_R   0.911782 0.511554 0.879743 0.045313
C68   C     C_R   0.491808 0.020813 0.042266 0.119386
C69   C     C_R   0.512850 0.017099 0.958705 0.114000
C70   C     C_R   0.991318 0.523033 0.042206 0.114028
C71   C     C_R   0.577312 0.914904 0.555616 0.887107
C72   C     C_R   0.012401 0.521363 0.958470 0.114884
C73   C     C_R   0.573251 0.014977 0.960262 -0.191948
C74   C     C_R   0.431818 0.028315 0.041179 -0.230833
C75   C     C_R   0.072821 0.523635 0.959974 -0.201411
C76   C     C_R   0.931286 0.529989 0.041151 -0.201273
C77   C     C_R   0.611787 0.016291 0.041165 -0.183915
C78   C     C_R   0.392834 0.020613 0.962230 -0.195843
C79   C     C_R   0.111318 0.521998 0.040893 -0.190407
C80   C     C_R   0.892409 0.523521 0.961808 -0.193050
C81   C     C_R   0.628923 0.876276 0.594553 -0.190645
C82   C     C_R   0.075727 0.587434 0.554331 0.881753
C83   C     C_R   0.371537 0.123654 0.405640 -0.202382
C84   C     C_R   0.371845 0.874719 0.405648 -0.187835
C85   C     C_R   0.618311 0.138626 0.587831 -0.197449
C86   C     C_R   0.119424 0.362895 0.589123 -0.195132
C87   C     C_R   0.882932 0.640330 0.413095 -0.195361
C88   C     C_R   0.870801 0.377050 0.405562 -0.191401
C89   C     C_R   0.115718 0.642239 0.585014 -0.206930
C90   C     C_R   0.700312 0.833987 0.720307 0.120669
C91   C     C_R   0.294943 0.158041 0.281667 0.112862
C92   C     C_R   0.304981 0.826241 0.279057 0.113683
C93   C     C_R   0.922644 0.415084 0.444387 0.872439
C94   C     C_R   0.672403 0.207520 0.707312 0.130335
C95   C     C_R   0.177450 0.298711 0.710303 0.129631
C96   C     C_R   0.833759 0.715046 0.296208 0.128323
C97   C     C_R   0.795885 0.340693 0.280803 0.121767
C98   C     C_R   0.159017 0.723548 0.697335 0.128831
C99   C     C_R   0.648623 0.869168 0.689009 0.386672
C100  C     C_R   0.346178 0.121402 0.312659 0.443615
C101  C     C_R   0.356809 0.860455 0.311961 0.383330
C102  C     C_R   0.635652 0.153199 0.681063 0.398748
C103  C     C_R   0.138537 0.351027 0.682764 0.397155
C104  C     C_R   0.924081 0.587065 0.445399 0.861101
C105  C     C_R   0.868730 0.658944 0.320685 0.400232
C106  C     C_R   0.848323 0.374563 0.311518 0.385799
C107  C     C_R   0.126792 0.665068 0.675805 0.398524
C108  C     C_R   0.662105 0.851255 0.533606 -0.304158
C109  C     C_R   0.343920 0.157202 0.466724 -0.331983
C110  C     C_R   0.334701 0.855668 0.464466 -0.313222
C111  C     C_R   0.639729 0.175751 0.522714 -0.318040
C112  C     C_R   0.140473 0.324687 0.524813 -0.323677
C113  C     C_R   0.860019 0.675336 0.478700 -0.324390
C114  C     C_R   0.839816 0.348648 0.466999 -0.299491
C115  C     C_R   0.076249 0.413521 0.554901 0.878416
C116  C     C_R   0.140054 0.674980 0.518745 -0.306198
C117  C     C_R   0.716556 0.823774 0.562364 0.046808
C118  C     C_R   0.287863 0.181014 0.441705 0.071820
C119  C     C_R   0.281620 0.825417 0.433603 0.048345
C120  C     C_R   0.677757 0.228193 0.546091 0.050828
C121  C     C_R   0.180814 0.274584 0.549386 0.053467
C122  C     C_R   0.824216 0.729924 0.456950 0.055741
C123  C     C_R   0.784473 0.323136 0.439830 0.048818
C124  C     C_R   0.173139 0.731968 0.537703 0.047910
C125  C     C_R   0.734714 0.811382 0.656243 0.060699
C126  C     C_R   0.244724 0.215343 0.666942 -0.220073
C127  C     C_R   0.264046 0.184817 0.348066 0.021620
C128  C     C_R   0.267715 0.807279 0.340834 0.065505
C129  C     C_R   0.694971 0.243973 0.639476 0.064162
C130  C     C_R   0.200599 0.262182 0.643127 0.064925
C131  C     C_R   0.810085 0.749659 0.364549 0.062329
C132  C     C_R   0.763414 0.315280 0.345800 0.061440
C133  C     C_R   0.183328 0.756420 0.628162 0.063923
C134  C     C_R   0.751646 0.804926 0.498054 0.110381
C135  C     C_R   0.256005 0.203056 0.508676 0.113004
C136  C     C_R   0.244167 0.808639 0.495509 0.106167
H1    H     H_    0.260342 0.201500 0.736474 0.162949
H2    H     H_    0.413403 0.040008 0.100702 0.177969
H3    H     H_    0.203520 0.614766 0.262196 0.270966
H4    H     H_    0.262562 0.588064 0.207038 0.244528
H5    H     H_    0.220811 0.494196 0.275252 0.217424
H6    H     H_    0.210998 0.483660 0.157492 0.192987
H7    H     H_    0.791567 0.587445 0.841501 0.248287
H8    H     H_    0.779339 0.573484 0.720390 0.275428
H9    H     H_    0.727988 0.543198 0.788393 0.248773
H10   H     H_    0.788589 0.451608 0.746584 0.241686
H11   H     H_    0.799685 0.461980 0.864471 0.183321
H12   H     H_    0.092313 0.526070 0.899699 0.153526
H13   H     H_    0.912606 0.540202 0.100893 0.165869
H14   H     H_    0.366534 0.162652 0.535467 0.184306
H15   H     H_    0.644252 0.852706 0.462241 0.195156
H16   H     H_    0.627887 0.160931 0.452978 0.192470
H17   H     H_    0.348870 0.862657 0.536227 0.218431
H18   H     H_    0.868932 0.657400 0.547369 0.188275
H19   H     H_    0.126733 0.337200 0.454527 0.183759
H20   H     H_    0.134273 0.653658 0.451952 0.201777
H21   H     H_    0.760407 0.821894 0.275075 0.157789
H22   H     H_    0.859908 0.346573 0.537423 0.201108
H23   H     H_    0.306750 0.152527 0.624978 0.152331
H24   H     H_    0.711181 0.867550 0.385909 0.148338
H25   H     H_    0.640069 0.232161 0.358911 0.149444
H26   H     H_    0.277327 0.878765 0.602553 0.195234
H27   H     H_    0.857490 0.726391 0.644999 0.151259
H28   H     H_    0.138524 0.262625 0.364591 0.145982
H29   H     H_    0.146834 0.718107 0.349451 0.151271
H30   H     H_    0.796002 0.359606 0.619976 0.193517
H31   H     H_    0.656921 0.011375 0.035543 0.136873
H32   H     H_    0.690891 0.276507 0.249671 0.159175
H33   H     H_    0.347353 0.025072 0.966789 0.155664
H34   H     H_    0.156885 0.523242 0.036201 0.158528
H35   H     H_    0.846947 0.527633 0.966558 0.158326
H36   H     H_    0.534125 0.016866 0.781570 0.168085
H37   H     H_    0.466301 0.002835 0.213272 0.164575
H38   H     H_    0.034358 0.514667 0.781699 0.164107
H39   H     H_    0.966134 0.506085 0.214294 0.163888
H40   H     H_    0.375585 0.037221 0.282803 0.312190
H41   H     H_    0.614610 0.943641 0.738662 0.317422
H42   H     H_    0.621790 0.067782 0.729852 0.313184
H43   H     H_    0.226432 0.835315 0.713106 0.155570
H44   H     H_    0.392207 0.926415 0.248962 0.319306
H45   H     H_    0.882044 0.575527 0.266020 0.314315
H46   H     H_    0.122143 0.436982 0.728156 0.321400
H47   H     H_    0.115170 0.583463 0.736233 0.318696
H48   H     H_    0.882057 0.451662 0.267732 0.316884
H49   H     H_    0.657011 0.744603 0.833539 0.278836
H50   H     H_    0.726750 0.715786 0.812718 0.253181
H51   H     H_    0.719014 0.746482 0.923246 0.241407
H52   H     H_    0.765499 0.833916 0.842977 0.176775
H53   H     H_    0.696485 0.858090 0.862128 0.249285
H54   H     H_    0.804148 0.767333 0.753331 0.161059
H55   H     H_    0.352859 0.172807 0.130996 0.279450
H56   H     H_    0.312827 0.095933 0.102858 0.274571
H57   H     H_    0.289816 0.170457 0.043964 0.211860
H58   H     H_    0.229636 0.136957 0.164202 0.195816
H59   H     H_    0.258451 0.219473 0.168984 0.192749
H60   H     H_    0.356551 0.737194 0.174621 0.283535
H61   H     H_    0.287819 0.705109 0.195024 0.251785
H62   H     H_    0.295837 0.732284 0.082864 0.240222
H63   H     H_    0.243232 0.819279 0.152763 0.177611
H64   H     H_    0.311937 0.847384 0.137863 0.241120
H65   H     H_    0.187228 0.215986 0.254196 0.143127
H66   H     H_    0.663664 0.327114 0.795211 0.252942
H67   H     H_    0.608553 0.271686 0.822617 0.278215
H68   H     H_    0.669617 0.293374 0.908002 0.243224
H69   H     H_    0.680834 0.180975 0.851316 0.254194
H70   H     H_    0.736840 0.231527 0.825984 0.177991
H71   H     H_    0.118945 0.229916 0.828781 0.277784
H72   H     H_    0.177460 0.179168 0.802336 0.256101
H73   H     H_    0.181707 0.214207 0.914013 0.242957
H74   H     H_    0.243882 0.281088 0.828772 0.177913
H75   H     H_    0.184711 0.326744 0.853674 0.255594
H76   H     H_    0.203628 0.755264 0.243414 0.161893
H77   H     H_    0.848957 0.837163 0.218821 0.251423
H78   H     H_    0.903427 0.780797 0.191390 0.278414
H79   H     H_    0.845261 0.807729 0.104187 0.242977
H80   H     H_    0.828533 0.693931 0.151090 0.251977
H81   H     H_    0.773154 0.745605 0.176110 0.178151
H82   H     H_    0.833651 0.256606 0.155661 0.276837
H83   H     H_    0.764552 0.227557 0.178850 0.253083
H84   H     H_    0.769644 0.263539 0.070187 0.243554
H85   H     H_    0.727485 0.347095 0.162604 0.177901
H86   H     H_    0.795673 0.371581 0.140156 0.250448
H87   H     H_    0.748964 0.311194 0.731325 0.158053
H88   H     H_    0.135345 0.847431 0.761971 0.253045
H89   H     H_    0.082792 0.789194 0.790904 0.278066
H90   H     H_    0.137454 0.822875 0.878414 0.242924
H91   H     H_    0.161428 0.708491 0.843242 0.252938
H92   H     H_    0.215054 0.762273 0.817248 0.177296
H93   H     H_    0.363190 0.005463 0.593530 0.375145
H94   H     H_    0.681179 0.984132 0.365794 0.309352
H95   H     H_    0.863010 0.505284 0.593054 0.375163
H96   H     H_    0.167429 0.453803 0.365561 0.300463
H97   H     H_    0.678992 0.142420 0.232724 0.254868
H98   H     H_    0.592663 0.010480 0.900081 0.156092
H99   H     H_    0.699411 0.098791 0.338629 0.280324
H100  H     H_    0.753096 0.116987 0.269181 0.246013
H101  H     H_    0.723662 0.997875 0.249076 0.190923
H102  H     H_    0.708843 0.045763 0.150203 0.212722
H103  H     H_    0.289084 0.080784 0.838626 0.247840
H104  H     H_    0.274485 0.062727 0.718484 0.277518
H105  H     H_    0.226763 0.031886 0.791909 0.248240
H106  H     H_    0.291250 0.943204 0.749631 0.233934
H107  H     H_    0.302057 0.955696 0.867183 0.183287
H108  H     H_    0.193592 0.608925 0.139975 0.254760
N1    N     N_R   0.549130 0.000000 0.284090 -0.127053
N2    N     N_R   0.450870 0.000000 0.715910 -0.156208
N3    N     N_R   0.049130 0.500000 0.284090 -0.130836
N4    N     N_R   0.950870 0.500000 0.715910 -0.155964
O1    O     O_R   0.541320 0.066090 0.608930 -0.604028
O2    O     O_R   0.427120 0.933890 0.529720 -0.601201
O3    O     O_R   0.427120 0.066110 0.529720 -0.642907
O4    O     O_R   0.572880 0.933890 0.470280 -0.560685
O5    O     O_R   0.072880 0.566110 0.470280 -0.559459
O6    O     O_R   0.927120 0.433890 0.529720 -0.598014
O7    O     O_R   0.927120 0.566110 0.529720 -0.644806
O8    O     O_R   0.072880 0.433890 0.470280 -0.570967
O9    O     O_3   0.368607 0.080908 0.253248 -0.794537
O10   O     O_3   0.618173 0.895703 0.751716 -0.767919
O11   O     O_3   0.618374 0.114542 0.747741 -0.785370
O12   O     O_R   0.458680 0.933910 0.391070 -0.594753
O13   O     O_3   0.392941 0.877578 0.251934 -0.754218
O14   O     O_3   0.887667 0.622843 0.253022 -0.784345
O15   O     O_3   0.121002 0.390478 0.748484 -0.777624
O16   O     O_3   0.107300 0.630955 0.744738 -0.779600
O17   O     O_3   0.876414 0.404940 0.248696 -0.773710
O18   O     O_3   0.353764 0.977097 0.642177 -0.813638
O19   O     O_3   0.641606 0.997831 0.372517 -0.744840
O20   O     O_3   0.853914 0.477015 0.642037 -0.804357
O21   O     O_3   0.142525 0.492942 0.369642 -0.731959
O22   O     O_R   0.458680 0.066090 0.391070 -0.597414
O23   O     O_R   0.541320 0.933910 0.608930 -0.593033
O24   O     O_R   0.041320 0.566090 0.608930 -0.602379
O25   O     O_R   0.958680 0.433910 0.391070 -0.597148
O26   O     O_R   0.958680 0.566090 0.391070 -0.596065
O27   O     O_R   0.041320 0.433910 0.608930 -0.594266
O28   O     O_R   0.572880 0.066110 0.470280 -0.561212
Zn1   Zn    Zn3+2 0.478910 0.000000 0.592580 0.959644
Zn2   Zn    Zn3+2 0.521090 0.000000 0.407420 0.997753
Zn3   Zn    Zn3+2 0.978910 0.500000 0.592580 0.960430
Zn4   Zn    Zn3+2 0.021090 0.500000 0.407420 0.994827

loop_
_geom_bond_atom_site_label_1
_geom_bond_atom_site_label_2
_ccdc_geom_bond_type
C24   C133  A    
C28   H80   S    
C73   C77   A    
C52   O18   S    
C96   C105  A    
C126  H1    S    
C19   H59   S    
C28   H81   S    
C37   H107  S    
C55   C59   A    
C123  C132  A    
C41   C42   S    
C18   H51   S    
C22   H61   S    
O27   Zn3   S    
C19   C20   S    
C7    C124  A    
C57   N3    A    
C25   H68   S    
C111  H16   S    
C20   H55   S    
O3    Zn1   S    
C29   H78   S    
C57   C62   A    
C30   H86   S    
C36   H99   S    
C45   C129  A    
C66   C79   A    
C74   H2    S    
C30   C97   S    
C59   C64   A    
C50   C54   A    
C104  O7    A    
C91   C127  A    
C124  C133  A    
C46   C51   A    
O26   Zn4   S    
C79   H34   S    
C28   C29   S    
C51   N1    A    
C15   C44   A    
C101  O13   S    
C30   C31   S    
C49   O12   A    
C1    O1    A    
H40   O9    S    
C29   H79   S    
C117  C134  A    
C17   H52   S    
C68   C74   A    
H47   O16   S    
C40   H3    S    
C11   C24   A    
C27   H73   S    
O12   Zn2   S    
C102  O11   S    
C62   C70   A    
C82   O24   A    
C27   H72   S    
C64   C77   A    
C55   N1    A    
N3    Zn4   S    
C35   C125  A    
C34   H101  S    
O4    Zn2   S    
C55   H37   S    
N4    Zn3   S    
C38   H103  S    
C57   H39   S    
C13   C132  A    
C114  H22   S    
C113  C122  A    
C32   H92   S    
N1    Zn2   S    
C16   H30   S    
C68   C69   A    
C1    O28   A    
C112  H19   S    
C51   O19   S    
C43   H65   S    
C60   O3    A    
C76   C80   A    
C32   H91   S    
C82   O5    A    
C69   C73   A    
C26   H75   S    
C34   C46   S    
C54   N4    A    
C91   C100  A    
C37   C47   S    
C6    C16   A    
C50   C67   A    
C113  H18   S    
C27   H71   S    
C31   H82   S    
C119  C128  A    
C3    C6    A    
C7    C15   A    
C81   C108  A    
C17   C90   S    
C21   C22   S    
C56   H36   S    
C8    C135  A    
C4    C14   A    
C84   C101  A    
C86   C115  S    
C22   H60   S    
C58   H38   S    
C6    C123  A    
C21   H63   S    
C72   C75   A    
C86   C103  A    
C92   C128  A    
C95   C103  A    
C109  C118  A    
C2    C131  A    
C30   H85   S    
C31   H83   S    
H94   O19   S    
C1    C85   S    
C48   C53   A    
C77   H31   S    
C63   C67   A    
C94   C129  A    
C87   C113  A    
C41   H10   S    
C120  C129  A    
C45   H87   S    
O2    Zn1   S    
C39   H5    S    
C2    C9    A    
C5    C12   A    
C25   H66   S    
C3    C120  A    
C43   C127  A    
C71   O4    A    
C22   H62   S    
C62   C66   A    
C93   O6    A    
C105  O14   S    
C13   H32   S    
C81   C99   A    
C99   O10   S    
C17   H53   S    
C36   H97   S    
H45   O14   S    
C56   N2    A    
C5    C122  A    
C18   H50   S    
C11   H26   S    
C84   C110  A    
C98   C107  A    
C46   C64   A    
C111  C120  A    
C44   H76   S    
C41   C50   S    
C110  C119  A    
N2    Zn1   S    
C86   C112  A    
C53   N3    A    
C93   O25   A    
C37   C38   S    
O5    Zn4   S    
C115  O27   A    
C59   C68   A    
C95   C130  A    
C108  H15   S    
C88   C106  A    
O6    Zn3   S    
C100  O9    S    
C29   H77   S    
C87   C105  A    
C39   H6    S    
O23   Zn1   S    
C116  H20   S    
C89   C107  A    
C24   H43   S    
C83   C109  A    
C17   C18   S    
C26   C27   S    
C26   H74   S    
C121  C130  A    
C40   H108  S    
C12   C35   A    
C82   C89   S    
C73   H98   S    
C107  O16   S    
C92   C101  A    
C96   C131  A    
C114  C123  A    
C8    C126  A    
O28   Zn2   S    
O25   Zn4   S    
C33   H90   S    
O24   Zn3   S    
C53   O21   S    
C83   C100  A    
C4    C135  A    
C23   H70   S    
C70   C76   A    
C36   H100  S    
C118  C127  A    
C49   O2    A    
C21   H64   S    
C104  O26   A    
C20   H57   S    
C39   C40   S    
C49   C84   S    
C31   H84   S    
H41   O10   S    
C61   C69   A    
C26   C95   S    
C90   C99   A    
C38   H105  S    
C88   C93   S    
C44   C128  A    
C106  O17   S    
C103  O15   S    
C37   H106  S    
C116  C124  A    
O7    Zn3   S    
H96   O21   S    
C41   H11   S    
O8    Zn4   S    
C67   C80   A    
C58   C63   A    
C97   C132  A    
C25   H67   S    
C10   C13   A    
C52   N2    A    
C16   C45   A    
C20   H56   S    
C39   C48   S    
H93   O18   S    
C47   C52   A    
C75   H12   S    
C35   H54   S    
C18   H49   S    
C33   H89   S    
C119  C136  A    
C9    H24   S    
C23   C94   S    
C28   C96   S    
C65   C78   A    
C60   O22   A    
C32   C33   S    
O22   Zn2   S    
C58   N4    A    
C109  H14   S    
C112  C121  A    
C98   C133  A    
C3    C10   A    
C11   C136  A    
C9    C134  A    
C12   H27   S    
C42   H8    S    
C5    C134  A    
C8    H23   S    
C122  C131  A    
C75   C79   A    
C76   H13   S    
C2    H21   S    
H46   O15   S    
C40   H4    S    
C60   C83   S    
C90   C125  A    
C32   C98   S    
C4    C121  A    
H44   O13   S    
C34   C36   S    
C78   H33   S    
C88   C114  A    
C14   H28   S    
C34   H102  S    
C54   O20   S    
O1    Zn1   S    
C89   C116  A    
C108  C117  A    
C19   C91   S    
H42   O11   S    
C85   C102  A    
C38   H104  S    
C87   C104  S    
C33   H88   S    
C61   C65   A    
C7    C136  A    
C23   C25   S    
C63   C72   A    
C94   C102  A    
C19   H58   S    
C71   O23   A    
H48   O17   S    
C74   C78   A    
C42   H7    S    
C110  H17   S    
C126  C130  A    
C56   C61   A    
C15   H29   S    
C70   C72   A    
C10   H25   S    
C80   H35   S    
C48   C66   A    
H95   O20   S    
C42   H9    S    
C117  C125  A    
C47   C65   A    
C23   H69   S    
C118  C135  A    
C85   C111  A    
C115  O8    A    
C14   C43   A    
C71   C81   S    
C21   C92   S    
C97   C106  A    
