data_mof_unit_42001.cif
_audit_creation_date              2012-12-11T15:10:49-0500
_audit_creation_method            fapswitch 2.2
_symmetry_space_group_name_H-M    P1
_symmetry_Int_Tables_number       1
_space_group_crystal_system       triclinic
_cell_length_a                    21.188756
_cell_length_b                    7.237314
_cell_length_c                    18.247206
_cell_angle_alpha                 89.999864
_cell_angle_beta                  93.325505
_cell_angle_gamma                 90.000119
_cell_volume                      2793.49129588

loop_
_atom_site_label
_atom_site_type_symbol
_atom_type_description
_atom_site_fract_x
_atom_site_fract_y
_atom_site_fract_z
_atom_type_partial_charge
O1    O     O_R   0.448880 0.506250 0.415280 -0.529809
O2    O     O_R   0.551120 0.006250 0.584720 -0.529808
O3    O     O_R   0.434830 0.174000 0.557310 -0.521115
O4    O     O_R   0.565170 0.674000 0.442690 -0.521116
C1    C     C_R   0.416989 0.344589 0.579657 0.694890
C2    C     C_R   0.583011 0.844589 0.420343 0.694890
O5    O     O_R   0.441680 0.176440 0.414130 -0.529880
O6    O     O_R   0.558320 0.676440 0.585870 -0.529881
O7    O     O_R   0.558020 0.007570 0.440520 -0.520018
O8    O     O_R   0.441980 0.507570 0.559480 -0.520018
C3    C     C_R   0.428139 0.344913 0.388328 0.702880
C4    C     C_R   0.571861 0.844913 0.611672 0.702881
O9    O     O_3   0.538160 0.339670 0.508820 -0.365049
O10   O     O_3   0.461840 0.839670 0.491180 -0.365050
V1    V     V_3+5 0.492920 0.064260 0.498360 1.440573
V2    V     V_3+5 0.507080 0.564260 0.501640 1.440571
C5    C     C_R   0.873239 0.017616 0.690746 0.413557
C6    C     C_R   0.126764 0.517647 0.309251 0.413557
H1    H     H_    0.958169 0.064928 0.757505 0.164845
H2    H     H_    0.041833 0.564955 0.242492 0.164845
H3    H     H_    0.793415 0.991689 0.570706 0.187329
H4    H     H_    0.206589 0.491739 0.429291 0.187329
C7    C     C_R   0.885980 0.944913 0.820442 -0.159012
C8    C     C_R   0.114020 0.444915 0.179558 -0.159012
C9    C     C_R   0.580841 0.837032 0.746480 -0.266911
C10   C     C_R   0.419158 0.337013 0.253520 -0.266910
C11   C     C_R   0.614210 0.858972 0.814482 0.410363
C12   C     C_R   0.385788 0.358944 0.185518 0.410364
C13   C     C_R   0.679426 0.888024 0.817024 -0.074332
C14   C     C_R   0.320573 0.388003 0.182976 -0.074333
C15   C     C_R   0.713671 0.887150 0.752890 0.038566
C16   C     C_R   0.286329 0.387146 0.247110 0.038566
C17   C     C_R   0.678116 0.881824 0.683803 0.058992
C18   C     C_R   0.321885 0.381831 0.316197 0.058993
C19   C     C_R   0.781279 0.909777 0.755073 -0.017760
C20   C     C_R   0.218721 0.409781 0.244927 -0.017758
C21   C     C_R   0.809205 0.962744 0.688951 0.000119
C22   C     C_R   0.190797 0.462766 0.311047 0.000121
C23   C     C_R   0.772849 0.959569 0.622077 -0.094189
C24   C     C_R   0.227154 0.459603 0.377921 -0.094188
C25   C     C_R   0.709202 0.913052 0.619274 -0.176028
C26   C     C_R   0.290800 0.413078 0.380725 -0.176028
C27   C     C_R   0.822703 0.882253 0.819396 0.304368
C28   C     C_R   0.177296 0.382247 0.180606 0.304370
C29   C     C_R   0.909758 0.016052 0.756614 -0.250655
C30   C     C_R   0.090243 0.516071 0.243384 -0.250648
C31   C     C_R   0.611614 0.852809 0.681087 -0.116031
C32   C     C_R   0.388386 0.352807 0.318912 -0.116032
H5    H     H_    0.530139 0.815291 0.744344 0.112317
H6    H     H_    0.469860 0.315266 0.255656 0.112317
H7    H     H_    0.701645 0.922955 0.869771 0.195489
H8    H     H_    0.298353 0.422924 0.130228 0.195488
H9    H     H_    0.683794 0.910599 0.566047 0.103940
H10   H     H_    0.316209 0.410634 0.433952 0.103942
C33   C     C_1   0.864579 0.938875 0.132150 -0.155069
C34   C     C_1   0.135421 0.438877 0.867850 -0.155073
C35   C     C_1   0.821757 0.924812 0.175947 0.037382
C36   C     C_1   0.178243 0.424813 0.824053 0.037381
C37   C     C_1   0.771227 0.905706 0.228114 0.033158
C38   C     C_1   0.228773 0.405707 0.771886 0.033157
C39   C     C_1   0.728677 0.889095 0.272135 0.027154
C40   C     C_1   0.271323 0.389095 0.727865 0.027154
C41   C     C_1   0.678131 0.869999 0.324281 0.019249
C42   C     C_1   0.321869 0.369998 0.675719 0.019249
C43   C     C_1   0.635283 0.855960 0.368044 -0.192305
C44   C     C_1   0.364716 0.355959 0.631956 -0.192305
O11   O     O_R   0.058070 0.289240 0.940580 -0.518353
O12   O     O_R   0.941930 0.789240 0.059420 -0.518353
O13   O     O_R   0.058330 0.616740 0.085880 -0.538944
O14   O     O_R   0.941670 0.116740 0.914120 -0.538945
C45   C     C_R   0.072218 0.448841 0.111585 0.774997
C46   C     C_R   0.927782 0.948841 0.888415 0.775001
O15   O     O_R   0.065180 0.619040 0.942700 -0.528006
O16   O     O_R   0.934820 0.119040 0.057300 -0.528006
O17   O     O_R   0.948870 0.787780 0.915270 -0.511286
O18   O     O_R   0.051130 0.287780 0.084730 -0.511284
C47   C     C_R   0.083184 0.450304 0.920196 0.722620
C48   C     C_R   0.916816 0.950303 0.079804 0.722625
O19   O     O_3   0.961870 0.453310 0.991210 -0.361512
O20   O     O_3   0.038130 0.953310 0.008790 -0.361511
V3    V     V_3+5 0.007070 0.728770 0.001630 1.531730
V4    V     V_3+5 0.992930 0.228770 0.998370 1.531731
Cl1   Cl    Cl    0.909787 0.096784 0.612137 -0.573005
Cl2   Cl    Cl    0.090218 0.596841 0.387857 -0.573006
Cl3   Cl    Cl    0.802028 0.742230 0.893988 -0.656984
Cl4   Cl    Cl    0.197968 0.242207 0.106018 -0.656983
O21   O     O_3   0.584226 0.857134 0.879610 -0.619605
H11   H     H_    0.538378 0.836078 0.868786 0.301329
O22   O     O_3   0.415771 0.357088 0.120390 -0.619605
H12   H     H_    0.461619 0.336026 0.131214 0.301329

loop_
_geom_bond_atom_site_label_1
_geom_bond_atom_site_label_2
_ccdc_geom_bond_type
C22   C24   A    
O21   H11   S    
C41   C43   T    
C7    C29   A    
C11   C13   A    
O11   C47   A    
O2    C4    A    
C2    O7    A    
C23   C25   A    
C10   H6    S    
O5    C3    A    
O12   V3    S    
C16   C20   A    
C19   C21   A    
C5    C29   A    
C4    C31   S    
C45   O18   A    
O20   V3    S    
C35   C37   S    
C36   C38   S    
C7    C27   A    
C38   C40   T    
C39   C41   S    
C40   C42   S    
C2    C43   S    
C18   C26   A    
O1    C3    A    
C6    Cl2   S    
C15   C17   A    
C12   O22   S    
C19   C27   A    
C9    C31   A    
C10   C32   A    
O5    V1    S    
O6    V2    S    
C3    C32   S    
O16   V4    S    
C46   O17   A    
C28   Cl4   S    
C6    C30   A    
O15   V3    S    
O12   C48   A    
C37   C39   T    
O13   C45   A    
C27   Cl3   S    
O4    C2    A    
O18   V4    S    
C33   C48   S    
O17   V3    S    
C34   C47   S    
C5    Cl1   S    
C42   C44   T    
O4    V2    S    
H3    C23   S    
O6    C4    A    
H4    C24   S    
O1    V2    S    
C5    C21   A    
C11   O21   S    
O2    V1    S    
C25   H9    S    
C33   C35   T    
C17   C31   A    
C15   C19   A    
C20   C28   A    
C18   C32   A    
C20   C22   A    
O3    V1    S    
C13   H7    S    
C14   H8    S    
C7    C46   S    
C1    C44   S    
O3    C1    A    
O19   V4    S    
H1    C29   S    
C9    C11   A    
C10   C12   A    
C8    C30   A    
C12   C14   A    
C6    C22   A    
C17   C25   A    
C1    O8    A    
C13   C15   A    
O8    V2    S    
C26   H10   S    
C14   C16   A    
C8    C28   A    
C24   C26   A    
C34   C36   T    
O7    V1    S    
O14   V4    S    
C9    H5    S    
O13   V3    S    
O11   V4    S    
C21   C23   A    
O16   C48   A    
O9    V2    S    
O15   C47   A    
O10   V1    S    
O14   C46   A    
O22   H12   S    
H2    C30   S    
C8    C45   S    
C16   C18   A    
