data_mof_unit_40386.cif
_audit_creation_date              2012-12-11T14:17:37-0500
_audit_creation_method            fapswitch 2.2
_symmetry_space_group_name_H-M    P1
_symmetry_Int_Tables_number       1
_space_group_crystal_system       triclinic
_cell_length_a                    6.935527
_cell_length_b                    13.699191
_cell_length_c                    20.411032
_cell_angle_alpha                 102.131438
_cell_angle_beta                  89.671171
_cell_angle_gamma                 91.158549
_cell_volume                      1895.57725403

loop_
_atom_site_label
_atom_site_type_symbol
_atom_type_description
_atom_site_fract_x
_atom_site_fract_y
_atom_site_fract_z
_atom_type_partial_charge
O1    O     O_R   0.506860 0.599390 0.449240 -0.539580
O2    O     O_R   0.180220 0.594600 0.586780 -0.542141
O3    O     O_R   0.004500 0.400610 0.550760 -0.540029
C1    C     C_R   0.348579 0.617769 0.613069 0.749850
O4    O     O_R   0.177490 0.611290 0.451970 -0.541716
O5    O     O_R   0.001750 0.417420 0.414990 -0.539758
C2    C     C_R   0.347808 0.638312 0.435901 0.698813
O6    O     O_R   0.509610 0.582580 0.585010 -0.545938
O7    O     O_3   0.337420 0.436370 0.488020 -0.372722
V1    V     V_3+5 0.064680 0.511800 0.502220 1.411852
O8    O     O_R   0.671710 0.405400 0.413220 -0.547438
C3    C     C_R   0.839255 0.385514 0.386062 0.754089
O9    O     O_R   0.674440 0.388710 0.548030 -0.543363
C4    C     C_R   0.841431 0.361231 0.564362 0.709542
V2    V     V_3+5 0.564010 0.488200 0.497780 1.405458
O10   O     O_3   0.841140 0.563630 0.511980 -0.373741
C5    C     C_R   0.729343 0.116815 0.613921 0.204433
H1    H     H_    0.714739 0.171679 0.522768 0.109824
H2    H     H_    0.676521 0.997420 0.701812 0.163953
C6    C     C_R   0.840525 0.281694 0.602749 -0.063533
C7    C     C_R   0.945481 0.308221 0.923653 -0.164069
C8    C     C_R   0.987962 0.378700 0.885614 -0.120414
C9    C     C_R   0.962822 0.355513 0.816459 -0.165536
C10   C     C_R   0.887285 0.261206 0.783389 0.091675
C11   C     C_R   0.841912 0.189435 0.823017 0.081053
C12   C     C_R   0.854933 0.236048 0.712522 0.023518
C13   C     C_R   0.774222 0.140547 0.683020 0.143602
C14   C     C_R   0.735729 0.070945 0.723112 -0.182280
C15   C     C_R   0.769368 0.094753 0.791634 -0.217541
C16   C     C_R   0.894288 0.303779 0.670168 -0.233730
C17   C     C_R   0.758543 0.188473 0.574898 -0.221238
C18   C     C_R   0.874669 0.213330 0.893247 -0.076078
H3    H     H_    0.958439 0.376166 0.688480 0.116759
H4    H     H_    0.973751 0.326794 0.976992 0.099642
H5    H     H_    0.005723 0.413159 0.790604 0.109121
H6    H     H_    0.045624 0.451331 0.909749 0.115110
H7    H     H_    0.735115 0.038197 0.819974 0.132824
C19   C     C_2   0.003573 0.303341 0.281559 -0.164313
C20   C     C_2   0.840234 0.323013 0.317399 -0.338514
H8    H     H_    0.137981 0.333658 0.305240 0.135319
H9    H     H_    0.701218 0.298238 0.295419 0.126438
C21   C     C_2   0.015375 0.247131 0.210145 0.110941
C22   C     C_2   0.867793 0.185878 0.180296 -0.330238
H10   H     H_    0.734730 0.181369 0.207502 0.105702
C23   C     C_2   0.243630 0.823040 0.771519 0.188254
C24   C     C_2   0.354504 0.811040 0.822875 -0.309849
H11   H     H_    0.433915 0.742592 0.819344 0.081711
C25   C     C_2   0.208382 0.737788 0.713875 0.060252
C26   C     C_2   0.360296 0.696532 0.675670 -0.366256
H12   H     H_    0.503575 0.727625 0.689191 0.123208
C27   C     C_R   0.396603 0.888681 0.391013 -0.147524
H13   H     H_    0.396684 0.836373 0.482921 0.112375
H14   H     H_    0.405429 0.015240 0.310689 0.124757
H15   H     H_    0.415211 0.966004 0.416700 0.108454
C28   C     C_R   0.360798 0.715606 0.396850 -0.030518
C29   C     C_R   0.327911 0.689697 0.074311 -0.196128
C30   C     C_R   0.312803 0.614688 0.110120 -0.118570
C31   C     C_R   0.323489 0.637187 0.179611 -0.144150
C32   C     C_R   0.347529 0.737080 0.215787 0.031759
C33   C     C_R   0.359494 0.815284 0.178991 0.066073
C34   C     C_R   0.359036 0.761352 0.287300 0.068391
C35   C     C_R   0.382678 0.862649 0.320845 0.115245
C36   C     C_R   0.390535 0.937829 0.284605 -0.255185
C37   C     C_R   0.377345 0.916156 0.214946 0.150208
C38   C     C_R   0.347812 0.688503 0.327114 -0.201092
C39   C     C_R   0.386068 0.815375 0.428817 -0.178729
C40   C     C_R   0.351752 0.789156 0.107500 -0.068300
H16   H     H_    0.329080 0.609990 0.306015 0.090341
H17   H     H_    0.320217 0.670053 0.020074 0.096133
H18   H     H_    0.311581 0.574086 0.203191 0.107785
H19   H     H_    0.292578 0.538190 0.083646 0.125258
O11   O     O_R   0.203230 0.917310 0.915020 -0.525257
O12   O     O_R   0.535500 0.888690 0.048040 -0.539388
O13   O     O_R   0.711080 0.082610 0.085000 -0.540299
C41   C     C_R   0.365323 0.863006 0.065354 0.770960
O14   O     O_R   0.532630 0.905370 0.913230 -0.557374
O15   O     O_R   0.708190 0.099410 0.949230 -0.545690
C42   C     C_R   0.364096 0.884857 0.886603 0.787623
O16   O     O_R   0.206120 0.900510 0.050790 -0.536766
O17   O     O_3   0.375360 0.063570 0.011990 -0.374551
V3    V     V_3+5 0.648170 0.988200 0.997780 1.420718
O18   O     O_R   0.038240 0.111390 0.951940 -0.535206
C43   C     C_R   0.871688 0.136530 0.933891 0.687207
O19   O     O_R   0.041120 0.094710 0.086750 -0.535661
C44   C     C_R   0.873800 0.118317 0.112822 0.732607
V4    V     V_3+5 0.148810 0.011930 0.002180 1.451451
O20   O     O_3   0.871750 0.936430 0.988010 -0.373038
C45   C     C_3   0.204248 0.262019 0.174375 -0.323174
C46   C     C_3   0.175675 0.318447 0.117741 -0.289578
C47   C     C_3   0.365676 0.329713 0.081587 -0.766119
H20   H     H_    0.468286 0.378492 0.115932 0.216505
H21   H     H_    0.431692 0.255866 0.063313 0.249091
H22   H     H_    0.338973 0.363589 0.037706 0.206375
H23   H     H_    0.069762 0.278485 0.080655 0.187117
H24   H     H_    0.118807 0.393846 0.138916 0.180917
H25   H     H_    0.309334 0.306483 0.210149 0.142475
H26   H     H_    0.275883 0.189956 0.155869 0.195023
N1    N     N_3   0.153057 0.917078 0.773444 -0.654460
H27   H     H_    0.186492 0.939738 0.728828 0.233586
H28   H     H_    0.003722 0.907438 0.775599 0.218821
C48   C     C_3   0.001698 0.697968 0.705355 -0.291961
C49   C     C_3   0.979260 0.600619 0.730687 -0.309604
C50   C     C_3   0.768587 0.565712 0.729184 -0.791546
H29   H     H_    0.676578 0.626010 0.756905 0.223961
H30   H     H_    0.718748 0.542801 0.676672 0.246045
H31   H     H_    0.752117 0.500892 0.753452 0.215348
H32   H     H_    0.067098 0.541511 0.699509 0.189542
H33   H     H_    0.031930 0.612895 0.783210 0.188501
H34   H     H_    0.903152 0.752490 0.735747 0.148877
H35   H     H_    0.949681 0.689973 0.653253 0.191665
N2    N     N_3   0.377757 0.998606 0.181946 -0.661159
H36   H     H_    0.504410 0.040660 0.194937 0.217886
H37   H     H_    0.260943 0.043401 0.200263 0.221615
N3    N     N_3   0.647140 0.021185 0.583644 -0.701338
H38   H     H_    0.513381 0.032564 0.563365 0.227963
H39   H     H_    0.736827 0.988195 0.544153 0.230779

loop_
_geom_bond_atom_site_label_1
_geom_bond_atom_site_label_2
_ccdc_geom_bond_type
C45   H25   S    
C48   C49   S    
N2    H36   S    
C2    C28   S    
C1    O6    A    
N3    H38   S    
C47   H20   S    
C20   H9    S    
C6    C16   A    
C23   C24   D    
C29   H17   S    
C12   C13   A    
C14   C15   A    
C10   C12   A    
C19   C21   S    
C23   N1    S    
O5    C3    A    
C19   C20   D    
O15   C43   A    
C48   H34   S    
V2    O10   S    
C29   C30   A    
C46   H23   S    
C26   H12   S    
O17   V4    S    
O8    V2    S    
C33   C40   A    
O11   C42   A    
C9    C10   A    
C49   H33   S    
O1    V2    S    
O7    V1    S    
C45   H26   S    
C11   C18   A    
C32   C33   A    
C7    C8    A    
O12   C41   A    
C49   C50   S    
C27   C35   A    
O12   V3    S    
C28   C38   A    
C5    N3    S    
C11   C15   A    
C7    C18   A    
C32   C34   A    
C22   C44   S    
C4    C6    S    
C10   C11   A    
C50   H30   S    
O4    C2    A    
V4    O20   S    
C31   H18   S    
C37   N2    S    
C7    H4    S    
C48   H35   S    
O18   V4    S    
O18   C43   A    
C30   H19   S    
C27   C39   A    
C5    C13   A    
C46   H24   S    
O2    C1    A    
C22   H10   S    
C35   C36   A    
C47   H21   S    
O15   V3    S    
C38   H16   S    
C49   H32   S    
N2    H37   S    
O19   C44   A    
H2    C14   S    
V3    O20   S    
O3    C4    A    
C25   C26   D    
C12   C16   A    
O6    V2    S    
N1    H28   S    
O9    V2    S    
C5    C17   A    
C40   C41   S    
C21   C22   D    
O13   V3    S    
O2    V1    S    
C50   H29   S    
C28   C39   A    
H13   C39   S    
C47   H22   S    
C24   C42   S    
C23   C25   S    
C18   C43   S    
C24   H11   S    
C16   H3    S    
O1    C2    A    
O14   C42   A    
O17   V3    S    
O14   V3    S    
O5    V1    S    
N3    H39   S    
O8    C3    A    
O11   V4    S    
C29   C40   A    
C8    H6    S    
C9    H5    S    
C1    C26   S    
C33   C37   A    
C27   H15   S    
C3    C20   S    
C31   C32   A    
O4    V1    S    
O3    V1    S    
V1    O10   S    
C19   H8    S    
H14   C36   S    
C30   C31   A    
C25   C48   S    
C50   H31   S    
O13   C44   A    
O7    V2    S    
C34   C35   A    
C36   C37   A    
C34   C38   A    
C21   C45   S    
C45   C46   S    
N1    H27   S    
C15   H7    S    
C13   C14   A    
C8    C9    A    
O19   V4    S    
H1    C17   S    
C46   C47   S    
O9    C4    A    
C41   O16   A    
O16   V4    S    
C6    C17   A    
