data_mof_unit_31125.cif
_audit_creation_date              2013-03-05T16:43:04-0500
_audit_creation_method            fapswitch 2.2
_symmetry_space_group_name_H-M    P1
_symmetry_Int_Tables_number       1
_space_group_crystal_system       triclinic
_cell_length_a                    10.658318
_cell_length_b                    10.715933
_cell_length_c                    9.908469
_cell_angle_alpha                 89.241696
_cell_angle_beta                  89.85259
_cell_angle_gamma                 92.178477
_cell_volume                      1130.76180508

loop_
_atom_site_label
_atom_site_type_symbol
_atom_site_description
_atom_site_fract_x
_atom_site_fract_y
_atom_site_fract_z
_atom_type_partial_charge
O1    O     O_R   0.500020 0.316790 0.614690 -0.644437
O2    O     O_R   0.500000 0.316760 0.385350 -0.572630
C1    C     C_R   0.502023 0.259675 0.500675 0.966325
O3    O     O_R   0.314800 0.500000 0.614670 -0.620134
O4    O     O_R   0.314790 0.499960 0.385330 -0.561188
C2    C     C_R   0.257918 0.503742 0.499439 1.017114
Zn1   Zn    Zn3+2 0.500010 0.500020 0.653130 0.973738
Zn2   Zn    Zn3+2 0.499990 0.499980 0.346870 1.042721
O5    O     O_R   0.500000 0.683240 0.614650 -0.624212
O6    O     O_R   0.499980 0.683210 0.385310 -0.611314
O7    O     O_R   0.685210 0.500040 0.614670 -0.638054
O8    O     O_R   0.685200 0.500000 0.385330 -0.646162
C3    C     C_R   0.508088 0.739682 0.499264 0.907480
C4    C     C_R   0.742041 0.505154 0.499470 0.868460
C5    C     C_3   0.075425 0.610987 0.593790 0.229873
H1    H     H_    0.096516 0.582088 0.699661 0.158494
C6    C     C_3   0.931712 0.620174 0.580280 -0.438163
H2    H     H_    0.889319 0.620597 0.683060 0.166118
H3    H     H_    0.907810 0.709326 0.529339 0.228962
H4    H     H_    0.887579 0.603023 0.298718 0.218784
C7    C     C_3   0.071357 0.530709 0.349218 0.169163
C8    C     C_3   0.065161 0.380146 0.551228 0.180174
C9    C     C_3   0.121177 0.508088 0.496798 -0.141552
H5    H     H_    0.101248 0.365503 0.654011 0.228865
C10   C     C_3   0.878193 0.507966 0.497864 0.010451
C11   C     C_3   0.927818 0.520739 0.350146 -0.461003
C12   C     C_3   0.921296 0.384339 0.561318 -0.485712
H6    H     H_    0.892732 0.378320 0.669528 0.209365
H7    H     H_    0.874734 0.302841 0.510664 0.194113
H8    H     H_    0.103596 0.454688 0.283697 0.160933
H9    H     H_    0.896240 0.437235 0.291584 0.179728
C13   C     C_R   0.526958 0.060132 0.621413 0.001237
C14   C     C_R   0.519026 0.127828 0.500693 -0.055779
C15   C     C_R   0.540631 0.067145 0.378252 -0.133475
H10   H     H_    0.545783 0.117528 0.283194 0.229148
C16   C     C_R   0.545658 0.938154 0.376816 -0.159917
H11   H     H_    0.549960 0.891521 0.280658 0.183226
C17   C     C_R   0.533376 0.871105 0.498735 -0.065030
C18   C     C_R   0.542288 0.934222 0.620413 0.039142
C19   C     C_3   0.474237 0.911635 0.750669 -0.426434
C20   C     C_3   0.448838 0.049872 0.748463 0.099221
H12   H     H_    0.388851 0.849388 0.740900 0.250264
H13   H     H_    0.538849 0.884406 0.832975 0.184650
H14   H     H_    0.490274 0.100115 0.835879 0.122983
C21   C     C_R   0.401271 0.446984 0.072226 0.137803
N1    N     N_R   0.499150 0.499140 0.142800 -0.106474
C22   C     C_R   0.594736 0.557507 0.070658 -0.106404
H15   H     H_    0.672168 0.602697 0.123660 0.147939
C23   C     C_R   0.595654 0.555955 0.927037 -0.111359
H16   H     H_    0.674282 0.599012 0.872401 0.154001
N2    N     N_R   0.499150 0.499180 0.857150 -0.132133
C24   C     C_R   0.395965 0.457913 0.929690 0.069619
C25   C     C_3   0.332385 0.333396 0.913429 -0.031151
C26   C     C_3   0.365690 0.308941 0.061091 0.525237
H17   H     H_    0.378612 0.276314 0.837850 0.142501
O9    O     O_3   0.137637 0.726897 0.568209 -0.682337
H18   H     H_    0.117889 0.781635 0.644929 0.372147
N3    N     N_R   0.314291 0.067923 0.729630 0.235359
O10   O     O_R   0.235190 0.021965 0.819128 -0.290122
O11   O     O_R   0.271608 0.124096 0.623047 -0.297601
N4    N     N_R   0.196926 0.344453 0.891155 0.211768
O12   O     O_R   0.128873 0.246358 0.858285 -0.282382
O13   O     O_R   0.140682 0.446372 0.921086 -0.418636
N5    N     N_R   0.261165 0.264281 0.146759 0.244643
O14   O     O_R   0.270688 0.281311 0.275472 -0.344132
O15   O     O_R   0.191149 0.169673 0.107308 -0.258376
O16   O     O_3   0.468846 0.231475 0.076395 -0.777327
H19   H     H_    0.539469 0.265136 0.019459 0.301950
N6    N     N_R   0.118086 0.649719 0.287855 0.260628
O17   O     O_R   0.067261 0.754763 0.316446 -0.298890
O18   O     O_R   0.196745 0.647972 0.187286 -0.339050
O19   O     O_3   0.102596 0.278120 0.474909 -0.630817
H20   H     H_    0.050661 0.273025 0.392101 0.368062

loop_
_geom_bond_atom_site_label_1
_geom_bond_atom_site_label_2
_geom_bond_distance
_ccdc_geom_bond_type
C20   N3    1.466367 S    
O4    Zn2   2.009399 S    
C13   C20   1.508004 S    
C23   H16   1.081630 S    
C5    C6    1.544673 S    
N2    C24   1.368297 A    
C12   H7    1.113932 S    
C7    H8    1.112346 S    
O9    H18   0.993278 S    
C22   H15   1.081658 S    
Zn2   O8    2.011428 S    
C6    C10   1.553799 S    
N5    O14   1.294430 A    
N4    O12   1.299791 A    
C16   C17   1.400626 A    
C14   C15   1.406621 A    
C10   C11   1.557556 S    
Zn1   N2    2.021422 S    
C11   H9    1.114697 S    
C22   C23   1.423396 A    
C5    C9    1.563260 S    
O1    Zn1   2.005028 S    
C25   C26   1.528055 S    
C13   C14   1.395133 A    
Zn1   O7    2.009397 S    
C3    C17   1.423727 S    
O4    C2    1.283355 A    
H4    C11   1.113140 S    
N4    O13   1.302901 A    
O3    Zn1   2.011430 S    
C2    C9    1.460228 S    
C4    C10   1.450362 S    
C8    H5    1.100960 S    
C19   H12   1.112902 S    
C19   C20   1.515845 S    
C6    H3    1.113002 S    
C7    C11   1.529550 S    
O8    C4    1.285211 A    
C21   C26   1.518581 S    
C6    H2    1.113193 S    
C15   C16   1.385589 A    
C8    C12   1.538760 S    
C25   H17   1.100399 S    
C7    C9    1.575886 S    
N6    O17   1.301838 A    
C5    O9    1.405306 S    
Zn2   N1    2.022202 S    
O3    C2    1.294982 A    
C10   C12   1.545024 S    
C20   H14   1.109682 S    
C1    C14   1.431251 S    
N3    O11   1.300409 A    
C5    H1    1.115693 S    
N6    O18   1.301381 A    
C18   C19   1.491298 S    
C17   C18   1.391887 A    
C24   C25   1.484271 S    
C26   N5    1.461008 S    
Zn2   O6    2.005028 S    
C15   H10   1.079661 S    
C13   C18   1.365418 A    
C8    O19   1.407073 S    
C12   H6    1.114206 S    
Zn1   O5    1.995095 S    
O5    C3    1.287475 A    
N1    C22   1.369695 A    
C16   H11   1.083374 S    
O2    C1    1.289592 A    
C26   O16   1.409904 S    
C21   C24   1.417066 A    
C23   N2    1.369258 A    
N3    O10   1.301057 A    
C21   N1    1.363614 A    
C25   N4    1.470093 S    
O7    C4    1.290380 A    
C19   H13   1.111903 S    
O2    Zn2   1.995095 S    
C8    C9    1.563182 S    
O16   H19   0.993357 S    
C7    N6    1.474366 S    
O19   H20   0.991884 S    
O1    C1    1.292467 A    
O6    C3    1.289646 A    
N5    O15   1.300759 A    
