data_mof_unit_26064.cif
_audit_creation_date              2013-03-05T16:45:23-0500
_audit_creation_method            fapswitch 2.2
_symmetry_space_group_name_H-M    P1
_symmetry_Int_Tables_number       1
_space_group_crystal_system       triclinic
_cell_length_a                    8.910709
_cell_length_b                    10.684094
_cell_length_c                    9.874627
_cell_angle_alpha                 90.127091
_cell_angle_beta                  89.987403
_cell_angle_gamma                 90.033407
_cell_volume                      940.090163411

loop_
_atom_site_label
_atom_site_type_symbol
_atom_site_description
_atom_site_fract_x
_atom_site_fract_y
_atom_site_fract_z
_atom_type_partial_charge
O1    O     O_R   0.500020 0.316790 0.614690 -0.607441
O2    O     O_R   0.500000 0.316760 0.385350 -0.627345
C1    C     C_R   0.495674 0.260044 0.499933 0.911780
O3    O     O_R   0.285350 0.500020 0.614650 -0.620308
O4    O     O_R   0.285340 0.499980 0.385310 -0.622180
C2    C     C_R   0.218720 0.499819 0.499996 0.926291
Zn1   Zn    Zn3+2 0.500010 0.500020 0.653130 0.982209
Zn2   Zn    Zn3+2 0.499990 0.499980 0.346870 0.956509
O5    O     O_R   0.500000 0.683240 0.614650 -0.625865
O6    O     O_R   0.499980 0.683210 0.385310 -0.634225
O7    O     O_R   0.714660 0.500020 0.614690 -0.589705
O8    O     O_R   0.714650 0.499980 0.385350 -0.614814
C3    C     C_R   0.495554 0.740017 0.500131 0.868124
C4    C     C_R   0.781276 0.499872 0.500017 0.961921
C5    C     C_1   0.065400 0.499679 0.500030 -0.179075
C6    C     C_1   0.934606 0.499700 0.500024 -0.160332
C7    C     C_R   0.473541 0.064116 0.622743 0.010814
C8    C     C_R   0.472966 0.128689 0.500405 -0.051913
C9    C     C_R   0.444283 0.064478 0.379109 -0.193632
H1    H     H_    0.432454 0.113098 0.283566 0.161098
C10   C     C_R   0.444010 0.935022 0.379294 -0.205117
H2    H     H_    0.432173 0.885889 0.283789 0.166154
C11   C     C_R   0.472035 0.871376 0.500860 -0.050554
C12   C     C_R   0.471840 0.936456 0.623157 0.088751
C13   C     C_3   0.574111 0.927744 0.743090 -0.542138
C14   C     C_3   0.576719 0.070131 0.742712 0.157485
H3    H     H_    0.515689 0.888557 0.832989 0.175870
H4    H     H_    0.683214 0.882434 0.718659 0.229632
H5    H     H_    0.523519 0.113353 0.833423 0.099752
C15   C     C_R   0.442521 0.400673 0.070907 0.219525
N1    N     N_R   0.499010 0.499140 0.142800 -0.107787
C16   C     C_R   0.569482 0.592280 0.072143 -0.122250
H6    H     H_    0.623260 0.668025 0.126448 0.151337
C17   C     C_R   0.569694 0.592170 0.928238 -0.111849
H7    H     H_    0.624066 0.667541 0.874263 0.146098
N2    N     N_R   0.499010 0.499180 0.857150 -0.103257
C18   C     C_R   0.442546 0.400704 0.928492 0.233986
C19   C     C_3   0.285388 0.353261 0.922460 -0.488415
C20   C     C_3   0.285212 0.353341 0.076345 -0.503090
H8    H     H_    0.206292 0.422318 0.877964 0.232183
H9    H     H_    0.279126 0.257765 0.877894 0.206166
H10   H     H_    0.206066 0.422492 0.120969 0.229173
H11   H     H_    0.278562 0.257870 0.120395 0.201274
N3    N     N_R   0.724753 0.122145 0.710746 0.234211
O9    O     O_R   0.800982 0.082593 0.606562 -0.401437
O10   O     O_R   0.780329 0.210482 0.786468 -0.387617

loop_
_geom_bond_atom_site_label_1
_geom_bond_atom_site_label_2
_geom_bond_distance
_ccdc_geom_bond_type
O4    Zn2   1.949902 S    
Zn1   O7    1.949903 S    
C11   C12   1.392169 A    
C18   C19   1.490186 S    
C13   H3    1.111542 S    
Zn1   N2    2.014679 S    
C19   H9    1.111627 S    
N1    C16   1.368777 A    
Zn2   O8    1.950231 S    
C16   H6    1.081590 S    
O2    C1    1.285257 A    
C2    C5    1.366184 S    
C14   N3    1.465680 S    
C10   H2    1.083449 S    
N3    O9    1.302471 A    
C13   H4    1.112485 S    
C19   H8    1.111911 S    
C15   N1    1.363939 A    
C14   H5    1.112905 S    
O3    Zn1   1.950231 S    
C7    C14   1.500958 S    
O3    C2    1.278508 A    
N2    C18   1.363423 A    
C9    C10   1.383125 A    
O8    C4    1.278618 A    
C15   C20   1.490889 S    
C7    C8    1.392492 A    
C20   H10   1.111937 S    
C17   N2    1.368539 A    
C10   C11   1.403464 A    
O4    C2    1.278530 A    
O7    C4    1.278389 A    
C4    C6    1.366279 S    
C7    C12   1.364026 A    
C5    C6    1.165470 T    
C19   C20   1.519552 S    
C12   C13   1.497584 S    
C3    C11   1.419137 S    
C1    C8    1.417826 S    
Zn2   O6    1.993280 S    
C17   H7    1.081018 S    
Zn1   O5    1.994903 S    
O5    C3    1.285072 A    
C8    C9    1.402456 A    
C20   H11   1.111326 S    
C13   C14   1.521449 S    
O1    Zn1   1.993280 S    
Zn2   N1    2.015136 S    
O2    Zn2   1.994905 S    
C9    H1    1.083203 S    
C15   C18   1.406294 A    
N3    O10   1.300607 A    
O1    C1    1.284566 A    
O6    C3    1.285466 A    
C16   C17   1.421007 A    
