data_mof_unit_36654.cif
_audit_creation_date              2012-12-11T15:39:26-0500
_audit_creation_method            fapswitch 2.2
_symmetry_space_group_name_H-M    P1
_symmetry_Int_Tables_number       1
_space_group_crystal_system       triclinic
_cell_length_a                    14.334841
_cell_length_b                    14.782673
_cell_length_c                    33.130453
_cell_angle_alpha                 97.499911
_cell_angle_beta                  90.2716
_cell_angle_gamma                 118.912968
_cell_volume                      6074.28253389

loop_
_atom_site_label
_atom_site_type_symbol
_atom_type_description
_atom_site_fract_x
_atom_site_fract_y
_atom_site_fract_z
_atom_type_partial_charge
C1    C     C_R   0.617332 0.910083 0.437135 0.540153
C2    C     C_R   0.712294 0.437632 0.949278 0.529614
C3    C     C_R   0.766967 0.813690 0.763044 -0.112920
C4    C     C_R   0.759103 0.833712 0.723719 -0.114151
C5    C     C_R   0.686842 0.754062 0.693525 0.035440
C6    C     C_R   0.624258 0.652815 0.703346 -0.111618
C7    C     C_R   0.632470 0.632439 0.742967 -0.112696
C8    C     C_R   0.703472 0.713159 0.773297 0.034974
C9    C     C_R   0.567313 0.742538 0.635780 -0.135163
C10   C     C_R   0.550767 0.780363 0.601647 -0.163449
C11   C     C_R   0.742649 0.890786 0.600062 0.134824
C12   C     C_3   0.481184 0.342522 0.098028 -0.290500
C13   C     C_R   0.743512 0.716551 0.945918 0.567254
C14   C     C_3   0.392971 0.263965 0.380760 -0.321342
C15   C     C_3   0.421272 0.735204 0.179829 -0.308509
C16   C     C_3   0.398800 0.716822 0.289366 -0.295868
C17   C     C_3   0.411489 0.327666 0.637539 -0.315652
C18   C     C_3   0.977401 0.547221 0.594093 -0.316422
C19   C     C_3   0.859067 0.918485 0.545321 -0.289213
C20   C     C_3   0.659346 0.591409 0.324924 -0.307294
C21   C     C_R   0.836611 0.437563 0.163824 -0.131107
C22   C     C_R   0.826896 0.446666 0.122833 -0.159531
C23   C     C_R   0.782628 0.352447 0.246536 -0.131290
C24   C     C_R   0.774684 0.338956 0.287392 -0.141368
C25   C     C_R   0.755344 0.405926 0.315922 0.029957
C26   C     C_R   0.752276 0.492874 0.303748 0.157158
C27   C     C_R   0.760623 0.505415 0.262422 -0.073952
C28   C     C_R   0.771094 0.433019 0.233638 -0.004626
C29   C     C_R   0.759662 0.436293 0.189858 0.003614
C30   C     C_R   0.619575 0.351460 0.366845 -0.093354
C31   C     C_R   0.594103 0.205698 0.456355 0.548518
C32   C     C_R   0.577063 0.302258 0.401076 0.137589
C33   C     C_R   0.744077 0.301054 0.414213 -0.161248
C34   C     C_R   0.784543 0.349610 0.380229 -0.143262
C35   C     C_R   0.721696 0.372934 0.355886 -0.007568
C36   C     C_R   0.639276 0.273593 0.424400 0.028177
C37   C     C_R   0.242167 0.877860 0.393921 0.020059
C38   C     C_R   0.235033 0.961460 0.380881 -0.124269
C39   C     C_R   0.209076 0.958040 0.339859 -0.115327
C40   C     C_R   0.758276 0.852585 0.634675 -0.110204
C41   C     C_R   0.188768 0.870709 0.311514 0.043240
C42   C     C_R   0.187619 0.783973 0.324641 -0.117539
C43   C     C_R   0.295111 0.892736 0.434520 0.541270
C44   C     C_R   0.214273 0.787420 0.365656 -0.132631
C45   C     C_R   0.190803 0.804209 0.163907 -0.116404
C46   C     C_R   0.164890 0.783981 0.121884 -0.126828
C47   C     C_R   0.089817 0.900696 0.129630 -0.130993
C48   C     C_R   0.115545 0.920519 0.171768 -0.115966
C49   C     C_R   0.162443 0.869201 0.189036 0.040210
C50   C     C_1   0.171707 0.873938 0.232491 -0.034763
C51   C     C_R   0.670913 0.780521 0.653373 0.006620
C52   C     C_1   0.178263 0.873334 0.268657 -0.034159
C53   C     C_R   0.109649 0.828241 0.104572 0.019877
C54   C     C_R   0.638594 0.878085 0.395719 -0.006988
C55   C     C_R   0.614220 0.904351 0.551373 0.551490
C56   C     C_R   0.557274 0.791303 0.370320 -0.131966
C57   C     C_R   0.565528 0.777383 0.328071 0.140205
C58   C     C_R   0.657137 0.849928 0.311443 0.058741
C59   C     C_R   0.742151 0.930703 0.337084 -0.153305
C60   C     C_R   0.733211 0.944690 0.378970 -0.138067
C61   C     C_R   0.773195 0.916079 0.174833 -0.157298
C62   C     C_R   0.637316 0.857276 0.584204 0.041269
C63   C     C_R   0.791267 0.904247 0.133655 -0.142046
C64   C     C_R   0.613954 0.753464 0.119961 -0.114229
C65   C     C_R   0.594726 0.765847 0.161145 0.154667
C66   C     C_R   0.676933 0.844892 0.188875 0.059179
C67   C     C_R   0.590214 0.200508 0.570774 0.538115
C68   C     C_1   0.668223 0.846501 0.232002 0.001679
C69   C     C_1   0.662708 0.846881 0.268156 0.001593
C70   C     C_R   0.713549 0.819949 0.106267 -0.002728
C71   C     C_R   0.625007 0.253228 0.613657 0.018843
C72   C     C_R   0.567208 0.295508 0.636236 0.143666
C73   C     C_R   0.052103 0.781229 0.063803 0.544031
C74   C     C_R   0.585409 0.317906 0.679155 -0.082581
C75   C     C_R   0.659844 0.300116 0.699018 0.008795
C76   C     C_R   0.722829 0.267396 0.676532 -0.129343
C77   C     C_R   0.706110 0.244746 0.634183 -0.164603
C78   C     C_R   0.763222 0.343326 0.845388 -0.115828
C79   C     C_R   0.288889 0.886759 0.548531 0.541464
C80   C     C_R   0.772273 0.369665 0.887764 -0.129205
C81   C     C_R   0.593863 0.349309 0.884974 -0.126270
C82   C     C_R   0.585047 0.322925 0.842608 -0.113499
C83   C     C_R   0.671212 0.323785 0.822734 0.041726
C84   C     C_R   0.744011 0.487334 0.066599 0.553057
C85   C     C_1   0.668857 0.314413 0.779140 -0.029356
C86   C     C_1   0.666213 0.308716 0.742618 -0.031993
C87   C     C_R   0.689605 0.377804 0.907785 0.021610
C88   C     C_R   0.066471 0.752660 0.907718 0.019314
C89   C     C_R   0.104057 0.851502 0.895890 -0.144252
C90   C     C_R   0.120776 0.863877 0.855093 -0.128566
C91   C     C_R   0.739172 0.453038 0.107012 0.038466
C92   C     C_R   0.100652 0.777666 0.825757 0.030094
C93   C     C_R   0.070751 0.680752 0.838220 -0.118301
C94   C     C_R   0.054281 0.668448 0.878920 -0.120959
C95   C     C_R   0.742588 0.789149 0.066319 0.555376
C96   C     C_R   0.149473 0.737013 0.756398 -0.117568
C97   C     C_R   0.150952 0.742881 0.714874 -0.109277
C98   C     C_R   0.106344 0.797114 0.698101 0.023330
C99   C     C_R   0.060705 0.846080 0.723484 -0.115833
C100  C     C_R   0.060305 0.841233 0.765208 -0.110112
C101  C     C_R   0.104615 0.786500 0.781973 0.032789
C102  C     C_R   0.177533 0.917999 0.647918 -0.152243
C103  C     C_R   0.656878 0.442963 0.132811 0.140689
C104  C     C_R   0.224811 0.941023 0.611500 -0.146231
C105  C     C_R   0.154337 0.756108 0.587642 -0.096320
C106  C     C_R   0.021881 0.732291 0.947357 0.530756
C107  C     C_R   0.101966 0.731152 0.623689 0.151812
C108  C     C_R   0.122224 0.814263 0.655352 0.029893
C109  C     C_R   0.219167 0.860691 0.582309 -0.013939
C110  C     C_R   0.727883 0.701450 0.901102 0.017600
C111  C     C_R   0.628019 0.639708 0.878912 -0.124082
C112  C     C_R   0.619447 0.638108 0.836489 -0.116368
C113  C     C_R   0.711006 0.696319 0.816064 0.033031
C114  C     C_R   0.810997 0.749457 0.838177 -0.115349
C115  C     C_R   0.669277 0.436738 0.174064 -0.107645
C116  C     C_R   0.818840 0.753691 0.880086 -0.125342
Cr1   Cr    Cr6+3 0.424820 0.846020 0.489780 1.001769
Cr2   Cr    Cr6+3 0.657880 0.078580 0.505700 1.010505
Cr3   Cr    Cr6+3 0.417280 0.075360 0.504550 1.021165
Cr4   Cr    Cr6+3 0.903360 0.812540 0.006510 1.001379
Cr5   Cr    Cr6+3 0.914630 0.587050 0.006280 1.000881
Cr6   Cr    Cr6+3 0.673560 0.582680 0.008540 1.017020
H1    H     H_    0.906265 0.435823 0.175593 0.113074
H2    H     H_    0.797687 0.011739 0.397795 0.133768
H3    H     H_    0.484025 0.738495 0.382664 0.122197
H4    H     H_    0.552708 0.688746 0.099063 0.120644
H5    H     H_    0.863496 0.365429 0.371994 0.113141
H6    H     H_    0.830185 0.343845 0.830167 0.103948
H7    H     H_    0.752111 0.213601 0.617802 0.142428
H8    H     H_    0.513372 0.307561 0.825201 0.103504
H9    H     H_    0.528887 0.355066 0.899380 0.125966
H10   H     H_    0.540436 0.346833 0.697528 0.103362
H11   H     H_    0.114300 0.917549 0.917704 0.116150
H12   H     H_    0.227189 0.764277 0.177060 0.096423
H13   H     H_    0.024379 0.591139 0.887178 0.124630
H14   H     H_    0.185573 0.695768 0.768680 0.102871
H15   H     H_    0.145936 0.939853 0.846243 0.104637
H16   H     H_    0.027273 0.889490 0.711106 0.099011
H17   H     H_    0.192485 0.982138 0.671735 0.110830
H18   H     H_    0.273379 0.022302 0.607780 0.147231
H19   H     H_    0.054036 0.612890 0.816148 0.103822
H20   H     H_    0.148467 0.694921 0.564260 0.124642
H21   H     H_    0.556686 0.597289 0.894426 0.121605
H22   H     H_    0.791042 0.296195 0.224616 0.113694
H23   H     H_    0.171250 0.715701 0.302843 0.102619
H24   H     H_    0.896431 0.801138 0.896424 0.137724
H25   H     H_    0.838996 0.880291 0.647316 0.096657
H26   H     H_    0.806431 0.913015 0.717478 0.097445
H27   H     H_    0.820577 0.878413 0.785870 0.098070
H28   H     H_    0.541115 0.595995 0.820145 0.100526
H29   H     H_    0.568342 0.589935 0.680489 0.096379
H30   H     H_    0.583341 0.554077 0.749899 0.095856
H31   H     H_    0.469199 0.752701 0.590088 0.137351
H32   H     H_    0.883225 0.792163 0.823338 0.108176
H33   H     H_    0.607722 0.431952 0.193966 0.103669
H34   H     H_    0.218945 0.721831 0.374699 0.121059
H35   H     H_    0.572010 0.369729 0.347519 0.118531
H36   H     H_    0.533671 0.477747 0.139630 0.237980
H37   H     H_    0.414170 0.350626 0.085398 0.135136
H38   H     H_    0.450268 0.285972 0.120127 0.127964
H39   H     H_    0.512961 0.311900 0.072423 0.163839
H40   H     H_    0.472023 0.322051 0.439435 0.255412
H41   H     H_    0.312946 0.228030 0.392942 0.134361
H42   H     H_    0.391407 0.209962 0.353744 0.154592
H43   H     H_    0.409433 0.339798 0.371751 0.121872
H44   H     H_    0.793844 0.281001 0.431579 0.128826
H45   H     H_    0.255789 0.032204 0.401851 0.137739
H46   H     H_    0.181200 0.727909 0.103388 0.121460
H47   H     H_    0.093344 0.971043 0.191040 0.104477
H48   H     H_    0.890734 0.453325 0.103949 0.130316
H49   H     H_    0.868933 0.956149 0.123967 0.127172
H50   H     H_    0.459922 0.620896 0.158158 0.238080
H51   H     H_    0.348099 0.678094 0.192569 0.129895
H52   H     H_    0.398268 0.747744 0.149814 0.132841
H53   H     H_    0.457661 0.810242 0.201147 0.156291
H54   H     H_    0.447036 0.624048 0.314407 0.233764
H55   H     H_    0.338041 0.649806 0.267631 0.135696
H56   H     H_    0.046544 0.935299 0.117281 0.123007
H57   H     H_    0.434760 0.787138 0.273880 0.164147
H58   H     H_    0.358710 0.730980 0.316124 0.134654
H59   H     H_    0.847111 0.391280 0.904378 0.123552
H60   H     H_    0.781495 0.254617 0.691833 0.117579
H61   H     H_    0.520207 0.356934 0.592023 0.252903
H62   H     H_    0.351692 0.325705 0.615515 0.140134
H63   H     H_    0.449359 0.404576 0.657578 0.121788
H64   H     H_    0.368977 0.263551 0.655886 0.147063
H65   H     H_    0.989388 0.614572 0.654202 0.260336
H66   H     H_    0.920386 0.471870 0.604032 0.142270
H67   H     H_    0.209589 0.025326 0.329991 0.098915
H68   H     H_    0.033108 0.532523 0.574786 0.145373
H69   H     H_    0.931434 0.573185 0.576154 0.144702
H70   H     H_    0.776457 0.271757 0.296258 0.114343
H71   H     H_    0.189867 0.707642 0.695976 0.130194
H72   H     H_    0.025239 0.880145 0.784251 0.088927
H73   H     H_    0.498421 0.687862 0.649746 0.111907
H74   H     H_    0.899255 0.009607 0.602222 0.237155
H75   H     H_    0.926693 0.981185 0.532074 0.139166
H76   H     H_    0.789724 0.879248 0.522123 0.157548
H77   H     H_    0.882917 0.860870 0.552652 0.131507
H78   H     H_    0.836654 0.977308 0.196103 0.104959
H79   H     H_    0.757158 0.565200 0.363146 0.256516
H80   H     H_    0.659372 0.647446 0.350750 0.149833
H81   H     H_    0.580817 0.518705 0.321771 0.126164
H82   H     H_    0.670541 0.627968 0.296875 0.168059
H83   H     H_    0.757319 0.570586 0.252279 0.119207
H84   H     H_    0.813467 0.986126 0.324462 0.106728
N1    N     N_2   0.563517 0.443306 0.118209 -0.488888
N2    N     N_2   0.472662 0.280262 0.412061 -0.493795
N3    N     N_2   0.495224 0.694962 0.174869 -0.506545
N4    N     N_2   0.479857 0.693030 0.302364 -0.512109
N5    N     N_2   0.491179 0.313134 0.615369 -0.495258
N6    N     N_2   0.035302 0.624545 0.629576 -0.526057
N7    N     N_2   0.833025 0.963724 0.581952 -0.497968
N8    N     N_2   0.745102 0.569203 0.332880 -0.523145
O1    O     O_R   0.318160 0.824460 0.443680 -0.521236
O2    O     O_R   0.668160 0.499860 0.053480 -0.473802
O3    O     O_R   0.689170 0.693840 0.050110 -0.490644
O4    O     O_R   0.525040 0.857250 0.449830 -0.502790
O5    O     O_R   0.803860 0.812940 0.962540 -0.510829
O6    O     O_R   0.982950 0.787950 0.964120 -0.527598
O7    O     O_R   0.007050 0.649970 0.960540 -0.515998
O8    O     O_R   0.807910 0.482370 0.965590 -0.505151
O9    O     O_R   0.643310 0.460980 0.963840 -0.529521
O10   O     O_R   0.666140 0.657800 0.967020 -0.501297
O11   O     O_3   0.830520 0.660760 0.007110 -0.261352
O12   O     O_R   0.645130 0.163230 0.552140 -0.510866
O13   O     O_R   0.684760 0.998800 0.456360 -0.519462
O14   O     O_R   0.647540 0.166310 0.470260 -0.509443
O15   O     O_R   0.500960 0.181750 0.467450 -0.494239
O16   O     O_R   0.331100 0.981120 0.457080 -0.498228
O17   O     O_R   0.315560 0.821140 0.532010 -0.521573
O18   O     O_R   0.522630 0.854180 0.531710 -0.512854
O19   O     O_R   0.682160 0.995480 0.544690 -0.478089
O20   O     O_R   0.498360 0.178430 0.555780 -0.491206
O21   O     O_R   0.328690 0.978040 0.538950 -0.497086
O22   O     O_3   0.499990 0.999990 0.500010 -0.235346
O23   O     O_R   0.828710 0.851830 0.052170 -0.514865
O24   O     O_R   0.005980 0.823990 0.047210 -0.501691
O25   O     O_R   0.031900 0.688850 0.050170 -0.513533
O26   O     O_R   0.830940 0.518420 0.048680 -0.507192

loop_
_geom_bond_atom_site_label_1
_geom_bond_atom_site_label_2
_ccdc_geom_bond_type
C96   C101  A    
C30   H35   S    
C66   C68   S    
C24   C25   A    
C67   O20   A    
C21   H1    S    
C93   C94   A    
Cr6   O3    S    
C74   H10   S    
C41   C42   A    
C106  O6    A    
C33   H44   S    
C9    C51   A    
C75   C76   A    
C11   C62   A    
C78   H6    S    
C81   C82   A    
C43   O16   A    
C98   C108  S    
C7    C8    A    
C96   H14   S    
C54   C60   A    
C85   C86   T    
Cr2   O12   S    
C105  C107  A    
C45   H12   S    
C13   C110  S    
C46   H46   S    
C30   C35   A    
H36   N1    S    
C32   C36   A    
C92   C93   A    
C28   C29   S    
C103  N1    S    
C73   O25   A    
C80   C87   A    
C14   N2    S    
C5    C6    A    
C39   H67   S    
C78   C80   A    
C81   H9    S    
C72   N5    S    
H61   N5    S    
C4    H26   S    
C55   C62   S    
C2    O8    A    
C33   C36   A    
Cr5   O11   S    
C56   C57   A    
C10   H31   S    
Cr1   O1    S    
C34   C35   A    
C95   O23   A    
C97   H71   S    
C14   H41   S    
C61   C63   A    
C110  C111  A    
C100  C101  A    
C75   C86   S    
Cr3   O16   S    
C12   H39   S    
C90   C92   A    
C61   C66   A    
C111  C112  A    
C17   H63   S    
C68   C69   T    
C47   C48   A    
C50   C52   T    
Cr5   O8    S    
C99   H16   S    
C102  C108  A    
C1    O4    A    
C84   C91   S    
C64   C70   A    
C32   N2    S    
C116  H24   S    
C9    C10   A    
C41   C52   S    
C65   N3    S    
C15   H52   S    
C16   H57   S    
C111  H21   S    
Cr4   O23   S    
C47   C53   A    
H40   N2    S    
C88   C89   A    
C1    O13   A    
C29   C115  A    
C43   O1    A    
C59   C60   A    
Cr6   O10   S    
C31   O14   A    
C10   C62   A    
C42   C44   A    
C55   O19   A    
C76   H60   S    
C78   C83   A    
C61   H78   S    
C112  C113  A    
C97   C98   A    
C54   C56   A    
C38   H45   S    
C88   C94   A    
C18   H69   S    
C3    H27   S    
C19   H75   S    
C74   C75   A    
C79   C109  S    
C44   H34   S    
C12   N1    S    
C2    C87   S    
C89   H11   S    
C76   C77   A    
C20   H82   S    
C72   C74   A    
C3    C8    A    
C105  H20   S    
C15   H51   S    
C34   H5    S    
C107  N6    S    
Cr1   O22   S    
Cr2   O14   S    
C25   C26   A    
Cr5   O25   S    
Cr6   O11   S    
C21   C29   A    
Cr1   O17   S    
C13   O5    A    
C104  H18   S    
C27   H83   S    
C20   N8    S    
C37   C43   S    
C103  C115  A    
C1    C54   S    
C37   C38   A    
Cr2   O22   S    
C88   C106  S    
Cr3   O20   S    
C63   H49   S    
C99   C100  A    
C63   C70   A    
C45   C49   A    
C17   H64   S    
Cr4   O6    S    
C96   C97   A    
C94   H13   S    
C26   C27   A    
Cr1   O4    S    
C24   H70   S    
C77   H7    S    
C80   H59   S    
C12   H38   S    
C14   H43   S    
C102  C104  A    
C79   O17   A    
C22   H48   S    
C92   C101  S    
C25   C35   S    
C6    H29   S    
C8    C113  S    
C59   H84   S    
Cr3   O21   S    
C48   C49   A    
C83   C85   S    
C11   N7    S    
H50   N3    S    
C64   H4    S    
Cr6   O9    S    
Cr6   O2    S    
C49   C50   S    
C112  H28   S    
C23   H22   S    
C82   H8    S    
C23   C28   A    
C107  C108  A    
C3    C4    A    
Cr5   O26   S    
C110  C116  A    
C71   C77   A    
C90   H15   S    
C93   H19   S    
C16   H55   S    
C113  C114  A    
C18   N6    S    
C105  C109  A    
C57   N4    S    
C18   H68   S    
C19   H76   S    
C40   H25   S    
C115  H33   S    
C38   C39   A    
C55   O18   A    
C53   C73   S    
C84   O26   A    
C20   H81   S    
C91   C103  A    
C4    C5    A    
C17   N5    S    
C22   C91   A    
C114  C116  A    
C9    H73   S    
C58   C69   S    
C60   H2    S    
C6    C7    A    
C84   O2    A    
C19   N7    S    
C100  H72   S    
Cr2   O13   S    
C47   H56   S    
C40   C51   A    
Cr1   O18   S    
C19   H77   S    
C67   O12   A    
C15   H53   S    
C26   N8    S    
C64   C65   A    
C37   C44   A    
C16   N4    S    
C70   C95   S    
C58   C59   A    
C79   O21   A    
C73   O24   A    
C15   N3    S    
C30   C32   A    
H74   N7    S    
C81   C87   A    
Cr2   O19   S    
C57   C58   A    
C104  C109  A    
Cr4   O5    S    
C17   H62   S    
C31   O15   A    
C46   C53   A    
C18   H66   S    
C2    O9    A    
C95   O3    A    
C33   C34   A    
C67   C71   S    
C102  H17   S    
C65   C66   A    
C12   H37   S    
C14   H42   S    
C11   C40   A    
H79   N8    S    
Cr3   O15   S    
C23   C24   A    
C20   H80   S    
C7    H30   S    
C106  O7    A    
C45   C46   A    
Cr3   O22   S    
C71   C72   A    
H65   N6    S    
C39   C41   A    
C56   H3    S    
C98   C99   A    
C27   C28   A    
H54   N4    S    
Cr5   O7    S    
C31   C36   S    
C5    C51   S    
C48   H47   S    
C13   O10   A    
C82   C83   A    
C89   C90   A    
C21   C22   A    
C42   H23   S    
Cr4   O11   S    
C114  H32   S    
C16   H58   S    
Cr4   O24   S    
