data_mof_unit_26626.cif
_audit_creation_date              2012-12-10T16:49:30-0500
_audit_creation_method            fapswitch 2.2
_symmetry_space_group_name_H-M    P1
_symmetry_Int_Tables_number       1
_space_group_crystal_system       triclinic
_cell_length_a                    19.328122
_cell_length_b                    8.69655
_cell_length_c                    7.493089
_cell_angle_alpha                 103.330567
_cell_angle_beta                  94.417553
_cell_angle_gamma                 93.097423
_cell_volume                      1218.5710588

loop_
_atom_site_label
_atom_site_type_symbol
_atom_type_description
_atom_site_fract_x
_atom_site_fract_y
_atom_site_fract_z
_atom_type_partial_charge
C1    C     C_R   0.497479 0.199691 0.453059 0.858891
C2    C     C_R   0.502521 0.800309 0.546941 0.858890
C3    C     C_2   0.495004 0.031349 0.427382 -0.369767
C4    C     C_2   0.504996 0.968651 0.572618 -0.369766
C5    C     C_R   0.367602 0.499496 0.501693 0.763230
C6    C     C_R   0.632398 0.500504 0.498306 0.763228
C7    C     C_R   0.260312 0.510054 0.668529 -0.184628
C8    C     C_R   0.739687 0.489938 0.331470 -0.184627
C9    C     C_R   0.188159 0.509926 0.668252 -0.165439
C10   C     C_R   0.811841 0.490067 0.331746 -0.165440
C11   C     C_R   0.146317 0.499085 0.503165 0.063526
C12   C     C_R   0.853682 0.500915 0.496835 0.063525
C13   C     C_R   0.177885 0.488016 0.338638 -0.157725
C14   C     C_R   0.822115 0.511991 0.661362 -0.157724
C15   C     C_R   0.249788 0.487999 0.338895 -0.193945
C16   C     C_R   0.750212 0.512009 0.661106 -0.193946
C17   C     C_R   0.291677 0.499247 0.503736 -0.028116
C18   C     C_R   0.708323 0.500753 0.496264 -0.028116
C19   C     C_R   0.929845 0.500524 0.498267 0.410764
C20   C     C_R   0.070154 0.499476 0.501732 0.410764
Cu1   Cu    Cu3+1 0.507710 0.517380 0.684380 1.018567
Cu2   Cu    Cu3+1 0.492290 0.482620 0.315620 1.018567
H1    H     H_    0.291383 0.518541 0.797514 0.175385
H2    H     H_    0.708617 0.481446 0.202484 0.175385
H3    H     H_    0.165295 0.518439 0.797341 0.150947
H4    H     H_    0.834704 0.481547 0.202657 0.150948
H5    H     H_    0.147160 0.479441 0.209143 0.155460
H6    H     H_    0.852840 0.520573 0.790858 0.155461
H7    H     H_    0.272446 0.479403 0.209457 0.159376
H8    H     H_    0.727554 0.520611 0.790544 0.159376
H9    H     H_    0.484347 0.958699 0.288096 0.165026
H10   H     H_    0.515653 0.041301 0.711904 0.165026
N1    N     N_R   0.029939 0.489553 0.342187 -0.232510
N2    N     N_R   0.970061 0.510446 0.657812 -0.232510
N3    N     N_R   0.961131 0.490048 0.340424 -0.234810
N4    N     N_R   0.038869 0.509951 0.659576 -0.234810
N5    N     N_2   0.480680 0.456420 0.038530 0.157039
N6    N     N_2   0.519320 0.543580 0.961470 0.157039
O1    O     O_R   0.505010 0.286130 0.619770 -0.554565
O2    O     O_R   0.494990 0.713870 0.380230 -0.554567
O3    O     O_R   0.491990 0.256780 0.308370 -0.624025
O4    O     O_R   0.508010 0.743220 0.691630 -0.624025
O5    O     O_R   0.406650 0.514660 0.655750 -0.538902
O6    O     O_R   0.593350 0.485340 0.344250 -0.538901
O7    O     O_R   0.393640 0.485310 0.344340 -0.594044
O8    O     O_R   0.606360 0.514690 0.655660 -0.594044
O9    O     O_3   0.421104 0.395033 0.935956 -0.486409
C21   C     C_3   0.406340 0.242397 0.962390 -0.140235
H11   H     H_    0.380701 0.247493 0.090525 0.164510
H12   H     H_    0.453473 0.174263 0.960962 0.135979
H13   H     H_    0.369130 0.176322 0.846496 0.126423
O10   O     O_3   0.578897 0.604963 0.064042 -0.486408
C22   C     C_3   0.593662 0.757599 0.037610 -0.140233
H14   H     H_    0.546530 0.825737 0.039039 0.135977
H15   H     H_    0.619301 0.752503 0.909472 0.164510
H16   H     H_    0.630873 0.823673 0.153504 0.126422

loop_
_geom_bond_atom_site_label_1
_geom_bond_atom_site_label_2
_ccdc_geom_bond_type
C2    C4    S    
C15   C17   A    
N5    N6    D    
C8    H2    S    
N5    O9    S    
C11   C13   A    
O9    C21   S    
Cu1   O1    S    
C13   C15   A    
Cu2   O2    S    
C10   H4    S    
Cu1   O5    S    
C21   H12   S    
C5    O5    A    
C9    H3    S    
C19   N3    A    
Cu1   Cu2   S    
C3    H9    S    
C9    C11   A    
C4    H10   S    
C10   C12   A    
C2    O4    A    
C7    H1    S    
C20   N1    A    
C12   C19   S    
C1    O3    A    
C21   H11   S    
N1    N3    A    
C12   C14   A    
C15   H7    S    
C8    C18   A    
N2    N4    A    
C22   H15   S    
C6    C18   S    
C14   C16   A    
C11   C20   S    
C21   H13   S    
Cu2   O3    S    
C5    C17   S    
C1    O1    A    
C16   H8    S    
C3    C4    D    
C20   N4    A    
C2    O2    A    
Cu2   O7    S    
N6    O10   S    
O10   C22   S    
C16   C18   A    
Cu1   O8    S    
C22   H16   S    
C7    C9    A    
C13   H5    S    
C6    O6    A    
C6    O8    A    
C14   H6    S    
C22   H14   S    
Cu2   N5    S    
C5    O7    A    
C8    C10   A    
Cu2   O6    S    
Cu1   N6    S    
Cu1   O4    S    
C1    C3    S    
C19   N2    A    
C7    C17   A    
