data_mof_unit_19856.cif
_audit_creation_date              2012-12-10T19:44:57-0500
_audit_creation_method            fapswitch 2.2
_symmetry_space_group_name_H-M    P1
_symmetry_Int_Tables_number       1
_space_group_crystal_system       triclinic
_cell_length_a                    15.076873
_cell_length_b                    10.842227
_cell_length_c                    13.668429
_cell_angle_alpha                 90.145737
_cell_angle_beta                  90.079868
_cell_angle_gamma                 89.765989
_cell_volume                      2234.30743442

loop_
_atom_site_label
_atom_site_type_symbol
_atom_type_description
_atom_site_fract_x
_atom_site_fract_y
_atom_site_fract_z
_atom_type_partial_charge
C1    C     C_R   0.497477 0.262094 0.499611 0.794946
C2    C     C_R   0.502436 0.737893 0.500365 0.798407
C3    C     C_R   0.046678 0.489443 0.321977 -0.289017
C4    C     C_R   0.953389 0.512134 0.677911 -0.304719
C5    C     C_R   0.320070 0.246136 0.244728 -0.119204
C6    C     C_R   0.685139 0.755011 0.749996 -0.117547
C7    C     C_R   0.352282 0.189042 0.329399 -0.090851
C8    C     C_R   0.650577 0.812416 0.666634 -0.097320
C9    C     C_R   0.430942 0.119029 0.326026 0.126272
C10   C     C_R   0.571270 0.880676 0.672480 0.125593
C11   C     C_R   0.475522 0.104735 0.236466 -0.162072
C12   C     C_R   0.528187 0.892589 0.763124 -0.158519
C13   C     C_R   0.442899 0.161640 0.152026 -0.138895
C14   C     C_R   0.563051 0.835071 0.846260 -0.140143
C15   C     C_R   0.365599 0.232916 0.156273 -0.111139
C16   C     C_R   0.641206 0.765838 0.839606 -0.107978
C17   C     C_R   0.472498 0.933026 0.418065 -0.237682
C18   C     C_R   0.527161 0.066873 0.581911 -0.239842
C19   C     C_R   0.504158 0.871738 0.501133 -0.082806
C20   C     C_R   0.495577 0.128227 0.498785 -0.083760
C21   C     C_R   0.532891 0.939219 0.583926 -0.000246
C22   C     C_R   0.467193 0.060706 0.415788 -0.001409
C23   C     C_R   0.328460 0.500475 0.499958 0.806203
C24   C     C_R   0.671549 0.500180 0.500050 0.805299
C25   C     C_R   0.561346 0.430822 0.793186 0.006064
C26   C     C_R   0.438438 0.568772 0.206797 0.005451
C27   C     C_R   0.438435 0.568721 0.793273 0.030519
C28   C     C_R   0.561384 0.430922 0.206742 0.035845
C29   C     C_R   0.436755 0.570012 0.896378 -0.007247
C30   C     C_R   0.562839 0.429190 0.103626 -0.003622
C31   C     C_R   0.499766 0.499543 0.948156 0.083510
C32   C     C_R   0.499812 0.499630 0.051840 0.081430
C33   C     C_R   0.562779 0.429068 0.896303 -0.009686
C34   C     C_R   0.436783 0.570088 0.103686 -0.008452
C35   C     C_R   0.374051 0.640090 0.948670 -0.228832
C36   C     C_R   0.625271 0.358615 0.051324 -0.217112
C37   C     C_R   0.373989 0.640007 0.051447 -0.212149
C38   C     C_R   0.625317 0.358677 0.948543 -0.212387
C39   C     C_R   0.814778 0.503745 0.588793 -0.225318
C40   C     C_R   0.185276 0.495301 0.411262 -0.223111
C41   C     C_R   0.768334 0.500026 0.500070 -0.084661
C42   C     C_R   0.231694 0.501061 0.499953 -0.088209
C43   C     C_R   0.814415 0.496048 0.411175 -0.229263
C44   C     C_R   0.185597 0.507492 0.588788 -0.222962
C45   C     C_R   0.907021 0.493570 0.409965 0.010253
C46   C     C_R   0.093022 0.506180 0.590019 0.027704
C47   C     C_R   0.953548 0.498031 0.499834 0.002530
C48   C     C_R   0.046510 0.498624 0.500266 -0.000874
C49   C     C_R   0.907090 0.504034 0.589293 0.070885
C50   C     C_R   0.092974 0.494027 0.410760 0.061471
C51   C     C_R   0.954105 0.487793 0.320822 0.445427
C52   C     C_R   0.046125 0.512603 0.679061 0.423021
Cu1   Cu    Cu3+1 0.500010 0.499980 0.597420 0.943194
Cu2   Cu    Cu3+1 0.499990 0.500020 0.402580 0.943875
H1    H     H_    0.779174 0.506859 0.657607 0.144943
H2    H     H_    0.220892 0.491883 0.342452 0.144940
H3    H     H_    0.449340 0.881133 0.355109 0.156701
H4    H     H_    0.550476 0.118701 0.644827 0.155884
H5    H     H_    0.609110 0.376869 0.752121 0.123558
H6    H     H_    0.390659 0.622720 0.247846 0.124524
H7    H     H_    0.390857 0.623016 0.752302 0.128772
H8    H     H_    0.608974 0.376650 0.247724 0.119263
H9    H     H_    0.325066 0.694915 0.910103 0.145648
H10   H     H_    0.673908 0.303195 0.089857 0.128295
H11   H     H_    0.324923 0.694731 0.090045 0.141510
H12   H     H_    0.674205 0.303625 0.909952 0.137605
H13   H     H_    0.777856 0.494259 0.342933 0.179649
H14   H     H_    0.222035 0.513069 0.657037 0.185067
H15   H     H_    0.082311 0.487842 0.253138 0.151697
H16   H     H_    0.917701 0.520082 0.746465 0.152520
H17   H     H_    0.341219 0.278008 0.090994 0.132035
H18   H     H_    0.667725 0.720647 0.903893 0.132843
H19   H     H_    0.259912 0.300763 0.247648 0.112660
H20   H     H_    0.745975 0.702120 0.745185 0.120825
H21   H     H_    0.316711 0.200451 0.397647 0.103679
H22   H     H_    0.684960 0.802792 0.597483 0.107170
H23   H     H_    0.536111 0.050954 0.232420 0.126401
H24   H     H_    0.467072 0.944919 0.769015 0.125792
H25   H     H_    0.478004 0.151425 0.083438 0.138320
H26   H     H_    0.529126 0.843411 0.915721 0.139122
N1    N     N_R   0.499960 0.499900 0.743810 -0.179901
N2    N     N_R   0.500040 0.500100 0.256190 -0.179168
O1    O     O_R   0.500000 0.319630 0.582270 -0.588679
O2    O     O_R   0.500000 0.680370 0.417730 -0.587637
O3    O     O_R   0.499990 0.319660 0.417730 -0.572287
O4    O     O_R   0.500010 0.680340 0.582270 -0.571055
O5    O     O_R   0.370260 0.499960 0.582280 -0.594238
O6    O     O_R   0.629740 0.500040 0.417720 -0.593346
O7    O     O_R   0.370250 0.499990 0.417740 -0.590320
O8    O     O_R   0.629750 0.500010 0.582260 -0.589915
O9    O     O_3   0.910492 0.490793 0.231698 -0.611956
C53   C     C_3   0.883764 0.370384 0.204601 0.038855
H27   H     H_    0.816013 0.377687 0.173048 0.159404
H28   H     H_    0.879077 0.304427 0.267114 0.122168
C54   C     C_3   0.946225 0.318594 0.126367 -0.340238
H29   H     H_    0.950934 0.384934 0.064714 0.232533
H30   H     H_    0.013513 0.305739 0.158092 0.211549
C55   C     C_3   0.913094 0.195043 0.087337 -0.927301
H31   H     H_    0.908934 0.126739 0.147574 0.261102
H32   H     H_    0.959715 0.159357 0.031118 0.254254
H33   H     H_    0.846614 0.206265 0.053250 0.251580
O10   O     O_3   0.090311 0.532372 0.766411 -0.614984
C56   C     C_3   0.098538 0.419234 0.816465 0.029455
H34   H     H_    0.138030 0.352154 0.772294 0.142708
H35   H     H_    0.032043 0.379438 0.832376 0.142665
C57   C     C_3   0.146405 0.442186 0.913441 -0.303959
H36   H     H_    0.211734 0.485662 0.899084 0.227237
H37   H     H_    0.106237 0.506510 0.958975 0.222527
C58   C     C_3   0.161108 0.322631 0.969862 -0.950941
H38   H     H_    0.097181 0.274507 0.981412 0.260395
H39   H     H_    0.190544 0.343955 0.042412 0.249495
H40   H     H_    0.207049 0.260863 0.929111 0.259711

loop_
_geom_bond_atom_site_label_1
_geom_bond_atom_site_label_2
_ccdc_geom_bond_type
Cu2   O6    S    
C13   H25   S    
C27   C29   A    
C18   C21   A    
C2    O2    A    
C54   H29   S    
C16   H18   S    
Cu2   O2    S    
C54   C55   S    
C39   C41   A    
Cu1   Cu2   S    
C52   O10   S    
C23   C42   S    
C4    C52   A    
C3    H15   S    
C58   H39   S    
C9    C22   S    
C57   H36   S    
C45   C51   A    
C34   C37   A    
C46   C52   A    
C8    H22   S    
Cu1   N1    S    
C27   H7    S    
C51   O9    S    
C26   C34   A    
C39   H1    S    
C38   H12   S    
C40   H2    S    
C37   H11   S    
C23   O7    A    
Cu1   O4    S    
C14   H26   S    
C11   H23   S    
C48   C50   A    
C26   N2    A    
C23   O5    A    
C25   N1    A    
C24   C41   S    
C41   C43   A    
C42   C44   A    
C4    H16   S    
C3    C50   A    
C44   C46   A    
C6    H20   S    
C45   C47   A    
C10   C21   S    
C1    O3    A    
C46   C48   A    
C31   C33   A    
C28   N2    A    
C47   C48   A    
C27   N1    A    
Cu2   O7    S    
C47   C49   A    
C58   H40   S    
O9    C53   S    
C5    C7    A    
C3    C51   A    
C6    C8    A    
C53   C54   S    
C12   H24   S    
C32   C34   A    
C24   O6    A    
C31   C32   A    
C29   C31   A    
C53   H28   S    
Cu1   O5    S    
C9    C11   A    
C10   C12   A    
C43   H13   S    
C39   C49   A    
C12   C14   A    
C55   H32   S    
C13   C15   A    
C56   H35   S    
C14   C16   A    
C44   H14   S    
Cu2   N2    S    
C7    C9    A    
C1    C20   S    
C35   C37   A    
C2    C19   S    
C33   C38   A    
C20   C22   A    
C40   C42   A    
C24   O8    A    
Cu2   O3    S    
C7    H21   S    
C54   H30   S    
C1    O1    A    
C55   H33   S    
C15   H17   S    
C29   C35   A    
C17   C22   A    
C30   C36   A    
C4    C49   A    
Cu1   O1    S    
C36   C38   A    
C43   C45   A    
C58   H38   S    
C30   C32   A    
C11   C13   A    
C57   H37   S    
C40   C50   A    
C28   C30   A    
C53   H27   S    
C17   C19   A    
C18   H4    S    
C2    O4    A    
C56   C57   S    
C18   C20   A    
C5    H19   S    
O10   C56   S    
C5    C15   A    
C6    C16   A    
C56   H34   S    
C8    C10   A    
C55   H31   S    
C25   C33   A    
Cu1   O8    S    
C35   H9    S    
C25   H5    S    
C36   H10   S    
C26   H6    S    
C17   H3    S    
C19   C21   A    
C57   C58   S    
C28   H8    S    
