data_mof_unit_67405.cif
_audit_creation_date              2012-10-26T19:39:07-0400
_audit_creation_method            fapswitch 2.2
_symmetry_space_group_name_H-M    P1
_symmetry_Int_Tables_number       1
_space_group_crystal_system       triclinic
_cell_length_a                    12.056232
_cell_length_b                    12.571739
_cell_length_c                    7.520117
_cell_angle_alpha                 90.039022
_cell_angle_beta                  107.978593
_cell_angle_gamma                 90.350163
_cell_volume                      1084.12877514

loop_
_atom_site_label
_atom_site_type_symbol
_atom_type_description
_atom_site_fract_x
_atom_site_fract_y
_atom_site_fract_z
_atom_type_partial_charge
C1    C     C_R   0.339218 0.861075 0.453428 0.571151
C2    C     C_2   0.750905 0.784717 0.568030 0.229130
C3    C     C_2   0.754641 0.213877 0.568462 0.239657
C4    C     C_2   0.238714 0.793034 0.443915 0.252192
C5    C     C_2   0.747657 0.713804 0.432294 0.230872
C6    C     C_2   0.235026 0.268876 0.574441 0.224720
C7    C     C_2   0.260851 0.707326 0.555950 0.251929
C8    C     C_2   0.748901 0.283253 0.430537 0.245152
C9    C     C_3   0.586881 0.611742 0.303855 -0.144663
C10   C     C_3   0.337726 0.265912 0.884369 -0.039711
C11   C     C_3   0.398633 0.611221 0.779788 -0.144031
C12   C     C_R   0.656597 0.143523 0.547266 0.546229
C13   C     C_3   0.658197 0.269108 0.115096 -0.079381
C14   C     C_3   0.382808 0.376263 0.352541 -0.118140
C15   C     C_3   0.912240 0.885092 0.701013 -0.129090
C16   C     C_3   0.864365 0.209461 0.878479 -0.081883
C17   C     C_3   0.104930 0.899957 0.231143 -0.129557
C18   C     C_3   0.265076 0.960894 0.937998 -0.016098
C19   C     C_3   0.727999 0.942581 0.073269 -0.021637
C20   C     C_3   0.768176 0.547259 0.932736 -0.034512
C21   C     C_3   0.222341 0.569400 0.078314 -0.031841
C22   C     C_R   0.653923 0.854587 0.546112 0.572858
C23   C     C_R   0.350541 0.149361 0.455185 0.544239
C24   C     C_R   0.845047 0.355169 0.452949 0.566318
C25   C     C_R   0.160803 0.638919 0.546567 0.567099
C26   C     C_R   0.153571 0.354204 0.547222 0.549949
C27   C     C_R   0.845352 0.644727 0.453769 0.567717
C28   C     C_2   0.282400 0.244133 0.439625 0.229934
Cu1   Cu    Cu3+1 0.517640 1.000000 0.687200 1.047306
Cu2   Cu    Cu3+1 0.482360 0.000000 0.312800 1.046009
Cu3   Cu    Cu3+1 0.017640 0.500000 0.687200 1.076018
Cu4   Cu    Cu3+1 0.982360 0.500000 0.312800 1.062561
H1    H     H_    0.636163 0.537267 0.303586 0.127165
H2    H     H_    0.732121 0.213918 0.127940 0.134209
H3    H     H_    0.666959 0.340275 0.033735 0.104980
H4    H     H_    0.578806 0.225673 0.034219 0.166123
H5    H     H_    0.462794 0.327893 0.411616 0.134951
H6    H     H_    0.376780 0.437362 0.456047 0.116252
H7    H     H_    0.394048 0.417622 0.229324 0.124317
H8    H     H_    0.938188 0.878327 0.571536 0.142400
H9    H     H_    0.993309 0.889987 0.820279 0.121268
H10   H     H_    0.863108 0.959869 0.699412 0.139685
H11   H     H_    0.833151 0.139029 0.937421 0.105144
H12   H     H_    0.504413 0.606285 0.187193 0.113643
H13   H     H_    0.813392 0.281146 0.889781 0.146350
H14   H     H_    0.955931 0.224550 0.964820 0.177490
H15   H     H_    0.129630 0.861519 0.116158 0.099785
H16   H     H_    0.150825 0.976961 0.275746 0.117073
H17   H     H_    0.010332 0.917165 0.177246 0.137327
H18   H     H_    0.244031 0.003501 0.051595 0.140210
H19   H     H_    0.285586 0.875359 0.967435 0.111774
H20   H     H_    0.185991 0.963796 0.814199 0.119339
H21   H     H_    0.763514 0.972407 0.963429 0.133933
H22   H     H_    0.690846 0.860905 0.042206 0.184395
H23   H     H_    0.563185 0.618161 0.435394 0.136164
H24   H     H_    0.802274 0.937265 0.204021 0.090774
H25   H     H_    0.690724 0.547051 0.806076 0.077745
H26   H     H_    0.797846 0.631445 0.958707 0.183579
H27   H     H_    0.739747 0.513886 0.047829 0.141969
H28   H     H_    0.290183 0.585164 0.213689 0.103792
H29   H     H_    0.178221 0.646790 0.032697 0.129332
H30   H     H_    0.266467 0.537881 0.981648 0.095783
H31   H     H_    0.293877 0.327621 0.942943 0.177771
H32   H     H_    0.409611 0.302818 0.840905 0.035098
H33   H     H_    0.377292 0.210033 0.999564 0.209073
H34   H     H_    0.353742 0.532651 0.755136 0.091605
H35   H     H_    0.376737 0.659117 0.888602 0.122955
H36   H     H_    0.493610 0.595644 0.831742 0.137848
N1    N     N_2   0.455760 1.000000 0.031460 0.086884
N2    N     N_2   0.544240 1.000000 0.968540 0.088225
N3    N     N_2   0.955760 0.500000 0.031460 0.092286
N4    N     N_2   0.044240 0.500000 0.968540 0.109528
O1    O     O_R   0.398880 0.887420 0.621600 -0.458120
O2    O     O_R   0.630920 0.112580 0.694560 -0.557551
O3    O     O_R   0.630920 0.887420 0.694560 -0.532751
O4    O     O_R   0.369080 0.112580 0.305440 -0.529644
O5    O     O_R   0.869080 0.387420 0.305440 -0.548508
O6    O     O_R   0.130920 0.612580 0.694560 -0.566219
O7    O     O_R   0.130920 0.387420 0.694560 -0.508879
O8    O     O_R   0.869080 0.612580 0.305440 -0.536296
O9    O     O_3   0.650048 0.701893 0.276476 -0.599230
O10   O     O_3   0.256594 0.209698 0.737307 -0.543049
O11   O     O_3   0.374568 0.668273 0.612279 -0.627457
O12   O     O_R   0.601120 0.112580 0.378400 -0.452854
O13   O     O_3   0.645458 0.300667 0.287949 -0.644979
O14   O     O_3   0.279608 0.313937 0.295915 -0.554177
O15   O     O_3   0.847654 0.795362 0.725468 -0.601196
O16   O     O_3   0.862718 0.188311 0.693904 -0.609213
O17   O     O_3   0.124167 0.830490 0.383253 -0.615176
O18   O     O_3   0.354805 0.013082 0.892725 -0.439120
O19   O     O_3   0.646976 0.014171 0.103373 -0.496544
O20   O     O_3   0.853497 0.483319 0.896714 -0.496924
O21   O     O_3   0.146481 0.491082 0.105075 -0.429775
O22   O     O_R   0.601120 0.887420 0.378400 -0.457595
O23   O     O_R   0.398880 0.112580 0.621600 -0.455029
O24   O     O_R   0.898880 0.387420 0.621600 -0.452008
O25   O     O_R   0.101120 0.612580 0.378400 -0.470673
O26   O     O_R   0.101120 0.387420 0.378400 -0.448567
O27   O     O_R   0.898880 0.612580 0.621600 -0.461049
O28   O     O_R   0.369080 0.887420 0.305440 -0.566140

loop_
_geom_bond_atom_site_label_1
_geom_bond_atom_site_label_2
_ccdc_geom_bond_type
C19   H24   S    
C7    O11   S    
C6    O10   S    
C12   O2    A    
C10   H31   S    
C17   H16   S    
C23   O4    A    
C18   H20   S    
C20   O20   S    
C27   O27   A    
C13   H3    S    
C24   O24   A    
Cu4   O8    S    
Cu3   O24   S    
Cu2   O28   S    
C21   H28   S    
C5    O9    S    
Cu4   O25   S    
C12   O12   A    
C8    O13   S    
C3    C12   S    
C14   H7    S    
C5    C27   S    
C6    C28   D    
N3    O20   S    
N2    O19   S    
Cu4   O26   S    
C2    C22   S    
C9    H23   S    
Cu3   O27   S    
C21   H29   S    
C11   H34   S    
C19   H21   S    
Cu4   O5    S    
C9    H1    S    
C22   O22   A    
C22   O3    A    
C4    C7    D    
C1    O28   A    
C11   H35   S    
C18   H19   S    
Cu4   N3    S    
C25   O6    A    
C18   O18   S    
C17   O17   S    
C14   O14   S    
C13   H4    S    
C3    C8    D    
C17   H17   S    
Cu1   O23   S    
Cu1   O2    S    
C11   O11   S    
Cu1   N2    S    
C10   O10   S    
Cu1   Cu2   S    
C14   H6    S    
Cu2   O4    S    
Cu3   Cu4   S    
C2    O15   S    
C23   C28   S    
C20   H27   S    
C16   H11   S    
C15   H9    S    
C21   H30   S    
C26   O26   A    
N4    O21   S    
C19   H22   S    
C25   O25   A    
Cu3   N4    S    
C27   O8    A    
C28   O14   S    
C2    C5    D    
C16   H14   S    
N1    O18   S    
Cu2   N1    S    
C11   H36   S    
C18   H18   S    
Cu3   O6    S    
C15   O15   S    
C4    O17   S    
C10   H33   S    
C9    H12   S    
C3    O16   S    
C10   H32   S    
C17   H15   S    
C15   H10   S    
C16   H13   S    
Cu3   O7    S    
Cu1   O3    S    
C26   O7    A    
C7    C25   S    
C1    C4    S    
C1    O1    A    
C13   H2    S    
Cu2   O22   S    
C14   H5    S    
C6    C26   S    
C21   O21   S    
C8    C24   S    
C23   O23   A    
Cu2   O12   S    
N1    N2    D    
C15   H8    S    
C19   O19   S    
C24   O5    A    
N3    N4    D    
Cu1   O1    S    
C13   O13   S    
C16   O16   S    
C20   H25   S    
C20   H26   S    
C9    O9    S    
