data_mof_unit_53435.cif
_audit_creation_date              2013-03-05T16:01:51-0500
_audit_creation_method            fapswitch 2.2
_symmetry_space_group_name_H-M    P1
_symmetry_Int_Tables_number       1
_space_group_crystal_system       triclinic
_cell_length_a                    20.366995
_cell_length_b                    7.337726
_cell_length_c                    13.575667
_cell_angle_alpha                 90.132449
_cell_angle_beta                  103.934607
_cell_angle_gamma                 89.99442
_cell_volume                      1969.13647817

loop_
_atom_site_label
_atom_site_type_symbol
_atom_site_description
_atom_site_fract_x
_atom_site_fract_y
_atom_site_fract_z
_atom_type_partial_charge
O1    O     O_R   0.449520 0.506760 0.599710 -0.602608
O2    O     O_R   0.550480 0.006760 0.400290 -0.597569
O3    O     O_R   0.587930 0.180200 0.595790 -0.578445
O4    O     O_R   0.412070 0.680200 0.404210 -0.581631
C1    C     C_R   0.613937 0.343999 0.617906 0.909378
C2    C     C_R   0.385936 0.843157 0.382283 0.908655
O5    O     O_R   0.452350 0.177380 0.611700 -0.575641
O6    O     O_R   0.547650 0.677380 0.388300 -0.577838
O7    O     O_R   0.413930 0.001760 0.416320 -0.553089
O8    O     O_R   0.586070 0.501760 0.583680 -0.560140
C3    C     C_R   0.436970 0.346340 0.637434 0.996573
C4    C     C_R   0.563544 0.845640 0.363195 0.994166
O9    O     O_3   0.487550 0.337460 0.435880 -0.279257
O10   O     O_3   0.512450 0.837460 0.564120 -0.285641
V1    V     V_3+5 0.502310 0.064670 0.511900 1.270976
V2    V     V_3+5 0.497690 0.564670 0.488100 1.264496
C5    C     C_R   0.602308 0.904781 0.110563 -0.064872
C6    C     C_R   0.396207 0.419934 0.888465 -0.050784
H1    H     H_    0.513939 0.920555 0.167789 0.135306
H2    H     H_    0.484262 0.446392 0.830947 0.123231
H3    H     H_    0.571706 0.921513 0.034410 0.173692
H4    H     H_    0.424444 0.457631 0.963878 0.155422
C7    C     C_R   0.602197 0.856749 0.285515 -0.232904
C8    C     C_R   0.397987 0.359962 0.714721 -0.236004
C9    C     C_R   0.924986 0.851839 0.307516 -0.167931
C10   C     C_R   0.075328 0.356655 0.692183 -0.166764
C11   C     C_R   0.891375 0.874078 0.383534 0.424389
C12   C     C_R   0.109062 0.383434 0.616679 0.424042
C13   C     C_R   0.821313 0.882609 0.359631 -0.177271
C14   C     C_R   0.179098 0.391498 0.640943 -0.176368
C15   C     C_R   0.782519 0.865801 0.258288 0.062297
C16   C     C_R   0.217638 0.365456 0.741595 0.064254
C17   C     C_R   0.817448 0.869003 0.178693 -0.117356
C18   C     C_R   0.182801 0.361179 0.821329 -0.118506
C19   C     C_R   0.710102 0.860360 0.234693 -0.053698
C20   C     C_R   0.289928 0.358005 0.764878 -0.054550
C21   C     C_R   0.673404 0.890615 0.132707 -0.082767
C22   C     C_R   0.326435 0.382198 0.867094 -0.081089
C23   C     C_R   0.707691 0.901654 0.054206 0.218505
C24   C     C_R   0.293076 0.370028 0.946312 0.218739
C25   C     C_R   0.778727 0.885970 0.076714 0.155465
C26   C     C_R   0.221917 0.357119 0.923617 0.158301
C27   C     C_R   0.672357 0.824241 0.309001 0.276646
C28   C     C_R   0.327816 0.327146 0.690284 0.277947
C29   C     C_R   0.568036 0.899237 0.186918 -0.222376
C30   C     C_R   0.430895 0.414607 0.812357 -0.216758
C31   C     C_R   0.890160 0.860696 0.205751 -0.193702
C32   C     C_R   0.110033 0.359078 0.794195 -0.198080
H5    H     H_    0.979272 0.836268 0.328374 0.172094
H6    H     H_    0.021138 0.341125 0.670805 0.174029
H7    H     H_    0.798593 0.908940 0.421919 0.176817
H8    H     H_    0.202163 0.422669 0.579617 0.175649
H9    H     H_    0.109516 0.865120 0.483557 0.185364
H10   H     H_    0.889512 0.347210 0.516139 0.184628
C33   C     C_R   0.232904 0.840572 0.036667 0.000379
C34   C     C_R   0.766158 0.409096 0.961558 -0.002915
C35   C     C_R   0.289031 0.836995 0.994828 -0.160375
C36   C     C_R   0.710162 0.440150 0.001457 -0.139731
C37   C     C_R   0.353933 0.840192 0.057615 -0.008925
C38   C     C_R   0.645840 0.451319 0.937247 0.015474
C39   C     C_R   0.363153 0.846895 0.162716 -0.005937
C40   C     C_R   0.636849 0.424505 0.833053 0.004387
C41   C     C_R   0.307256 0.849293 0.207282 0.112757
C42   C     C_R   0.692538 0.389135 0.790835 0.107602
C43   C     C_R   0.240582 0.848347 0.143201 0.197938
C44   C     C_R   0.758920 0.388304 0.855714 0.192267
C45   C     C_R   0.316843 0.843975 0.313965 -0.226573
C46   C     C_R   0.682910 0.349264 0.686236 -0.224859
C47   C     C_R   0.259817 0.827155 0.355291 0.094456
C48   C     C_R   0.739859 0.318167 0.646130 0.099132
C49   C     C_R   0.194051 0.863230 0.293890 0.019860
C50   C     C_R   0.805866 0.354302 0.706694 0.016972
C51   C     C_R   0.183448 0.861989 0.186185 -0.180450
C52   C     C_R   0.816303 0.368038 0.813926 -0.173634
C53   C     C_R   0.266851 0.775591 0.457461 -0.029590
C54   C     C_R   0.732399 0.261352 0.544518 -0.034479
C55   C     C_R   0.210941 0.772308 0.499459 -0.066943
C56   C     C_R   0.787885 0.256931 0.501598 -0.071153
C57   C     C_R   0.149554 0.841720 0.445023 -0.042877
C58   C     C_R   0.849727 0.325354 0.555312 -0.042690
C59   C     C_R   0.141861 0.897100 0.344592 0.237510
C60   C     C_R   0.857985 0.383409 0.655532 0.234239
H11   H     H_    0.183435 0.840555 0.984627 0.105330
H12   H     H_    0.815297 0.403493 0.014361 0.106145
H13   H     H_    0.282094 0.831782 0.913258 0.125577
H14   H     H_    0.716840 0.458065 0.082455 0.124629
H15   H     H_    0.397371 0.836632 0.024781 0.105577
H16   H     H_    0.602599 0.477780 0.968445 0.098644
H17   H     H_    0.414342 0.846074 0.208950 0.047701
H18   H     H_    0.585961 0.429810 0.785938 0.048355
H19   H     H_    0.315316 0.737248 0.505649 0.120311
H20   H     H_    0.683679 0.224060 0.496638 0.123407
H21   H     H_    0.217330 0.736777 0.578465 0.132041
H22   H     H_    0.780874 0.220709 0.422506 0.134425
O11   O     O_R   0.913760 0.203480 0.916370 -0.549439
O12   O     O_R   0.086240 0.703480 0.083630 -0.544890
O13   O     O_R   0.047590 0.535230 0.888250 -0.561618
O14   O     O_R   0.952410 0.035230 0.111750 -0.573017
C61   C     C_R   0.067241 0.368280 0.867393 1.024411
C62   C     C_R   0.932926 0.868765 0.132730 1.022218
O15   O     O_R   0.912020 0.532880 0.904260 -0.517950
O16   O     O_R   0.087980 0.032880 0.095740 -0.522801
O17   O     O_R   0.949590 0.708460 0.099750 -0.584598
O18   O     O_R   0.050410 0.208460 0.900250 -0.598452
C63   C     C_R   0.886106 0.366202 0.882077 0.933925
C64   C     C_R   0.113700 0.865494 0.118349 0.929631
O19   O     O_3   0.012370 0.375360 0.064120 -0.262657
O20   O     O_3   0.987630 0.875360 0.935880 -0.263622
V3    V     V_3+5 0.997700 0.648160 0.988110 1.327681
V4    V     V_3+5 0.002300 0.148160 0.011890 1.323665
Br1   Br    Br    0.074723 0.080738 0.300797 -0.453902
Br2   Br    Br    0.923847 0.571384 0.696985 -0.457896
N1    N     N_R   0.670536 0.923883 0.949938 0.248967
O21   O     O_R   0.683486 0.821478 0.878618 -0.348882
O22   O     O_R   0.628817 0.059053 0.924118 -0.443838
N2    N     N_R   0.331751 0.359412 0.050402 0.250231
O23   O     O_R   0.313566 0.450022 0.121858 -0.348239
O24   O     O_R   0.382613 0.247645 0.075390 -0.430122
N3    N     N_R   0.701978 0.726911 0.400473 0.214962
O25   O     O_R   0.694254 0.782377 0.488140 -0.412154
O26   O     O_R   0.736832 0.580437 0.395536 -0.425880
N4    N     N_R   0.297979 0.236491 0.596507 0.214630
O27   O     O_R   0.306449 0.297171 0.510376 -0.410264
O28   O     O_R   0.260418 0.094078 0.597465 -0.428326
Br3   Br    Br    0.942454 0.906391 0.520036 -0.473013
Br4   Br    Br    0.058315 0.421210 0.480513 -0.473424
N5    N     N_R   0.810645 0.896911 0.994183 0.241635
O29   O     O_R   0.800851 0.039345 0.936572 -0.394758
O30   O     O_R   0.829235 0.748127 0.957651 -0.386803
N6    N     N_R   0.190455 0.342774 0.006369 0.242047
O31   O     O_R   0.203215 0.203004 0.065800 -0.384631
O32   O     O_R   0.170627 0.490526 0.042145 -0.394238

loop_
_geom_bond_atom_site_label_1
_geom_bond_atom_site_label_2
_geom_bond_distance
_ccdc_geom_bond_type
O18   V4    2.042382 S    
C41   C43   1.425444 A    
C7    C29   1.387909 A    
C11   C13   1.386536 A    
C25   N5    1.426743 S    
O1    C3    1.333838 A    
O2    C4    1.335601 A    
C2    O7    1.328056 A    
C38   H16   1.082540 S    
C7    C27   1.407583 A    
C23   C25   1.409612 A    
O20   V3    1.805412 S    
O5    C3    1.344567 A    
C4    C7    1.462454 S    
O14   V4    2.055668 S    
C16   C20   1.430581 A    
H9    C57   1.083101 S    
C5    C29   1.382763 A    
C10   H6    1.077469 S    
C56   C58   1.387914 A    
C35   C37   1.389846 A    
C36   C38   1.390359 A    
C44   C52   1.424340 A    
C6    C30   1.385492 A    
C3    C8    1.463539 S    
C43   C51   1.425260 A    
N2    O23   1.300094 A    
C38   C40   1.395357 A    
C28   N4    1.433902 S    
C47   C49   1.422057 A    
C40   C42   1.412309 A    
O11   C63   1.354906 A    
C33   C43   1.417767 A    
C59   Br1   1.910699 S    
C12   Br4   1.909021 S    
C23   N1    1.445010 S    
C9    H5    1.079362 S    
C18   C26   1.425215 A    
C15   C17   1.429889 A    
O16   C64   1.342146 A    
C19   C27   1.433055 A    
C9    C31   1.394417 A    
C53   H19   1.082237 S    
C24   C26   1.410383 A    
C61   O18   1.329615 A    
C50   C60   1.417977 A    
O6    V2    2.055313 S    
C22   C24   1.406610 A    
C1    C46   1.485803 S    
C36   H14   1.082687 S    
O13   C61   1.339377 A    
C39   H17   1.079711 S    
C34   H12   1.082490 S    
H10   C58   1.083082 S    
C55   C57   1.387558 A    
O15   C63   1.336761 A    
C41   C45   1.414657 A    
C37   C39   1.394309 A    
C58   C60   1.395702 A    
N2    O24   1.301017 A    
C49   C51   1.425659 A    
O5    V1    2.052710 S    
C62   O17   1.330394 A    
C5    H3    1.078225 S    
C31   C62   1.470039 S    
C45   C47   1.411781 A    
C42   C44   1.424858 A    
O4    V2    2.025891 S    
N6    O32   1.290864 A    
N5    O30   1.291919 A    
C33   H11   1.082326 S    
O13   V3    2.053059 S    
O6    C4    1.341813 A    
C39   C41   1.412131 A    
C26   N6    1.425139 S    
O1    V2    2.039079 S    
C5    C21   1.410106 A    
O2    V1    2.037580 S    
C53   C55   1.391071 A    
N3    O26   1.298465 A    
C54   H20   1.081941 S    
C50   C52   1.422974 A    
C2    C45   1.487258 S    
C8    C28   1.407796 A    
O14   C62   1.336684 A    
C33   C35   1.393814 A    
C48   C54   1.412851 A    
C17   C31   1.438691 A    
O19   V4    1.802418 S    
C15   C19   1.432478 A    
C20   C28   1.430907 A    
O4    C2    1.314125 A    
C18   C32   1.438563 A    
N4    O28   1.297076 A    
N5    O29   1.293215 A    
C42   C46   1.415773 A    
O3    V1    2.023829 S    
C57   C59   1.395797 A    
N1    O21   1.300477 A    
C13   H7    1.074330 S    
C32   C61   1.472565 S    
O12   C64   1.348631 A    
C19   C21   1.424023 A    
C6    H4    1.081910 S    
C54   C56   1.390939 A    
O3    C1    1.318015 A    
O11   V4    1.993551 S    
N3    O25   1.301820 A    
H1    C29   1.080832 S    
C10   C32   1.395090 A    
C9    C11   1.378300 A    
C60   Br2   1.910959 S    
O12   V3    1.992400 S    
C10   C12   1.378939 A    
C49   C59   1.420200 A    
O17   V3    2.040825 S    
C8    C30   1.391617 A    
C12   C14   1.385734 A    
N6    O31   1.293487 A    
C6    C22   1.407595 A    
C17   C25   1.424440 A    
C1    O8    1.324165 A    
C21   C23   1.410237 A    
O8    V2    2.003640 S    
C20   C22   1.418420 A    
C14   C16   1.415746 A    
C11   Br3   1.908408 S    
C51   C64   1.495586 S    
C24   N2    1.444907 S    
C14   H8    1.074905 S    
C56   H22   1.081091 S    
C34   C44   1.416570 A    
C40   H18   1.079663 S    
C55   H21   1.081375 S    
C34   C36   1.393880 A    
C47   C53   1.412164 A    
O7    V1    2.002339 S    
C37   H15   1.082563 S    
O16   V4    2.025815 S    
C13   C15   1.417041 A    
O9    V2    1.802466 S    
C27   N3    1.435011 S    
C46   C48   1.413289 A    
O10   V1    1.805458 S    
C48   C50   1.421375 A    
N1    O22   1.298691 A    
N4    O27   1.301856 A    
O15   V3    2.023762 S    
C35   H13   1.082650 S    
H2    C30   1.080349 S    
C16   C18   1.430442 A    
C52   C63   1.497960 S    
