data_mof_unit_33034.cif
_audit_creation_date              2012-12-10T17:11:04-0500
_audit_creation_method            fapswitch 2.2
_symmetry_space_group_name_H-M    P1
_symmetry_Int_Tables_number       1
_space_group_crystal_system       triclinic
_cell_length_a                    11.671089
_cell_length_b                    13.003061
_cell_length_c                    13.445671
_cell_angle_alpha                 91.96689
_cell_angle_beta                  76.48165
_cell_angle_gamma                 99.852593
_cell_volume                      1954.68565744

loop_
_atom_site_label
_atom_site_type_symbol
_atom_type_description
_atom_site_fract_x
_atom_site_fract_y
_atom_site_fract_z
_atom_type_partial_charge
C1    C     C_R   0.520879 0.700865 0.501498 0.802229
C2    C     C_R   0.447035 0.501214 0.976142 0.079991
C3    C     C_R   0.476299 0.533016 0.872060 0.091186
C4    C     C_R   0.535215 0.526520 0.034600 0.075976
C5    C     C_R   0.646630 0.589466 0.990749 0.167815
C6    C     C_R   0.667772 0.629353 0.892137 -0.241619
C7    C     C_R   0.583003 0.603227 0.834441 -0.202358
C8    C     C_R   0.516285 0.491386 0.135535 -0.239055
C9    C     C_R   0.711714 0.581513 0.148473 -0.188789
C10   C     C_R   0.397166 0.494780 0.808498 -0.105485
C11   C     C_R   0.467149 0.185724 0.497563 -0.056529
C12   C     C_R   0.436538 0.499265 0.696120 0.785984
C13   C     C_R   0.532950 0.814282 0.502324 -0.051836
C14   C     C_R   0.652503 0.984741 0.509630 -0.203522
C15   C     C_R   0.641590 0.876631 0.509213 -0.198279
C16   C     C_R   0.435121 0.860747 0.496039 -0.262219
C17   C     C_R   0.445318 0.968772 0.496451 0.172885
C18   C     C_R   0.554872 0.031245 0.503273 0.173425
C19   C     C_R   0.565049 0.139274 0.503711 -0.253997
C20   C     C_R   0.358522 0.123363 0.490670 -0.193311
C21   C     C_R   0.347672 0.015265 0.490126 -0.210565
C22   C     C_R   0.947528 0.599971 0.590902 -0.325985
C23   C     C_R   0.479136 0.299138 0.498495 0.815118
C24   C     C_R   0.828605 0.590664 0.582567 0.100525
C25   C     C_R   0.855641 0.455621 0.460897 0.028743
C26   C     C_R   0.977013 0.462344 0.465807 0.010417
C27   C     C_R   0.022738 0.535717 0.532473 0.054138
C28   C     C_R   0.143081 0.543401 0.538881 0.016594
C29   C     C_R   0.173447 0.410026 0.415820 0.036852
C30   C     C_R   0.054251 0.398846 0.406609 -0.129480
C31   C     C_R   0.563805 0.505723 0.304186 0.803893
C32   C     C_R   0.734650 0.614490 0.047222 -0.190285
C33   C     C_R   0.600988 0.522372 0.193560 -0.049252
C34   C     C_R   0.282839 0.440407 0.852291 -0.190325
C35   C     C_R   0.249205 0.418525 0.956310 -0.141018
C36   C     C_R   0.330473 0.446282 0.017504 -0.176287
Cu1   Cu    Cu3+1 0.386470 0.492430 0.492410 0.938532
Cu2   Cu    Cu3+1 0.613530 0.507570 0.507590 0.941457
H1    H     H_    0.777939 0.606457 0.192756 0.156023
H2    H     H_    0.281946 0.157993 0.485759 0.158906
H3    H     H_    0.736961 0.031834 0.514910 0.141182
H4    H     H_    0.263225 0.968169 0.484826 0.136844
H5    H     H_    0.718121 0.841984 0.514214 0.156056
H6    H     H_    0.350885 0.813097 0.490793 0.152683
H7    H     H_    0.178810 0.599159 0.590197 0.121497
H8    H     H_    0.232858 0.361530 0.370730 0.127725
H9    H     H_    0.980514 0.657411 0.642278 0.131736
H10   H     H_    0.772031 0.641580 0.626685 0.110457
H11   H     H_    0.750110 0.681432 0.859465 0.137811
H12   H     H_    0.817796 0.400302 0.410475 0.136097
H13   H     H_    0.819762 0.662463 0.014048 0.135319
H14   H     H_    0.435033 0.441377 0.172352 0.139715
H15   H     H_    0.220309 0.411743 0.805462 0.158310
H16   H     H_    0.298050 0.425187 0.097105 0.131614
H17   H     H_    0.160600 0.376597 0.989297 0.152310
H18   H     H_    0.600916 0.640921 0.760838 0.151434
H19   H     H_    0.649299 0.186934 0.508914 0.156718
N1    N     N_R   0.215880 0.481050 0.481000 -0.185404
N2    N     N_R   0.784100 0.518950 0.519000 -0.182247
O1    O     O_R   0.419710 0.645650 0.494620 -0.586603
O2    O     O_R   0.611450 0.658430 0.507430 -0.598903
O3    O     O_R   0.357340 0.490460 0.641450 -0.582639
O4    O     O_R   0.549080 0.503250 0.654260 -0.578466
O5    O     O_R   0.388550 0.341570 0.492570 -0.591970
O6    O     O_R   0.580290 0.354350 0.505380 -0.585914
O7    O     O_R   0.450920 0.496750 0.345740 -0.583407
O8    O     O_R   0.642660 0.509540 0.358550 -0.585064
C37   C     C_1   0.014394 0.322270 0.336252 0.174053
N3    N     N_1   0.982487 0.260906 0.279848 -0.291434

loop_
_geom_bond_atom_site_label_1
_geom_bond_atom_site_label_2
_ccdc_geom_bond_type
Cu1   O3    S    
C31   O7    A    
C2    C4    A    
C31   C33   S    
C32   H13   S    
C26   C30   A    
C29   C30   A    
C25   H12   S    
C28   N1    A    
C12   O3    A    
C14   C18   A    
Cu1   N1    S    
C35   C36   A    
Cu2   O6    S    
C29   H8    S    
C4    C8    A    
Cu2   O2    S    
Cu1   O7    S    
C23   O6    A    
C13   C15   A    
C17   C18   A    
Cu2   O8    S    
C15   H5    S    
C10   C34   A    
C3    C10   A    
C30   C37   S    
C19   H19   S    
C31   O8    A    
C11   C19   A    
C26   C27   A    
C6    C7    A    
C10   C12   S    
C7    H18   S    
C9    C33   A    
C14   H3    S    
C11   C23   S    
C23   O5    A    
C25   C26   A    
Cu1   Cu2   S    
Cu2   O4    S    
C3    C7    A    
C22   C27   A    
C24   N2    A    
C6    H11   S    
C5    C6    A    
C20   H2    S    
C22   C24   A    
C28   H7    S    
C13   C16   A    
Cu1   O1    S    
C36   H16   S    
C35   H17   S    
Cu2   N2    S    
C24   H10   S    
C5    C32   A    
C9    H1    S    
Cu1   O5    S    
C1    C13   S    
C29   N1    A    
C34   H15   S    
C34   C35   A    
C1    O1    A    
C2    C36   A    
C27   C28   A    
C12   O4    A    
C18   C19   A    
C8    H14   S    
C14   C15   A    
C4    C5    A    
C2    C3    A    
C25   N2    A    
C9    C32   A    
C20   C21   A    
C37   N3    T    
C11   C20   A    
C16   H6    S    
C22   H9    S    
C17   C21   A    
C21   H4    S    
C16   C17   A    
C8    C33   A    
C1    O2    A    
