data_mof_unit_39319.cif
_audit_creation_date              2012-12-10T16:48:46-0500
_audit_creation_method            fapswitch 2.2
_symmetry_space_group_name_H-M    P1
_symmetry_Int_Tables_number       1
_space_group_crystal_system       triclinic
_cell_length_a                    8.135644
_cell_length_b                    8.815695
_cell_length_c                    10.818317
_cell_angle_alpha                 90.65626
_cell_angle_beta                  99.48885
_cell_angle_gamma                 92.961616
_cell_volume                      764.108963735

loop_
_atom_site_label
_atom_site_type_symbol
_atom_type_description
_atom_site_fract_x
_atom_site_fract_y
_atom_site_fract_z
_atom_type_partial_charge
C1    C     C_R   0.541960 0.792029 0.496907 0.880669
C2    C     C_2   0.437449 0.046116 0.501381 -0.057862
C3    C     C_R   0.458050 0.207974 0.503127 0.884787
C4    C     C_R   0.571674 0.494310 0.734181 0.837373
C5    C     C_R   0.428873 0.508184 0.265972 0.836822
C6    C     C_2   0.612304 0.478880 0.868744 0.024223
C7    C     C_2   0.391021 0.533412 0.132236 0.025826
C8    C     C_2   0.504660 0.539403 0.936717 -0.156150
C9    C     C_2   0.505775 0.490269 0.065351 -0.159662
C10   C     C_2   0.562563 0.953883 0.498682 -0.056675
H1    H     H_    0.606819 0.422844 0.109065 0.207274
H2    H     H_    0.407053 0.612343 0.892538 0.202150
I1    I     I_    0.179837 0.658311 0.062451 -0.216579
I2    I     I_    0.814867 0.342134 0.939387 -0.217725
I3    I     I_    0.806043 0.025065 0.508562 -0.163160
I4    I     I_    0.193965 0.974919 0.491560 -0.163862
I5    I     I_    0.980971 0.336720 0.310891 -0.086285
I6    I     I_    0.019089 0.663160 0.689198 -0.087639
N1    N     N_2   0.940600 0.458860 0.467170 0.027973
N2    N     N_2   0.059400 0.541140 0.532830 0.028029
O1    O     O_R   0.391630 0.738350 0.508060 -0.594310
O2    O     O_R   0.608370 0.261650 0.491940 -0.592800
O3    O     O_R   0.674540 0.711990 0.487010 -0.582381
O4    O     O_R   0.325460 0.288010 0.512990 -0.581589
O5    O     O_R   0.411370 0.508250 0.688780 -0.616379
O6    O     O_R   0.588630 0.491750 0.311220 -0.620647
O7    O     O_R   0.694270 0.481880 0.667740 -0.577894
O8    O     O_R   0.305730 0.518120 0.332260 -0.577245
Zn1   Zn    Zn3+2 0.311100 0.517600 0.514050 1.077148
Zn2   Zn    Zn3+2 0.688900 0.482400 0.485950 1.076570

loop_
_geom_bond_atom_site_label_1
_geom_bond_atom_site_label_2
_ccdc_geom_bond_type
C5    C7    S    
C1    O1    A    
C6    I2    S    
C5    O8    A    
C2    I4    S    
N1    N2    D    
C8    H2    S    
C10   I3    S    
C2    C3    S    
O7    Zn2   S    
C9    H1    S    
C3    O4    A    
O8    Zn1   S    
I5    N1    S    
C1    O3    A    
I6    N2    S    
N2    Zn1   S    
O5    Zn1   S    
C5    O6    A    
C2    C10   D    
O3    Zn2   S    
C4    O5    A    
C7    I1    S    
C4    O7    A    
C4    C6    S    
C7    C9    D    
O4    Zn1   S    
C3    O2    A    
C6    C8    D    
O2    Zn2   S    
N1    Zn2   S    
O1    Zn1   S    
C1    C10   S    
C8    C9    S    
O6    Zn2   S    
