data_mof_unit_47914.cif
_audit_creation_date              2012-12-10T19:04:14-0500
_audit_creation_method            fapswitch 2.2
_symmetry_space_group_name_H-M    P1
_symmetry_Int_Tables_number       1
_space_group_crystal_system       triclinic
_cell_length_a                    10.62425
_cell_length_b                    10.825804
_cell_length_c                    9.561399
_cell_angle_alpha                 89.753607
_cell_angle_beta                  89.567397
_cell_angle_gamma                 90.620679
_cell_volume                      1099.60789766

loop_
_atom_site_label
_atom_site_type_symbol
_atom_type_description
_atom_site_fract_x
_atom_site_fract_y
_atom_site_fract_z
_atom_type_partial_charge
C1    C     C_R   0.500964 0.262608 0.500316 0.834021
C2    C     C_3   0.958267 0.603665 0.556260 -0.161311
C3    C     C_3   0.043362 0.594487 0.424874 -0.145741
C4    C     C_3   0.122425 0.498627 0.501768 -0.010791
C5    C     C_R   0.477569 0.063283 0.622758 0.053842
C6    C     C_R   0.508522 0.129714 0.501677 -0.049409
C7    C     C_R   0.551000 0.065986 0.383250 -0.205308
C8    C     C_R   0.549634 0.937355 0.382920 -0.153023
C9    C     C_R   0.506654 0.871276 0.500990 -0.069243
C10   C     C_R   0.477432 0.935976 0.622818 0.033137
C11   C     C_3   0.361993 0.928276 0.713227 -0.463996
C12   C     C_R   0.259332 0.499495 0.500549 0.821298
C13   C     C_3   0.362872 0.068661 0.714350 0.222736
C14   C     C_R   0.592462 0.562146 0.072334 0.220505
C15   C     C_R   0.416941 0.429243 0.075417 -0.073577
C16   C     C_R   0.417115 0.429040 0.926656 -0.068062
C17   C     C_R   0.591209 0.562464 0.924751 0.194811
C18   C     C_3   0.617730 0.696925 0.914221 -0.517611
C19   C     C_3   0.619164 0.698715 0.072806 0.238521
C20   C     C_R   0.499937 0.737699 0.499918 0.828150
C21   C     C_R   0.740675 0.498503 0.499623 0.834219
C22   C     C_3   0.041932 0.392211 0.444883 -0.161260
C23   C     C_3   0.960630 0.488015 0.367853 -0.089791
C24   C     C_3   0.877653 0.497405 0.499122 -0.009253
C25   C     C_3   0.956613 0.401388 0.576106 -0.140629
C26   C     C_3   0.039529 0.507721 0.633260 -0.110152
Cu1   Cu    Cu3+1 0.499990 0.499980 0.640670 0.966058
Cu2   Cu    Cu3+1 0.500010 0.500020 0.359330 0.984997
H1    H     H_    0.925810 0.477711 0.259482 0.197542
H2    H     H_    0.380888 0.888148 0.817874 0.164298
H3    H     H_    0.383089 0.108839 0.818707 0.114724
H4    H     H_    0.348074 0.373741 0.131928 0.154074
H5    H     H_    0.348426 0.373336 0.871785 0.161693
H6    H     H_    0.709782 0.716167 0.862010 0.239006
H7    H     H_    0.537817 0.748985 0.870595 0.180413
H8    H     H_    0.540868 0.752943 0.117961 0.080173
H9    H     H_    0.079409 0.305788 0.399338 0.180852
H10   H     H_    0.918025 0.322323 0.637744 0.164738
H11   H     H_    0.074461 0.515813 0.742019 0.163222
H12   H     H_    0.920802 0.690122 0.601770 0.154355
H13   H     H_    0.081726 0.673526 0.363013 0.161176
H14   H     H_    0.581273 0.115076 0.289712 0.171584
H15   H     H_    0.578957 0.890576 0.289284 0.199393
H16   H     H_    0.280548 0.885737 0.658208 0.226232
N1    N     N_R   0.500800 0.500930 0.147930 -0.220152
N2    N     N_R   0.500800 0.500890 0.852020 -0.187046
O1    O     O_R   0.500000 0.319640 0.618810 -0.578855
O2    O     O_R   0.500010 0.319680 0.381230 -0.593118
O3    O     O_R   0.316850 0.499950 0.618770 -0.579386
O4    O     O_R   0.316860 0.499990 0.381190 -0.590199
O5    O     O_R   0.499990 0.680320 0.618770 -0.586583
O6    O     O_R   0.500000 0.680360 0.381190 -0.571888
O7    O     O_R   0.683140 0.500010 0.618810 -0.588539
O8    O     O_R   0.683150 0.500050 0.381230 -0.538144
Cl1   Cl    Cl    0.228850 0.133054 0.629568 -0.655826
S1    S     S_3+6 0.771898 0.739831 0.137730 -0.021146
O9    O     O_2   0.868670 0.651439 0.083560 -0.314877
O10   O     O_2   0.804579 0.868097 0.087570 -0.295681
O11   O     O_3   0.771361 0.737859 0.313352 -0.557294
H17   H     H_    0.846234 0.787194 0.340516 0.362123

loop_
_geom_bond_atom_site_label_1
_geom_bond_atom_site_label_2
_ccdc_geom_bond_type
C19   S1    S    
C12   O4    A    
C23   C24   S    
C8    H15   S    
C1    O2    A    
C6    C7    A    
C16   H5    S    
C4    C12   S    
C4    C22   S    
C18   H7    S    
C9    C20   S    
C4    C26   S    
S1    O11   S    
Cu1   O7    S    
C12   O3    A    
C11   H16   S    
C2    C26   S    
C17   N2    A    
C21   O7    A    
Cu2   O6    S    
C14   C17   A    
C21   O8    A    
C26   H11   S    
Cu2   O4    S    
Cu1   O3    S    
C23   H1    S    
Cu1   N2    S    
C5    C10   A    
S1    O10   D    
Cu1   O5    S    
C17   C18   S    
C20   O5    A    
C2    C3    S    
C19   H8    S    
C18   H6    S    
C2    C24   S    
C5    C6    A    
C25   H10   S    
Cu2   N1    S    
C21   C24   S    
C11   C13   S    
C7    C8    A    
C10   C11   S    
C15   N1    A    
Cu1   O1    S    
C15   C16   A    
C2    H12   S    
O11   H17   S    
C24   C25   S    
C20   O6    A    
C18   C19   S    
C9    C10   A    
C7    H14   S    
C16   N2    A    
Cu1   Cu2   S    
S1    O9    D    
C3    C23   S    
Cu2   O8    S    
C22   C23   S    
Cu2   O2    S    
C1    C6    S    
C14   N1    A    
C25   C26   S    
C22   H9    S    
C5    C13   S    
C14   C19   S    
C13   H3    S    
C3    H13   S    
C3    C4    S    
C11   H2    S    
C1    O1    A    
C8    C9    A    
C13   Cl1   S    
C22   C25   S    
C15   H4    S    
