data_mof_unit_21300.cif
_audit_creation_date              2012-12-11T14:10:44-0500
_audit_creation_method            fapswitch 2.2
_symmetry_space_group_name_H-M    P1
_symmetry_Int_Tables_number       1
_space_group_crystal_system       triclinic
_cell_length_a                    19.809438
_cell_length_b                    17.280055
_cell_length_c                    15.544007
_cell_angle_alpha                 89.975147
_cell_angle_beta                  52.20189
_cell_angle_gamma                 89.988906
_cell_volume                      4204.39612324

loop_
_atom_site_label
_atom_site_type_symbol
_atom_type_description
_atom_site_fract_x
_atom_site_fract_y
_atom_site_fract_z
_atom_type_partial_charge
C1    C     C_R   0.345457 0.181469 0.035529 0.485776
C2    C     C_R   0.633157 0.805880 0.996166 0.496128
C3    C     C_R   0.653567 0.182550 0.966742 0.457714
C4    C     C_R   0.367083 0.805783 0.003525 0.491549
C5    C     C_R   0.845453 0.681467 0.035536 0.485827
C6    C     C_R   0.133159 0.305881 0.996162 0.496070
C7    C     C_R   0.153569 0.682548 0.966733 0.457452
C8    C     C_R   0.867087 0.305784 0.003521 0.491705
C9    C     C_3   0.244725 0.243681 0.555786 -0.219070
C10   C     C_3   0.662503 0.708688 0.473787 -0.163131
C11   C     C_3   0.755483 0.242732 0.444464 -0.219630
C12   C     C_3   0.338220 0.708783 0.526147 -0.161378
C13   C     C_3   0.744722 0.743646 0.555799 -0.219033
C14   C     C_3   0.162494 0.208655 0.473812 -0.163159
C15   C     C_3   0.255535 0.742476 0.444341 -0.219318
C16   C     C_3   0.838294 0.208545 0.525954 -0.161735
C17   C     C_2   0.289542 0.685935 0.948917 -0.139590
C18   C     C_2   0.813230 0.255236 0.901281 -0.035404
C19   C     C_2   0.710580 0.685875 0.050873 -0.127487
C20   C     C_2   0.187504 0.255400 0.097860 -0.054199
C21   C     C_2   0.789519 0.185944 0.948961 -0.139507
C22   C     C_2   0.313247 0.755233 0.901255 -0.035446
C23   C     C_2   0.210584 0.185878 0.050866 -0.127523
C24   C     C_2   0.687501 0.755398 0.097865 -0.054267
C25   C     C_R   0.400768 0.801560 0.209772 0.744136
C26   C     C_R   0.645278 0.177367 0.774146 0.678583
C27   C     C_R   0.598960 0.801531 0.790435 0.742978
C28   C     C_R   0.355632 0.178139 0.225756 0.686078
C29   C     C_R   0.900804 0.301551 0.209744 0.744167
C30   C     C_R   0.145301 0.677347 0.774150 0.678746
C31   C     C_R   0.098951 0.301528 0.790441 0.742939
C32   C     C_R   0.855629 0.678137 0.225755 0.686072
C33   C     C_R   0.369176 0.887536 0.893888 0.798313
C34   C     C_R   0.671463 0.086890 0.045017 0.666651
C35   C     C_R   0.631155 0.887586 0.105740 0.785023
C36   C     C_R   0.328584 0.086763 0.954847 0.672254
C37   C     C_R   0.869178 0.387535 0.893886 0.798373
C38   C     C_R   0.171469 0.586887 0.045003 0.666631
C39   C     C_R   0.131156 0.387586 0.105738 0.785161
C40   C     C_R   0.828581 0.586761 0.954853 0.672259
C41   C     C_R   0.361963 0.083259 0.318727 -0.223004
C42   C     C_R   0.596054 0.894119 0.693676 -0.228990
C43   C     C_R   0.638544 0.082758 0.681370 -0.226737
C44   C     C_R   0.403638 0.894144 0.306527 -0.227545
C45   C     C_R   0.861956 0.583252 0.318725 -0.223015
C46   C     C_R   0.096044 0.394115 0.693682 -0.229031
C47   C     C_R   0.138581 0.582725 0.681379 -0.226757
C48   C     C_R   0.903687 0.394126 0.306496 -0.227556
C49   C     C_R   0.288561 0.150611 0.020983 -0.296996
C50   C     C_R   0.653575 0.813285 0.066180 -0.342809
C51   C     C_R   0.711132 0.151153 0.979505 -0.252605
C52   C     C_R   0.346939 0.813154 0.933214 -0.337043
C53   C     C_R   0.788557 0.650606 0.020993 -0.297064
C54   C     C_R   0.153578 0.313286 0.066176 -0.342800
C55   C     C_R   0.211140 0.651152 0.979487 -0.252501
C56   C     C_R   0.846938 0.313155 0.933217 -0.337146
C57   C     C_R   0.388312 0.817634 0.304780 -0.167661
C58   C     C_R   0.684636 0.145501 0.672456 -0.154364
C59   C     C_R   0.611157 0.817582 0.695580 -0.167326
C60   C     C_R   0.316398 0.146453 0.327542 -0.160478
C61   C     C_R   0.888403 0.317607 0.304720 -0.167605
C62   C     C_R   0.184689 0.645453 0.672469 -0.154417
C63   C     C_R   0.111139 0.317577 0.695591 -0.167289
C64   C     C_R   0.816390 0.646445 0.327540 -0.160477
C65   C     C_3   0.224580 0.161086 0.540846 -0.144301
C66   C     C_3   0.682436 0.791656 0.489676 -0.095475
C67   C     C_3   0.776385 0.160332 0.459038 -0.144791
C68   C     C_3   0.317345 0.791452 0.510559 -0.093751
C69   C     C_3   0.724547 0.661065 0.540852 -0.144262
C70   C     C_3   0.182396 0.291640 0.489693 -0.095509
C71   C     C_3   0.276639 0.660187 0.458991 -0.144587
C72   C     C_3   0.817624 0.291330 0.510440 -0.093884
C73   C     C_3   0.632353 0.685488 0.589114 -0.109403
C74   C     C_3   0.273789 0.267558 0.442791 -0.086689
C75   C     C_3   0.368575 0.685572 0.410744 -0.108766
C76   C     C_3   0.726412 0.266539 0.557453 -0.087855
C77   C     C_3   0.132372 0.185469 0.589131 -0.109382
C78   C     C_3   0.773812 0.767535 0.442796 -0.086711
C79   C     C_3   0.868433 0.185437 0.410616 -0.108558
C80   C     C_3   0.226250 0.766384 0.557393 -0.088082
C81   C     C_3   0.653696 0.767508 0.602385 0.202363
C82   C     C_3   0.253425 0.185518 0.428192 0.214345
C83   C     C_3   0.346285 0.767293 0.397788 0.202150
C84   C     C_3   0.747521 0.184677 0.571715 0.214069
C85   C     C_3   0.153684 0.267504 0.602394 0.202366
C86   C     C_3   0.753420 0.685511 0.428189 0.214312
C87   C     C_3   0.846349 0.267274 0.397735 0.202171
C88   C     C_3   0.247560 0.684636 0.571731 0.213916
H1    H     H_    0.351850 0.048263 0.383276 0.144623
H2    H     H_    0.591801 0.923564 0.635780 0.164861
H3    H     H_    0.648664 0.047769 0.616849 0.145107
H4    H     H_    0.407906 0.923531 0.364415 0.164464
H5    H     H_    0.851840 0.548252 0.383274 0.144635
H6    H     H_    0.091790 0.423559 0.635787 0.164868
H7    H     H_    0.148711 0.547733 0.616853 0.145121
H8    H     H_    0.907948 0.423514 0.364390 0.164483
H9    H     H_    0.572794 0.653806 0.651835 0.145665
H10   H     H_    0.332973 0.300458 0.381849 0.144859
H11   H     H_    0.428476 0.654397 0.347873 0.146612
H12   H     H_    0.666991 0.299068 0.618580 0.142297
H13   H     H_    0.072830 0.153770 0.651860 0.145682
H14   H     H_    0.833013 0.800419 0.381863 0.144832
H15   H     H_    0.928210 0.154142 0.347669 0.146732
H16   H     H_    0.166704 0.798789 0.618453 0.142046
H17   H     H_    0.242697 0.107028 0.560683 0.128815
H18   H     H_    0.664281 0.845612 0.469689 0.141170
H19   H     H_    0.758692 0.106076 0.439079 0.129314
H20   H     H_    0.334859 0.845704 0.530759 0.140719
H21   H     H_    0.742632 0.606991 0.560697 0.128820
H22   H     H_    0.164208 0.345580 0.469718 0.141171
H23   H     H_    0.259173 0.605811 0.438974 0.129295
H24   H     H_    0.835378 0.345467 0.530555 0.140785
H25   H     H_    0.278130 0.259573 0.590162 0.120276
H26   H     H_    0.630939 0.692862 0.436963 0.131598
H27   H     H_    0.721817 0.258297 0.410321 0.120434
H28   H     H_    0.370027 0.693466 0.562825 0.131611
H29   H     H_    0.778123 0.759513 0.590187 0.120279
H30   H     H_    0.130926 0.192802 0.437002 0.131591
H31   H     H_    0.221906 0.757850 0.410091 0.120424
H32   H     H_    0.870151 0.193022 0.562507 0.131517
H33   H     H_    0.318334 0.660060 0.982595 0.230055
H34   H     H_    0.793617 0.275531 0.853673 0.234071
H35   H     H_    0.681684 0.660120 0.017288 0.232318
H36   H     H_    0.207716 0.275839 0.144733 0.233275
H37   H     H_    0.818299 0.160078 0.982661 0.230114
H38   H     H_    0.293633 0.775533 0.853649 0.234054
H39   H     H_    0.181689 0.160123 0.017281 0.232306
H40   H     H_    0.707715 0.775838 0.144736 0.233274
N1    N     N_R   0.408680 0.130810 0.995780 -0.165656
N2    N     N_R   0.591320 0.869190 0.004220 -0.152849
N3    N     N_R   0.591320 0.130810 0.004220 -0.177101
N4    N     N_R   0.408680 0.869190 0.995780 -0.153267
N5    N     N_R   0.908680 0.630810 0.995780 -0.165639
N6    N     N_R   0.091320 0.369190 0.004220 -0.152851
N7    N     N_R   0.091320 0.630810 0.004220 -0.177110
N8    N     N_R   0.908680 0.369190 0.995780 -0.153289
N9    N     N_R   0.421410 0.867210 0.153620 -0.122542
N10   N     N_R   0.578590 0.132790 0.846380 -0.131972
N11   N     N_R   0.578590 0.867210 0.846380 -0.122788
N12   N     N_R   0.421410 0.132790 0.153620 -0.134190
N13   N     N_R   0.921410 0.367210 0.153620 -0.122554
N14   N     N_R   0.078590 0.632790 0.846380 -0.131972
N15   N     N_R   0.078590 0.367210 0.846380 -0.122786
N16   N     N_R   0.921410 0.632790 0.153620 -0.134195
N17   N     N_R   0.403840 0.921910 0.935760 -0.157536
N18   N     N_R   0.596160 0.078090 0.064240 -0.137248
N19   N     N_R   0.596160 0.921910 0.064240 -0.155343
N20   N     N_R   0.403840 0.078090 0.935760 -0.140165
N21   N     N_R   0.903840 0.421910 0.935760 -0.157554
N22   N     N_R   0.096160 0.578090 0.064240 -0.137222
N23   N     N_R   0.096160 0.421910 0.064240 -0.155341
N24   N     N_R   0.903840 0.578090 0.935760 -0.140165
N25   N     N_R   0.426250 0.076100 0.213650 -0.067452
N26   N     N_R   0.573750 0.923900 0.786350 -0.081720
N27   N     N_R   0.573750 0.076100 0.786350 -0.067184
N28   N     N_R   0.426250 0.923900 0.213650 -0.081462
N29   N     N_R   0.926250 0.576100 0.213650 -0.067449
N30   N     N_R   0.073750 0.423900 0.786350 -0.081719
N31   N     N_R   0.073750 0.576100 0.786350 -0.067180
N32   N     N_R   0.926250 0.423900 0.213650 -0.081486
Ni1   Ni    Ni4+2 0.500000 0.131570 0.000000 0.186942
Ni2   Ni    Ni4+2 0.500000 0.868430 0.000000 0.314040
Ni3   Ni    Ni4+2 1.000000 0.631570 0.000000 0.186951
Ni4   Ni    Ni4+2 1.000000 0.368430 0.000000 0.314026
Ni5   Ni    Ni4+2 0.488900 1.000000 0.862310 0.235911
Ni6   Ni    Ni4+2 0.511100 0.000000 0.137690 0.237296
Ni7   Ni    Ni4+2 0.988900 0.500000 0.862310 0.235902
Ni8   Ni    Ni4+2 0.011100 0.500000 0.137690 0.237269
O1    O     O_3   0.355963 0.259749 0.042091 -0.560721
C89   C     C_3   0.410427 0.291083 0.935983 0.229029
H41   H     H_    0.390154 0.274127 0.885690 0.064686
H42   H     H_    0.477328 0.271735 0.894492 0.118263
C90   C     C_3   0.407483 0.378897 0.943538 -0.746712
H43   H     H_    0.427104 0.398387 0.993286 0.266644
H44   H     H_    0.451558 0.404282 0.860758 0.190238
H45   H     H_    0.341581 0.399649 0.981865 0.267217
O2    O     O_3   0.648535 0.743421 0.931451 -0.543449
C91   C     C_3   0.734320 0.748239 0.835769 0.246593
H46   H     H_    0.780003 0.757100 0.854195 0.069428
H47   H     H_    0.741999 0.797030 0.783677 0.049786
C92   C     C_3   0.759233 0.673251 0.771397 -0.736569
H48   H     H_    0.718750 0.663330 0.745610 0.274563
H49   H     H_    0.827039 0.676274 0.697713 0.180516
H50   H     H_    0.751303 0.623616 0.822026 0.297693
O3    O     O_3   0.645563 0.261436 0.958088 -0.584468
C93   C     C_3   0.560026 0.285809 0.034618 0.368544
H51   H     H_    0.533360 0.266499 0.118421 0.055687
H52   H     H_    0.519961 0.263220 0.012572 0.142749
C94   C     C_3   0.556879 0.373693 0.034539 -0.763709
H53   H     H_    0.580657 0.394928 0.952901 0.273911
H54   H     H_    0.490069 0.393650 0.095907 0.216903
H55   H     H_    0.597244 0.398071 0.055160 0.246305
O4    O     O_3   0.351584 0.743304 0.068335 -0.543428
C95   C     C_3   0.265710 0.748061 0.163851 0.243108
H56   H     H_    0.220113 0.756976 0.145227 0.083008
H57   H     H_    0.257920 0.796793 0.216041 0.050799
C96   C     C_3   0.240720 0.673016 0.228222 -0.736179
H58   H     H_    0.281142 0.663016 0.254096 0.274844
H59   H     H_    0.172896 0.676023 0.301856 0.181593
H60   H     H_    0.248671 0.623427 0.177563 0.297414
O5    O     O_3   0.855967 0.759749 0.042080 -0.560705
C97   C     C_3   0.910348 0.791095 0.935971 0.228959
H61   H     H_    0.890066 0.774073 0.885710 0.064678
H62   H     H_    0.977286 0.771831 0.894420 0.118328
C98   C     C_3   0.907281 0.878907 0.943537 -0.746937
H63   H     H_    0.926873 0.898468 0.993288 0.266727
H64   H     H_    0.951321 0.904305 0.860755 0.190239
H65   H     H_    0.841342 0.899571 0.981892 0.267198
O6    O     O_3   0.148533 0.243421 0.931450 -0.543448
C99   C     C_3   0.234316 0.248238 0.835764 0.246624
H66   H     H_    0.280003 0.257095 0.854185 0.069444
H67   H     H_    0.241993 0.297031 0.783676 0.049780
C100  C     C_3   0.259224 0.173252 0.771389 -0.736563
H68   H     H_    0.218739 0.163338 0.745602 0.274554
H69   H     H_    0.327030 0.176273 0.697704 0.180522
H70   H     H_    0.251291 0.123614 0.822015 0.297688
O7    O     O_3   0.145588 0.761429 0.958010 -0.584502
C101  C     C_3   0.060051 0.785821 0.034478 0.368489
H71   H     H_    0.033422 0.766697 0.118338 0.055750
H72   H     H_    0.019955 0.763079 0.012561 0.142644
C102  C     C_3   0.056885 0.873693 0.034072 -0.763208
H73   H     H_    0.080481 0.894715 0.952417 0.273747
H74   H     H_    0.990097 0.893671 0.095544 0.216835
H75   H     H_    0.097409 0.898246 0.054341 0.246577
O8    O     O_3   0.851519 0.243335 0.068409 -0.543461
C103  C     C_3   0.765650 0.248180 0.163916 0.243084
H76   H     H_    0.720064 0.257090 0.145272 0.083063
H77   H     H_    0.757909 0.296950 0.216029 0.050808
C104  C     C_3   0.740588 0.173189 0.228410 -0.736443
H78   H     H_    0.781021 0.163188 0.254268 0.274847
H79   H     H_    0.672776 0.176277 0.302061 0.181566
H80   H     H_    0.748457 0.123566 0.177844 0.297407
F1    F     F_    0.420434 0.730239 0.164341 -0.650869
F2    F     F_    0.657742 0.250594 0.791984 -0.700823
F3    F     F_    0.579213 0.730239 0.836046 -0.651153
F4    F     F_    0.344321 0.251680 0.207360 -0.692864
F5    F     F_    0.920460 0.230236 0.164293 -0.650842
F6    F     F_    0.157730 0.750599 0.791946 -0.700798
F7    F     F_    0.079199 0.230240 0.836059 -0.651169
F8    F     F_    0.844322 0.751681 0.207363 -0.692851
F9    F     F_    0.376928 0.914482 0.806283 -0.642761
F10   F     F_    0.701192 0.042045 0.086514 -0.679318
F11   F     F_    0.623607 0.914449 0.193211 -0.643113
F12   F     F_    0.299437 0.042396 0.912267 -0.672718
F13   F     F_    0.876927 0.414481 0.806283 -0.642753
F14   F     F_    0.201212 0.542026 0.086469 -0.679401
F15   F     F_    0.123608 0.414448 0.193210 -0.643147
F16   F     F_    0.799433 0.542391 0.912275 -0.672697

loop_
_geom_bond_atom_site_label_1
_geom_bond_atom_site_label_2
_ccdc_geom_bond_type
N10   N27   A    
C68   C80   S    
C95   H57   S    
C72   H24   S    
C35   F11   S    
C39   N23   A    
N25   Ni6   S    
C78   H14   S    
C18   C21   D    
O5    C97   S    
C33   F9    S    
C16   C72   S    
C7    C55   A    
N14   N31   A    
C72   C76   S    
C79   H15   S    
C8    C56   A    
C47   C62   A    
C79   C87   S    
C91   H46   S    
O3    C93   S    
C74   H10   S    
C6    O6    S    
C47   N31   A    
C98   H63   S    
C33   C52   A    
C5    N5    A    
C8    N8    A    
C12   C68   S    
C19   H35   S    
C34   C51   A    
C104  H78   S    
C10   C66   S    
C97   H62   S    
C80   H16   S    
C3    N3    A    
N4    N17   A    
C22   C52   S    
C42   N26   A    
C66   H18   S    
N2    Ni2   S    
C102  H75   S    
C1    N1    A    
C11   C76   S    
C16   H32   S    
C99   H66   S    
C5    O5    S    
N9    Ni2   S    
C10   C73   S    
C29   F5    S    
C91   H47   S    
C23   C49   S    
C39   C54   A    
C34   F10   S    
C89   H41   S    
N3    Ni1   S    
N23   Ni8   S    
C46   N30   A    
C13   C81   S    
C16   C84   S    
C37   F13   S    
C40   N24   A    
N3    N18   A    
C96   H59   S    
O1    C89   S    
C14   C77   S    
C73   C81   S    
C94   H54   S    
C103  C104  S    
N1    N20   A    
C70   H22   S    
C43   C58   A    
C9    C85   S    
C48   H8    S    
C37   C56   A    
C69   H21   S    
C36   N20   A    
C38   C55   A    
C94   H55   S    
N6    Ni4   S    
C14   H30   S    
C97   C98   S    
C28   N12   A    
C26   F2    S    
C70   C74   S    
C15   H31   S    
C57   C83   S    
N26   Ni5   S    
C69   C73   S    
C2    O2    S    
N28   Ni6   S    
C11   H27   S    
C17   C55   S    
C44   H4    S    
C18   C56   S    
N12   N25   A    
C104  H80   S    
C19   C53   S    
C90   H44   S    
C95   H56   S    
N18   Ni6   S    
N22   Ni8   S    
C67   C84   S    
O4    C95   S    
C63   C85   S    
C20   H36   S    
N20   Ni5   S    
C14   C70   S    
C20   C54   S    
C76   C84   S    
C94   H53   S    
N5    N24   A    
C25   C57   A    
C6    C54   A    
C43   N27   A    
C3    O3    S    
N29   Ni8   S    
C65   H17   S    
C40   F16   S    
C11   C67   S    
N30   Ni7   S    
N8    N21   A    
C41   N25   A    
C98   H64   S    
C24   C50   S    
C4    O4    S    
C66   C78   S    
C29   C61   A    
C64   C86   S    
C65   C77   S    
C97   H61   S    
C12   C88   S    
C36   F12   S    
C75   C83   S    
C31   C63   A    
C67   C79   S    
C32   C64   A    
C4    N4    A    
C1    C49   A    
C92   H49   S    
C11   C87   S    
N14   Ni3   S    
C3    C51   A    
C15   C83   S    
C95   C96   S    
C32   F8    S    
N11   N26   A    
N12   Ni1   S    
C90   H43   S    
C62   C88   S    
C43   H3    S    
N9    N28   A    
C71   H23   S    
C42   H2    S    
C44   N28   A    
C92   H48   S    
C96   H60   S    
C25   N9    A    
C7    N7    A    
C102  H73   S    
N19   Ni6   S    
C58   C84   S    
C48   N32   A    
N13   N32   A    
C101  H72   S    
C15   C80   S    
C46   H6    S    
C20   C23   D    
C100  H68   S    
C44   C57   A    
C29   N13   A    
C35   C50   A    
C75   H11   S    
O6    C99   S    
N1    Ni1   S    
C103  H76   S    
C35   N19   A    
C26   C58   A    
C28   C60   A    
C60   C82   S    
C18   H34   S    
C39   F15   S    
N17   Ni5   S    
C17   H33   S    
N16   N29   A    
C28   F4    S    
C45   H5    S    
C73   H9    S    
C103  H77   S    
C30   C62   A    
N16   Ni3   S    
C65   C82   S    
C45   N29   A    
C27   N11   A    
C61   C87   S    
C14   C82   S    
C21   H37   S    
C99   C100  S    
N15   Ni4   S    
C21   C51   S    
C72   C87   S    
N21   Ni7   S    
N15   N30   A    
C23   H39   S    
N8    Ni4   S    
C98   H65   S    
C5    C53   A    
C101  C102  S    
C31   F7    S    
C13   C78   S    
C10   C86   S    
C92   H50   S    
O8    C103  S    
C41   H1    S    
C68   C83   S    
N7    Ni3   S    
N11   Ni2   S    
N5    Ni3   S    
C41   C60   A    
C37   N21   A    
C26   N10   A    
C10   H26   S    
C42   C59   A    
C13   H29   S    
C8    O8    S    
C40   C53   A    
C100  H70   S    
C27   F3    S    
C76   H12   S    
N7    N22   A    
C15   C71   S    
C45   C64   A    
C99   H67   S    
C17   C22   D    
C30   N14   A    
C46   C63   A    
C102  H74   S    
C16   C79   S    
C9    H25   S    
C13   C69   S    
C93   C94   S    
C19   C24   D    
O7    C101  S    
C100  H69   S    
C25   F1    S    
C104  H79   S    
C27   C59   A    
C66   C81   S    
C71   C75   S    
C34   N18   A    
N4    Ni2   S    
C67   H19   S    
C101  H71   S    
C89   H42   S    
N27   Ni5   S    
N6    N23   A    
C89   C90   S    
C1    O1    S    
C90   H45   S    
C2    N2    A    
N31   Ni7   S    
C77   H13   S    
N2    N19   A    
N10   Ni1   S    
C4    C52   A    
N32   Ni8   S    
C31   N15   A    
C96   H58   S    
C9    C65   S    
C32   N16   A    
C91   C92   S    
C22   H38   S    
O2    C91   S    
C77   C85   S    
C71   C88   S    
C7    O7    S    
C69   C86   S    
C2    C50   A    
C6    N6    A    
N24   Ni7   S    
N13   Ni4   S    
C80   C88   S    
C78   C86   S    
C9    C74   S    
C12   C75   S    
C48   C61   A    
C59   C81   S    
C24   H40   S    
C47   H7    S    
C68   H20   S    
C93   H51   S    
C70   C85   S    
C93   H52   S    
C38   N22   A    
C74   C82   S    
C36   C49   A    
C33   N17   A    
C12   H28   S    
C30   F6    S    
C38   F14   S    
