data_mof_unit_61838.cif
_audit_creation_date              2012-10-26T20:08:39-0400
_audit_creation_method            fapswitch 2.2
_symmetry_space_group_name_H-M    P1
_symmetry_Int_Tables_number       1
_space_group_crystal_system       triclinic
_cell_length_a                    15.998521
_cell_length_b                    14.43271
_cell_length_c                    13.145273
_cell_angle_alpha                 89.999882
_cell_angle_beta                  90.014454
_cell_angle_gamma                 90.000011
_cell_volume                      3035.26991398

loop_
_atom_site_label
_atom_site_type_symbol
_atom_type_description
_atom_site_fract_x
_atom_site_fract_y
_atom_site_fract_z
_atom_type_partial_charge
C1    C     C_R   0.500000 0.328703 0.500000 0.551559
C2    C     C_1   0.500000 0.500023 0.949319 -0.052043
C3    C     C_R   0.338180 0.500323 0.499984 0.559824
C4    C     C_R   0.661820 0.500323 0.500016 0.559831
C5    C     C_R   0.500000 0.671301 0.500000 0.551469
C6    C     C_3   0.049624 0.449580 0.600164 -0.078310
C7    C     C_3   0.048378 0.437989 0.407106 -0.080264
C8    C     C_3   0.951622 0.438837 0.593556 -0.080268
C9    C     C_3   0.950376 0.448671 0.400380 -0.078312
C10   C     C_1   0.750676 0.499113 0.500088 -0.051798
C11   C     C_1   0.249324 0.499112 0.499914 -0.051794
C12   C     C_1   0.500000 0.142312 0.500000 -0.045863
C13   C     C_3   0.082636 0.495858 0.499635 0.081059
C14   C     C_3   0.917363 0.495861 0.500397 0.081059
C15   C     C_3   0.952021 0.596282 0.506329 -0.208559
C16   C     C_3   0.047979 0.596220 0.492601 -0.208557
C17   C     C_1   0.825595 0.497727 0.500276 -0.074027
C18   C     C_1   0.174405 0.497724 0.499737 -0.074019
C19   C     C_1   0.500000 0.227123 0.500000 -0.049762
C20   C     C_3   0.095275 0.455331 0.305804 -0.407921
C21   C     C_3   0.081179 0.499748 0.697230 -0.403360
C22   C     C_3   0.918820 0.497953 0.302770 -0.403371
C23   C     C_1   0.500000 0.042407 0.500000 -0.004095
C24   C     C_3   0.904725 0.457100 0.694662 -0.407930
C25   C     C_1   0.500000 0.957597 0.500000 -0.004045
C26   C     C_1   0.500000 0.857693 0.500000 -0.045667
C27   C     C_1   0.500000 0.772881 0.500000 -0.049449
C28   C     C_1   0.500000 0.500023 0.173627 0.117251
C29   C     C_1   0.500000 0.500023 0.826372 0.117248
C30   C     C_1   0.500000 0.500023 0.050681 -0.052042
Cu1   Cu    Cu3+1 0.500000 0.499990 0.592680 0.973345
Cu2   Cu    Cu3+1 0.500000 0.499990 0.407320 0.973351
H1    H     H_    0.939009 0.364393 0.576957 0.106264
H2    H     H_    0.069367 0.410609 0.244802 0.125562
H3    H     H_    0.091600 0.528887 0.281949 0.138882
H4    H     H_    0.149996 0.508912 0.695564 0.140580
H5    H     H_    0.051853 0.568881 0.706181 0.136662
H6    H     H_    0.067518 0.457654 0.765845 0.124860
H7    H     H_    0.932476 0.455234 0.234621 0.124856
H8    H     H_    0.850004 0.507135 0.304339 0.140589
H9    H     H_    0.948148 0.566998 0.293057 0.136661
H10   H     H_    0.837817 0.437815 0.687738 0.140745
H11   H     H_    0.930632 0.412933 0.756151 0.125552
H12   H     H_    0.923452 0.377505 0.396936 0.110682
H13   H     H_    0.908403 0.530869 0.717710 0.138878
H14   H     H_    0.076548 0.378448 0.604391 0.110691
H15   H     H_    0.060991 0.363699 0.424521 0.106258
H16   H     H_    0.077139 0.641704 0.550922 0.112091
H17   H     H_    0.064020 0.627163 0.417720 0.115793
H18   H     H_    0.935980 0.627905 0.580865 0.115784
H19   H     H_    0.922860 0.641233 0.447510 0.112103
H20   H     H_    0.162184 0.436107 0.312938 0.140706
N1    N     N_1   0.500000 0.500020 0.268070 -0.167364
N2    N     N_1   0.500000 0.500020 0.731930 -0.167365
O1    O     O_R   0.500000 0.376050 0.578280 -0.472122
O2    O     O_R   0.500000 0.376050 0.421720 -0.472129
O3    O     O_R   0.379430 0.500000 0.578300 -0.483851
O4    O     O_R   0.379430 0.500000 0.421700 -0.483901
O5    O     O_R   0.620570 0.500000 0.578300 -0.483913
O6    O     O_R   0.620570 0.500000 0.421700 -0.483850
O7    O     O_R   0.500000 0.623940 0.578240 -0.472125
O8    O     O_R   0.500000 0.623940 0.421760 -0.472119

loop_
_geom_bond_atom_site_label_1
_geom_bond_atom_site_label_2
_ccdc_geom_bond_type
C6    C8    S    
C9    C14   S    
C11   C18   T    
C15   H19   S    
C24   H10   S    
Cu1   O7    S    
Cu1   Cu2   S    
C12   C23   S    
Cu2   O4    S    
C28   N1    T    
C22   H8    S    
C16   H16   S    
C13   C16   S    
C28   C30   S    
C1    O1    A    
Cu2   O8    S    
C20   H20   S    
C21   H4    S    
C6    C13   S    
C5    O7    A    
C6    C21   S    
C14   C17   S    
C4    O6    A    
C26   C27   T    
C13   C18   S    
C2    C29   S    
C24   H13   S    
C3    O3    A    
C12   C19   T    
C8    C24   S    
C1    O2    A    
C5    O8    A    
C8    H1    S    
C23   C25   T    
Cu1   N2    S    
C9    C22   S    
C1    C19   S    
C22   H9    S    
C3    C11   S    
C2    C30   T    
C22   H7    S    
C10   C17   T    
C4    C10   S    
C20   H2    S    
C3    O4    A    
Cu2   N1    S    
C7    C13   S    
C21   H5    S    
C16   H17   S    
C4    O5    A    
C7    C20   S    
C29   N2    T    
C15   H18   S    
Cu1   O5    S    
C7    C9    S    
C24   H11   S    
Cu2   O6    S    
C14   C15   S    
C21   H6    S    
C9    H12   S    
C8    C14   S    
C6    H14   S    
Cu1   O1    S    
C25   C26   S    
C5    C27   S    
C20   H3    S    
Cu2   O2    S    
Cu1   O3    S    
C15   C16   S    
C7    H15   S    
