data_mof_unit_10303.cif
_audit_creation_date              2012-10-26T21:15:17-0400
_audit_creation_method            fapswitch 2.2
_symmetry_space_group_name_H-M    P1
_symmetry_Int_Tables_number       1
_space_group_crystal_system       triclinic
_cell_length_a                    10.62152
_cell_length_b                    10.879085
_cell_length_c                    9.671222
_cell_angle_alpha                 89.937031
_cell_angle_beta                  89.617381
_cell_angle_gamma                 90.021309
_cell_volume                      1117.50742246

loop_
_atom_site_label
_atom_site_type_symbol
_atom_type_description
_atom_site_fract_x
_atom_site_fract_y
_atom_site_fract_z
_atom_type_partial_charge
C1    C     C_R   0.507440 0.265024 0.500114 0.558997
C2    C     C_2   0.454305 0.410733 0.077898 -0.032287
C3    C     C_R   0.259408 0.499439 0.500371 0.544328
C4    C     C_R   0.495238 0.734746 0.500080 0.535311
C5    C     C_R   0.740593 0.502732 0.499544 0.608624
C6    C     C_3   0.039693 0.456166 0.623036 -0.119209
C7    C     C_3   0.958348 0.389230 0.515243 0.218470
C8    C     C_3   0.877345 0.504057 0.498492 0.086325
C9    C     C_3   0.959956 0.572919 0.602630 0.215159
C10   C     C_3   0.045119 0.620310 0.483309 -0.169432
C11   C     C_3   0.984705 0.183184 0.577231 0.026265
C12   C     C_3   0.961980 0.548697 0.379971 0.232053
C13   C     C_3   0.082605 0.143244 0.468546 -0.274304
C14   C     C_3   0.139408 0.018303 0.503411 -0.494428
C15   C     C_3   0.611657 0.109334 0.719137 0.003586
C16   C     C_3   0.676349 0.011664 0.806233 -0.396478
C17   C     C_3   0.261846 0.283870 0.930661 -0.012570
C18   C     C_3   0.297186 0.152374 0.973018 -0.278296
C19   C     C_3   0.206716 0.102195 0.082575 -0.491532
C20   C     C_3   0.982021 0.734004 0.761071 0.008820
C21   C     C_3   0.090424 0.685006 0.849751 -0.269212
C22   C     C_3   0.160826 0.789745 0.920151 -0.489231
C23   C     C_3   0.042289 0.431636 0.393817 -0.088846
C24   C     C_3   0.925171 0.711363 0.226415 0.004506
C25   C     C_3   0.826220 0.785756 0.306976 -0.268928
C26   C     C_3   0.830937 0.921337 0.266933 -0.480826
C27   C     C_3   0.122960 0.501344 0.500916 -0.078410
C28   C     C_2   0.482958 0.934273 0.387134 -0.151196
C29   C     C_2   0.480833 0.866543 0.502498 -0.086628
C30   C     C_2   0.471996 0.067913 0.396046 -0.134463
C31   C     C_2   0.526253 0.131875 0.498572 0.257485
C32   C     C_2   0.435482 0.419832 0.921225 0.358301
Cu1   Cu    Cu3+1 0.500030 0.500020 0.638630 1.003294
Cu2   Cu    Cu3+1 0.499970 0.499980 0.361370 0.942747
H1    H     H_    0.564915 0.552171 0.895051 0.178851
H2    H     H_    0.926763 0.102083 0.606387 0.170573
H3    H     H_    0.031311 0.213720 0.673825 0.104759
H4    H     H_    0.037512 0.137865 0.365452 0.174717
H5    H     H_    0.159919 0.211913 0.463335 0.143560
H6    H     H_    0.187293 0.021719 0.605134 0.141762
H7    H     H_    0.209045 0.992403 0.422586 0.149059
H8    H     H_    0.064747 0.946972 0.505969 0.136261
H9    H     H_    0.512298 0.116783 0.756070 0.142464
H10   H     H_    0.662131 0.197659 0.735282 0.189834
H11   H     H_    0.776415 0.002174 0.774065 0.145241
H12   H     H_    0.425022 0.328049 0.131151 0.140999
H13   H     H_    0.672526 0.038216 0.917039 0.093989
H14   H     H_    0.628365 0.921704 0.793570 0.159357
H15   H     H_    0.176928 0.277540 0.865014 0.134932
H16   H     H_    0.232223 0.341442 0.020373 0.115001
H17   H     H_    0.294477 0.091911 0.880463 0.147741
H18   H     H_    0.394496 0.149400 0.014068 0.150965
H19   H     H_    0.208848 0.160990 0.176343 0.139882
H20   H     H_    0.235502 0.007718 0.112210 0.142550
H21   H     H_    0.109249 0.099180 0.041758 0.145453
H22   H     H_    0.922591 0.794805 0.826688 0.144666
H23   H     H_    0.517019 0.581259 0.105433 0.196378
H24   H     H_    0.017693 0.792982 0.675752 0.111947
H25   H     H_    0.052612 0.621395 0.929883 0.185145
H26   H     H_    0.158332 0.633869 0.783941 0.181886
H27   H     H_    0.200988 0.853438 0.841519 0.143319
H28   H     H_    0.238922 0.751700 0.982834 0.151542
H29   H     H_    0.096335 0.841573 0.989617 0.131869
H30   H     H_    0.909356 0.726881 0.114343 0.156153
H31   H     H_    0.022406 0.744394 0.246893 0.119733
H32   H     H_    0.730967 0.749197 0.284194 0.199158
H33   H     H_    0.842578 0.777554 0.419885 0.165554
H34   H     H_    0.074610 0.421691 0.723508 0.113993
H35   H     H_    0.927006 0.958488 0.282923 0.146770
H36   H     H_    0.763652 0.974151 0.332065 0.205576
H37   H     H_    0.804870 0.933145 0.156662 0.135002
H38   H     H_    0.088717 0.712364 0.470898 0.083545
H39   H     H_    0.079406 0.375322 0.306987 0.115285
H40   H     H_    0.487660 0.891955 0.285562 0.130631
H41   H     H_    0.465133 0.908879 0.602762 0.132298
H42   H     H_    0.415360 0.113561 0.318161 0.090232
N1    N     N_2   0.498620 0.498660 0.846910 -0.320976
N2    N     N_2   0.498590 0.498630 0.153040 -0.366090
O1    O     O_R   0.500020 0.321960 0.617040 -0.470289
O2    O     O_3   0.618959 0.075275 0.578470 -0.571131
O3    O     O_3   0.359248 0.337004 0.849682 -0.531175
O4    O     O_3   0.903476 0.638469 0.713090 -0.557010
O5    O     O_3   0.911994 0.583952 0.250477 -0.549690
O6    O     O_R   0.499980 0.321920 0.382900 -0.522895
O7    O     O_R   0.316870 0.499990 0.617050 -0.470821
O8    O     O_R   0.316830 0.499950 0.382910 -0.502200
O9    O     O_R   0.500020 0.678080 0.617100 -0.506418
O10   O     O_R   0.499980 0.678040 0.382960 -0.517849
O11   O     O_R   0.683170 0.500050 0.617090 -0.471753
O12   O     O_R   0.683130 0.500010 0.382950 -0.460982
O13   O     O_3   0.900766 0.272323 0.524698 -0.557352

loop_
_geom_bond_atom_site_label_1
_geom_bond_atom_site_label_2
_ccdc_geom_bond_type
C10   C27   S    
C20   O4    S    
C3    O7    A    
C25   H33   S    
C20   H22   S    
C28   H40   S    
C16   H14   S    
C6    C9    S    
C18   H18   S    
C31   O2    S    
C4    O9    A    
C2    H12   S    
C1    O6    A    
C32   O3    S    
C12   C23   S    
C28   C29   D    
C24   O5    S    
C15   H10   S    
C21   H25   S    
C30   C31   D    
C7    C23   S    
C15   C16   S    
C1    C31   S    
C2    C32   S    
C18   C19   S    
Cu2   O8    S    
C11   H3    S    
Cu1   O7    S    
C22   H29   S    
C15   O2    S    
C8    C9    S    
C23   C27   S    
C9    C10   S    
C4    C29   S    
C9    O4    S    
C14   H8    S    
C19   H19   S    
C6    H34   S    
C32   N1    D    
C24   H30   S    
C13   C14   S    
C3    O8    A    
C26   H37   S    
Cu2   O6    S    
C23   H39   S    
C16   H13   S    
C18   H17   S    
Cu1   Cu2   S    
C7    C8    S    
C24   C25   S    
C21   H26   S    
C17   H15   S    
Cu1   O1    S    
C25   C26   S    
H1    N1    S    
C12   O5    S    
C16   H11   S    
Cu2   O12   S    
C2    N2    D    
Cu1   O11   S    
C22   H28   S    
C30   H42   S    
C6    C27   S    
C8    C12   S    
C7    O13   S    
C17   C18   S    
Cu2   O10   S    
C13   H4    S    
C10   C12   S    
C24   H31   S    
C14   H7    S    
C29   H41   S    
C19   H20   S    
C1    O1    A    
C20   H24   S    
C19   H21   S    
C11   H2    S    
H23   N2    S    
C25   H32   S    
C5    O12   A    
C17   H16   S    
C5    C8    S    
C6    C7    S    
C4    O10   A    
C28   C30   S    
Cu1   O9    S    
C15   H9    S    
Cu2   N2    S    
C22   H27   S    
C11   C13   S    
Cu1   N1    S    
C26   H36   S    
C3    C27   S    
C17   O3    S    
C13   H5    S    
C14   H6    S    
C11   O13   S    
C20   C21   S    
C26   H35   S    
C21   C22   S    
C5    O11   A    
C10   H38   S    
