data_mof_unit_18522.cif
_audit_creation_date              2012-12-11T16:44:22-0500
_audit_creation_method            fapswitch 2.2
_symmetry_space_group_name_H-M    P1
_symmetry_Int_Tables_number       1
_space_group_crystal_system       triclinic
_cell_length_a                    27.134969
_cell_length_b                    7.221971
_cell_length_c                    22.752286
_cell_angle_alpha                 89.995571
_cell_angle_beta                  101.193985
_cell_angle_gamma                 89.993253
_cell_volume                      4373.89428353

loop_
_atom_site_label
_atom_site_type_symbol
_atom_type_description
_atom_site_fract_x
_atom_site_fract_y
_atom_site_fract_z
_atom_type_partial_charge
O1    O     O_R   0.707300 0.594030 0.176840 -0.539163
O2    O     O_R   0.292700 0.405970 0.823160 -0.539160
O3    O     O_R   0.792700 0.094030 0.323160 -0.539176
O4    O     O_R   0.207300 0.905970 0.676840 -0.539177
O5    O     O_R   0.697330 0.262360 0.295660 -0.521579
O6    O     O_R   0.302670 0.737640 0.704340 -0.521588
O7    O     O_R   0.802670 0.762360 0.204340 -0.521676
O8    O     O_R   0.197330 0.237640 0.795660 -0.521680
C1    C     C_R   0.685004 0.432237 0.311533 0.765485
C2    C     C_R   0.314996 0.567763 0.688467 0.765489
C3    C     C_R   0.814996 0.932230 0.188466 0.765538
C4    C     C_R   0.185004 0.067770 0.811534 0.765531
O9    O     O_R   0.701410 0.264250 0.175600 -0.532063
O10   O     O_R   0.298590 0.735750 0.824400 -0.532066
O11   O     O_R   0.798590 0.764250 0.324400 -0.532129
O12   O     O_R   0.201410 0.235750 0.675600 -0.532129
O13   O     O_R   0.796800 0.094950 0.202240 -0.537854
O14   O     O_R   0.203200 0.905050 0.797760 -0.537853
O15   O     O_R   0.703200 0.594950 0.297760 -0.537893
O16   O     O_R   0.296800 0.405050 0.702240 -0.537889
C5    C     C_R   0.689854 0.432428 0.153473 0.711882
C6    C     C_R   0.310145 0.567571 0.846527 0.711888
C7    C     C_R   0.810147 0.932396 0.346529 0.711982
C8    C     C_R   0.189853 0.067603 0.653471 0.711983
O17   O     O_3   0.781290 0.427390 0.258880 -0.374540
O18   O     O_3   0.218710 0.572610 0.741120 -0.374541
O19   O     O_3   0.718710 0.927390 0.241120 -0.374471
O20   O     O_3   0.281290 0.072610 0.758880 -0.374472
V1    V     V_3+5 0.744190 0.152150 0.248350 1.513747
V2    V     V_3+5 0.255810 0.847850 0.751650 1.513732
V3    V     V_3+5 0.755810 0.652150 0.251650 1.513555
V4    V     V_3+5 0.244190 0.347850 0.748350 1.513556
C9    C     C_R   0.154919 0.063517 0.595066 -0.053415
C10   C     C_R   0.845080 0.936483 0.404934 -0.053417
C11   C     C_R   0.345074 0.563316 0.904929 -0.053314
C12   C     C_R   0.654925 0.436682 0.095071 -0.053312
C13   C     C_R   0.138608 0.137585 0.489448 -0.123964
C14   C     C_R   0.861391 0.862416 0.510552 -0.123962
C15   C     C_R   0.361273 0.635618 0.010657 -0.123892
C16   C     C_R   0.638726 0.364360 0.989344 -0.123893
C17   C     C_R   0.171707 0.125459 0.544275 -0.157290
C18   C     C_R   0.828293 0.874540 0.455725 -0.157287
C19   C     C_R   0.328208 0.624063 0.955793 -0.157511
C20   C     C_R   0.671791 0.375917 0.044208 -0.157508
C21   C     C_R   0.104157 0.014302 0.590682 -0.172919
C22   C     C_R   0.895842 0.985701 0.409319 -0.172923
C23   C     C_R   0.395877 0.514754 0.909272 -0.173081
C24   C     C_R   0.604123 0.485256 0.090728 -0.173070
C25   C     C_R   0.069107 0.029968 0.535360 0.080179
C26   C     C_R   0.930892 0.970036 0.464641 0.080178
C27   C     C_R   0.430888 0.529827 0.964636 0.080171
C28   C     C_R   0.569112 0.470174 0.035365 0.080172
C29   C     C_R   0.087691 0.092060 0.484600 0.113622
C30   C     C_R   0.912308 0.907944 0.515401 0.113619
C31   C     C_R   0.412227 0.590670 0.015474 0.113632
C32   C     C_R   0.587772 0.409319 0.984527 0.113630
C33   C     C_R   0.016422 0.989206 0.528671 0.049167
C34   C     C_R   0.983577 0.010799 0.471330 0.049168
C35   C     C_R   0.483601 0.489588 0.971301 0.049180
C36   C     C_R   0.516398 0.510414 0.028700 0.049183
C37   C     C_R   0.004562 0.071514 0.422593 -0.142819
C38   C     C_R   0.995437 0.928492 0.577408 -0.142814
C39   C     C_R   0.495337 0.569860 0.077515 -0.142991
C40   C     C_R   0.504662 0.430136 0.922486 -0.142989
C41   C     C_R   0.055405 0.110889 0.429255 -0.160815
C42   C     C_R   0.944594 0.889116 0.570746 -0.160815
C43   C     C_R   0.444468 0.608767 0.070873 -0.160836
C44   C     C_R   0.555531 0.391220 0.929128 -0.160833
H1    H     H_    0.069604 0.158014 0.390446 0.155158
H2    H     H_    0.930394 0.841990 0.609555 0.155160
H3    H     H_    0.430209 0.654903 0.109745 0.155188
H4    H     H_    0.569789 0.345075 0.890257 0.155190
H5    H     H_    0.906757 0.030593 0.368570 0.149645
H6    H     H_    0.093242 0.969411 0.631432 0.149652
H7    H     H_    0.593157 0.529318 0.131528 0.149715
H8    H     H_    0.406844 0.470708 0.868471 0.149743
H9    H     H_    0.789431 0.834045 0.452770 0.128732
H10   H     H_    0.210568 0.165953 0.547229 0.128733
H11   H     H_    0.710690 0.335973 0.047127 0.128791
H12   H     H_    0.289308 0.663996 0.952874 0.128790
H13   H     H_    0.152749 0.185923 0.450758 0.146587
H14   H     H_    0.847250 0.814078 0.549242 0.146588
H15   H     H_    0.347071 0.682987 0.049410 0.146634
H16   H     H_    0.652927 0.316977 0.950592 0.146633
H17   H     H_    0.982627 0.090862 0.378256 0.167652
H18   H     H_    0.017371 0.909145 0.621746 0.167659
H19   H     H_    0.517231 0.588525 0.121903 0.167846
H20   H     H_    0.482768 0.411465 0.878098 0.167862
C45   C     C_R   0.838038 0.984000 0.089260 -0.265029
C46   C     C_R   0.161965 0.015994 0.910743 -0.265006
C47   C     C_R   0.661942 0.484523 0.410691 -0.264863
C48   C     C_R   0.338054 0.515522 0.589304 -0.264868
H21   H     H_    0.798573 0.005986 0.070657 0.157562
H22   H     H_    0.201432 0.994003 0.929350 0.157561
H23   H     H_    0.701390 0.506871 0.429260 0.157494
H24   H     H_    0.298603 0.493219 0.570732 0.157492
C49   C     C_R   0.873205 0.995079 0.051627 0.440967
C50   C     C_R   0.126796 0.004913 0.948376 0.440945
C51   C     C_R   0.626780 0.495584 0.448331 0.440933
C52   C     C_R   0.373217 0.504446 0.551667 0.440949
C53   C     C_R   0.924824 0.967362 0.075131 -0.003864
C54   C     C_R   0.075175 0.032639 0.924867 -0.003864
C55   C     C_R   0.575180 0.467412 0.424869 -0.003808
C56   C     C_R   0.424820 0.532561 0.575133 -0.003820
C57   C     C_R   0.939842 0.927571 0.136565 -0.113046
C58   C     C_R   0.060155 0.072439 0.863431 -0.113030
C59   C     C_R   0.560181 0.427189 0.363472 -0.113056
C60   C     C_R   0.439821 0.572740 0.636533 -0.113044
H25   H     H_    0.979312 0.908515 0.155643 0.201085
H26   H     H_    0.020683 0.091504 0.844350 0.201088
H27   H     H_    0.520724 0.407823 0.344417 0.201139
H28   H     H_    0.479281 0.592063 0.655591 0.201129
C61   C     C_R   0.904466 0.912715 0.173853 0.378589
C62   C     C_R   0.095531 0.087292 0.826141 0.378563
C63   C     C_R   0.595559 0.412276 0.326189 0.378612
C64   C     C_R   0.404444 0.587664 0.673815 0.378613
C65   C     C_R   0.853159 0.941847 0.150270 -0.169141
C66   C     C_R   0.146840 0.058154 0.849729 -0.169153
C67   C     C_R   0.646842 0.441875 0.349728 -0.169114
C68   C     C_R   0.353156 0.558123 0.650271 -0.169117
C69   C     C_R   0.995918 0.833489 0.030579 0.433445
C70   C     C_R   0.004081 0.166510 0.969418 0.433440
C71   C     C_R   0.504119 0.333452 0.469457 0.433354
C72   C     C_R   0.495880 0.666518 0.530546 0.433366
C73   C     C_R   0.031825 0.852261 0.994150 -0.106172
C74   C     C_R   0.968174 0.147738 0.005847 -0.106170
C75   C     C_R   0.468209 0.352200 0.505883 -0.106067
C76   C     C_R   0.531789 0.647772 0.494119 -0.106062
H29   H     H_    0.056072 0.736205 0.989519 0.223605
H30   H     H_    0.943927 0.263794 0.010478 0.223608
H31   H     H_    0.443991 0.236106 0.510539 0.223811
H32   H     H_    0.556006 0.763867 0.489463 0.223823
C77   C     C_R   0.036584 0.018096 0.963385 -0.045333
C78   C     C_R   0.963414 0.981904 0.036612 -0.045326
C79   C     C_R   0.463410 0.518054 0.536612 -0.045404
C80   C     C_R   0.536589 0.481916 0.463390 -0.045400
Cl1   Cl    Cl    0.991831 0.619598 0.066490 -0.574898
Cl2   Cl    Cl    0.008166 0.380398 0.933504 -0.574901
Cl3   Cl    Cl    0.508251 0.119522 0.433593 -0.575042
Cl4   Cl    Cl    0.491750 0.880442 0.566414 -0.575025
Cl5   Cl    Cl    0.850756 0.036553 0.974807 -0.562250
Cl6   Cl    Cl    0.149246 0.963419 0.025198 -0.562243
Cl7   Cl    Cl    0.649224 0.537575 0.525111 -0.562335
Cl8   Cl    Cl    0.350773 0.462492 0.474884 -0.562330
Cl9   Cl    Cl    0.925712 0.861820 0.250247 -0.660894
Cl10  Cl    Cl    0.074282 0.138183 0.749741 -0.660887
Cl11  Cl    Cl    0.574335 0.360768 0.249851 -0.661018
Cl12  Cl    Cl    0.425671 0.639113 0.750159 -0.661046

loop_
_geom_bond_atom_site_label_1
_geom_bond_atom_site_label_2
_ccdc_geom_bond_type
O17   V3    S    
C51   C55   A    
O1    C5    A    
C56   C79   S    
C71   Cl3   S    
O19   V1    S    
C9    C21   A    
C16   H16   S    
O3    C7    A    
C10   C18   A    
O1    V3    S    
O15   V3    S    
C25   C33   A    
C33   C38   A    
C5    C12   S    
C53   C78   S    
C47   C67   A    
O7    C3    A    
C6    C11   S    
C38   H18   S    
C35   C40   A    
C26   C30   A    
C58   C62   A    
C36   C39   A    
C46   C66   A    
C57   C61   A    
C75   C79   A    
C23   H8    S    
C14   C18   A    
C76   C80   A    
C58   H26   S    
O4    C8    A    
C25   C29   A    
C74   H30   S    
C61   Cl9   S    
C63   Cl11  S    
C48   H24   S    
O13   V1    S    
C31   C43   A    
O2    V4    S    
C69   Cl1   S    
O3    V1    S    
C28   C36   A    
C49   Cl5   S    
C1    O15   A    
C52   C56   A    
C15   C31   A    
C2    O16   A    
C16   C32   A    
O2    C6    A    
C54   C58   A    
C10   C22   A    
C69   C78   A    
C11   C19   A    
C16   C20   A    
C27   C31   A    
C44   H4    S    
C72   C76   A    
C13   C29   A    
C34   C37   A    
O11   C7    A    
C11   C23   A    
C35   C36   A    
O12   C8    A    
C14   H14   S    
C45   H21   S    
C24   H7    S    
C13   H13   S    
O10   V2    S    
C76   H32   S    
C46   H22   S    
O5    V1    S    
C53   C57   A    
C39   C43   A    
O7    V3    S    
C38   C42   A    
O8    V4    S    
C70   Cl2   S    
C52   Cl8   S    
C17   H10   S    
C64   Cl12  S    
O18   V4    S    
C23   C27   A    
C19   H12   S    
C50   C54   A    
O4    V2    S    
C64   C68   A    
C45   C49   A    
C21   H6    S    
C26   C34   A    
C70   C74   A    
C55   C80   S    
C70   C77   A    
C69   C73   A    
C37   C41   A    
C49   C53   A    
C71   C75   A    
C14   C30   A    
C21   C25   A    
O8    C4    A    
C7    C10   S    
C59   C63   A    
O9    C5    A    
C62   Cl10  S    
C62   C66   A    
C37   H17   S    
C61   C65   A    
O6    V2    S    
C45   C65   A    
C63   C67   A    
C73   H29   S    
O14   V2    S    
C1    C67   S    
C4    C66   S    
C12   C20   A    
C27   C35   A    
O9    V1    S    
C3    C65   S    
C40   C44   A    
C56   C60   A    
C29   C41   A    
C48   C52   A    
O16   V4    S    
C51   Cl7   S    
C57   H25   S    
C3    O13   A    
C72   C79   A    
C39   H19   S    
C59   H27   S    
C72   Cl4   S    
C20   H11   S    
O5    C1    A    
O6    C2    A    
C15   C19   A    
O11   V3    S    
C30   C42   A    
O12   V4    S    
C22   C26   A    
C73   C77   A    
C8    C9    S    
C71   C80   A    
C9    C17   A    
C60   C64   A    
O20   V2    S    
C48   C68   A    
C54   C77   S    
C15   H15   S    
C32   C44   A    
O10   C6    A    
C33   C34   A    
C42   H2    S    
C41   H1    S    
C46   C50   A    
C12   C24   A    
C43   H3    S    
C13   C17   A    
C75   H31   S    
C2    C68   S    
C47   H23   S    
C60   H28   S    
C24   C28   A    
C74   C78   A    
C18   H9    S    
C4    O14   A    
C55   C59   A    
C47   C51   A    
C40   H20   S    
C22   H5    S    
C50   Cl6   S    
C28   C32   A    
