data_mof_unit_56872.cif
_audit_creation_date              2013-03-05T15:58:06-0500
_audit_creation_method            fapswitch 2.2
_symmetry_space_group_name_H-M    P1
_symmetry_Int_Tables_number       1
_space_group_crystal_system       triclinic
_cell_length_a                    15.113445
_cell_length_b                    13.807473
_cell_length_c                    10.801382
_cell_angle_alpha                 90.312526
_cell_angle_beta                  86.786064
_cell_angle_gamma                 90.965114
_cell_volume                      2250.12857969

loop_
_atom_site_label
_atom_site_type_symbol
_atom_site_description
_atom_site_fract_x
_atom_site_fract_y
_atom_site_fract_z
_atom_type_partial_charge
O1    O     O_R   0.370250 0.582280 0.500040 -0.575346
O2    O     O_R   0.370250 0.417720 0.500040 -0.571822
C1    C     C_R   0.328668 0.499195 0.499739 0.832852
O3    O     O_R   0.499970 0.582270 0.317700 -0.595082
O4    O     O_R   0.499970 0.417730 0.317700 -0.593345
C2    C     C_R   0.504277 0.499894 0.259876 0.799508
Cu1   Cu    Cu3+1 0.499990 0.597420 0.500010 1.026436
Cu2   Cu    Cu3+1 0.499990 0.402580 0.500010 1.016544
O5    O     O_R   0.629730 0.582260 0.499980 -0.549973
O6    O     O_R   0.629730 0.417740 0.499980 -0.574285
O7    O     O_R   0.500000 0.582270 0.682320 -0.536908
O8    O     O_R   0.500000 0.417730 0.682320 -0.536654
C3    C     C_R   0.671772 0.501260 0.499970 0.854474
C4    C     C_R   0.504195 0.500180 0.739798 0.873653
C5    C     C_3   0.467082 0.592761 0.075144 -0.396600
C6    C     C_3   0.457347 0.411622 0.074505 -0.404034
H1    H     H_    0.501930 0.659336 0.106174 0.233851
H2    H     H_    0.487371 0.342373 0.101190 0.222627
H3    H     H_    0.397608 0.596854 0.114994 0.189325
H4    H     H_    0.388653 0.411630 0.117730 0.184489
C7    C     C_3   0.466671 0.592797 0.934006 -0.387991
C8    C     C_3   0.453194 0.414753 0.933784 -0.381752
H5    H     H_    0.396431 0.593962 0.908669 0.203980
H6    H     H_    0.382943 0.424726 0.911095 0.196352
H7    H     H_    0.497132 0.661403 0.898742 0.262898
H8    H     H_    0.470329 0.342720 0.895646 0.258125
C9    C     C_3   0.610112 0.495511 0.066170 0.130613
C10   C     C_3   0.510919 0.499782 0.121463 -0.018978
C11   C     C_3   0.511367 0.500207 0.877557 -0.060331
C12   C     C_3   0.612639 0.494218 0.916744 0.437511
C13   C     C_R   0.813540 0.415477 0.503346 -0.174698
C14   C     C_R   0.769077 0.504017 0.507296 -0.126781
C15   C     C_R   0.818194 0.592126 0.520375 0.203369
C16   C     C_R   0.908835 0.588392 0.545081 -0.055506
C17   C     C_R   0.953302 0.499720 0.525525 -0.002784
C18   C     C_R   0.905383 0.413161 0.505891 0.115292
C19   C     C_R   0.958292 0.671359 0.581303 0.331655
C20   C     C_R   0.050713 0.669863 0.570029 -0.236639
C21   C     C_R   0.094582 0.584672 0.537478 0.040503
C22   C     C_R   0.046304 0.498049 0.521647 0.087720
C23   C     C_R   0.091178 0.410311 0.498782 0.112323
C24   C     C_R   0.042578 0.324197 0.483665 -0.172267
C25   C     C_R   0.950171 0.325568 0.487581 -0.123481
C26   C     C_R   0.186499 0.584412 0.525420 -0.180252
C27   C     C_R   0.231707 0.497789 0.504112 -0.073138
C28   C     C_R   0.183868 0.410572 0.491153 -0.207123
H9    H     H_    0.777119 0.347996 0.491728 0.192173
H10   H     H_    0.088648 0.734197 0.593016 0.196739
H11   H     H_    0.222608 0.652147 0.533919 0.184624
H12   H     H_    0.218505 0.343288 0.474023 0.174352
H13   H     H_    0.076006 0.256119 0.467299 0.167751
H14   H     H_    0.913772 0.258447 0.473697 0.183568
C29   C     C_R   0.447990 0.794303 0.586615 0.300739
C30   C     C_R   0.445977 0.204675 0.584141 0.304130
N1    N     N_R   0.499930 0.743810 0.499950 -0.206434
N2    N     N_R   0.499930 0.256190 0.499950 -0.208680
C31   C     C_R   0.550522 0.793706 0.411631 0.076971
C32   C     C_R   0.555289 0.207730 0.417081 0.059022
C33   C     C_R   0.553605 0.896964 0.408984 -0.159523
C34   C     C_R   0.557819 0.104589 0.413679 -0.161372
C35   C     C_R   0.503857 0.948518 0.500667 0.034946
C36   C     C_R   0.504650 0.051928 0.501555 0.035387
C37   C     C_R   0.451654 0.896833 0.590969 0.015186
C38   C     C_R   0.450988 0.102543 0.590200 0.013469
C39   C     C_R   0.606518 0.949851 0.319340 0.252963
C40   C     C_R   0.610459 0.052882 0.323752 0.249003
C41   C     C_R   0.403269 0.049498 0.682908 -0.145582
C42   C     C_R   0.404050 0.949302 0.683766 -0.143565
H15   H     H_    0.588827 0.752474 0.343234 0.185248
H16   H     H_    0.596111 0.249932 0.351854 0.184170
H17   H     H_    0.365366 0.083762 0.758001 0.181142
H18   H     H_    0.366701 0.914861 0.759729 0.182836
I1    I     I_    0.351532 0.723165 0.709505 -0.394781
I2    I     I_    0.345041 0.273582 0.699882 -0.375647
N3    N     N_R   0.656874 0.899580 0.223471 0.151974
O9    O     O_R   0.616112 0.850360 0.140197 -0.321757
O10   O     O_R   0.742406 0.912061 0.210728 -0.229077
N4    N     N_R   0.667268 0.104409 0.235126 0.146826
O11   O     O_R   0.657770 0.092892 0.116959 -0.245334
O12   O     O_R   0.734321 0.154903 0.272250 -0.318990
I3    I     I_    0.686236 0.614593 0.144464 -0.116650
I4    I     I_    0.676837 0.373045 0.144423 -0.137291
N5    N     N_R   0.667484 0.577469 0.865961 0.116447
O13   O     O_R   0.752866 0.579437 0.877209 -0.225799
O14   O     O_R   0.635683 0.644744 0.798432 -0.328771
N6    N     N_R   0.656246 0.404485 0.867502 0.116783
O15   O     O_R   0.613117 0.333749 0.817213 -0.343730
O16   O     O_R   0.741906 0.396105 0.868986 -0.247949
I5    I     I_    0.769401 0.728964 0.460287 -0.097098
N7    N     N_R   0.916983 0.752332 0.643983 0.150856
O17   O     O_R   0.853131 0.737524 0.728010 -0.223957
O18   O     O_R   0.951804 0.838876 0.632086 -0.303653

loop_
_geom_bond_atom_site_label_1
_geom_bond_atom_site_label_2
_geom_bond_distance
_ccdc_geom_bond_type
C26   H11   1.080945 S    
C6    C10   1.549404 S    
C8    C11   1.564291 S    
C16   C19   1.422372 A    
C23   C24   1.400669 A    
C3    C14   1.477008 S    
C17   C18   1.408257 A    
Cu1   N1    2.021295 S    
Cu2   N2    2.021258 S    
C5    C10   1.552491 S    
Cu1   Cu2   2.690247 S    
C27   C28   1.404531 A    
C5    H3    1.114460 S    
C11   C12   1.614292 S    
C19   N7    1.437367 S    
C34   C36   1.406305 A    
C20   C21   1.393716 A    
O7    C4    1.299502 A    
N4    O12   1.300983 A    
C25   H14   1.083779 S    
C31   C33   1.426103 A    
C41   H17   1.078298 S    
C32   C34   1.425501 A    
Cu1   O5    1.975445 S    
C16   C17   1.415713 A    
C12   N5    1.494339 S    
C35   C37   1.409068 A    
O5    C3    1.295559 A    
C36   C38   1.409852 A    
O1    Cu1   1.968408 S    
C30   I2    2.148808 S    
C2    C10   1.492789 S    
C13   C14   1.404215 A    
C23   C28   1.398614 A    
C12   N6    1.494439 S    
C20   H10   1.084351 S    
C6    H4    1.114222 S    
C24   H13   1.083617 S    
C34   C40   1.418111 A    
C13   H9    1.084474 S    
C9    C12   1.612331 S    
O3    Cu1   1.979161 S    
C29   N1    1.381117 A    
C40   N4    1.433318 S    
C30   N2    1.379199 A    
C33   C35   1.406970 A    
C41   C42   1.383785 A    
C38   C41   1.403050 A    
C9    I3    2.184601 S    
O3    C2    1.295456 A    
C21   C22   1.405170 A    
N6    O15   1.298578 A    
C32   H16   1.077121 S    
C7    C11   1.561047 S    
C1    C27   1.463339 S    
C42   H18   1.077629 S    
O1    C1    1.298814 A    
Cu1   O7    1.981422 S    
N3    O9    1.300689 A    
C19   C20   1.395783 A    
C15   I5    2.156109 S    
N7    O18   1.301641 A    
N5    O13   1.302709 A    
Cu2   O8    1.979153 S    
C15   C16   1.412097 A    
N3    O10   1.300964 A    
Cu2   O6    1.968434 S    
C22   C23   1.412150 A    
N5    O14   1.299083 A    
O8    C4    1.296054 A    
C7    H5    1.111430 S    
C8    H6    1.113909 S    
C24   C25   1.395301 A    
C4    C11   1.497972 S    
C26   C27   1.399003 A    
C5    H1    1.111231 S    
C7    H7    1.106318 S    
C37   C42   1.405675 A    
C6    C8    1.525674 S    
N4    O11   1.300994 A    
C9    I4    2.181581 S    
C29   I1    2.144980 S    
O6    C3    1.307259 A    
O4    Cu2   1.981431 S    
C21   C26   1.388045 A    
C28   H12   1.083969 S    
C39   N3    1.433493 S    
C14   C15   1.424956 A    
N1    C31   1.370023 A    
O2    C1    1.297910 A    
C33   C39   1.418286 A    
C29   C37   1.416462 A    
N7    O17   1.301537 A    
O4    C2    1.296942 A    
C30   C38   1.415546 A    
N2    C32   1.370128 A    
C17   C22   1.404434 A    
N6    O16   1.302718 A    
C35   C36   1.427653 A    
C5    C7    1.524846 S    
C6    H2    1.111517 S    
C39   C40   1.423490 A    
C8    H8    1.103728 S    
O2    Cu2   1.975410 S    
C9    C10   1.584242 S    
C13   C18   1.390781 A    
C18   C25   1.403560 A    
C31   H15   1.078709 S    
