data_mof_unit_58842.cif
_audit_creation_date              2012-12-10T17:07:45-0500
_audit_creation_method            fapswitch 2.2
_symmetry_space_group_name_H-M    P1
_symmetry_Int_Tables_number       1
_space_group_crystal_system       triclinic
_cell_length_a                    10.644025
_cell_length_b                    10.735731
_cell_length_c                    10.024516
_cell_angle_alpha                 89.960889
_cell_angle_beta                  89.994201
_cell_angle_gamma                 90.693723
_cell_volume                      1145.43113133

loop_
_atom_site_label
_atom_site_type_symbol
_atom_type_description
_atom_site_fract_x
_atom_site_fract_y
_atom_site_fract_z
_atom_type_partial_charge
C1    C     C_R   0.504802 0.262866 0.499860 0.949801
C2    C     C_3   0.878475 0.498054 0.499204 0.166544
C3    C     C_3   0.930354 0.621550 0.558462 -0.407230
C4    C     C_3   0.928242 0.483118 0.354295 -0.398560
C5    C     C_2   0.518874 0.933169 0.388217 -0.168663
C6    C     C_2   0.496119 0.869186 0.500052 -0.353638
C7    C     C_2   0.511546 0.067154 0.387051 -0.150831
C8    C     C_2   0.523297 0.132212 0.499843 -0.324844
C9    C     C_2   0.582255 0.561009 0.924896 -0.133665
C10   C     C_2   0.577958 0.566415 0.074961 -0.140228
C11   C     C_R   0.257738 0.497260 0.499784 0.845384
C12   C     C_R   0.499858 0.737344 0.499914 0.927400
C13   C     C_R   0.742227 0.500025 0.499761 0.833053
C14   C     C_3   0.068430 0.386444 0.588610 -0.134021
C15   C     C_3   0.923507 0.386834 0.584510 -0.430897
C16   C     C_3   0.074701 0.620521 0.557207 -0.437890
C17   C     C_3   0.070996 0.484932 0.353816 -0.399027
C18   C     C_3   0.121174 0.495059 0.499101 0.140520
H1    H     H_    0.094452 0.411011 0.693206 0.132555
H2    H     H_    0.894366 0.560510 0.290036 0.177586
H3    H     H_    0.110745 0.699976 0.496170 0.162012
H4    H     H_    0.896385 0.702149 0.499150 0.161992
H5    H     H_    0.538197 0.886870 0.294167 0.168462
H6    H     H_    0.470224 0.912064 0.593658 0.145157
H7    H     H_    0.493790 0.111975 0.291785 0.167941
H8    H     H_    0.549025 0.090869 0.594466 0.142889
H9    H     H_    0.657234 0.612261 0.875214 0.154019
H10   H     H_    0.426520 0.457938 0.897818 0.154395
H11   H     H_    0.645008 0.627560 0.124577 0.151135
H12   H     H_    0.442090 0.438566 0.102218 0.157069
H13   H     H_    0.883390 0.298590 0.543794 0.158661
H14   H     H_    0.887211 0.394531 0.688378 0.171586
H15   H     H_    0.110339 0.634473 0.660619 0.175396
H16   H     H_    0.896606 0.633660 0.662727 0.173644
H17   H     H_    0.104026 0.566746 0.294343 0.180364
H18   H     H_    0.107439 0.401320 0.302337 0.171914
H19   H     H_    0.893061 0.394247 0.310086 0.170086
N1    N     N_2   0.501360 0.501330 0.852150 -0.193580
N2    N     N_2   0.501390 0.501360 0.147810 -0.193985
O1    O     O_R   0.499980 0.319060 0.613040 -0.619499
O2    O     O_R   0.500020 0.319100 0.386900 -0.616080
O3    O     O_R   0.314770 0.499960 0.613070 -0.633906
O4    O     O_R   0.314820 0.500000 0.386930 -0.623556
O5    O     O_R   0.499980 0.680900 0.613100 -0.614376
O6    O     O_R   0.500020 0.680940 0.386960 -0.610153
O7    O     O_R   0.685180 0.500000 0.613070 -0.624952
O8    O     O_R   0.685230 0.500040 0.386930 -0.626883
Zn1   Zn    Zn3+2 0.499970 0.499970 0.650990 0.923529
Zn2   Zn    Zn3+2 0.500030 0.500030 0.349010 0.926331
C19   C     C_R   0.121363 0.257118 0.561136 0.117448
C20   C     C_R   0.085225 0.186363 0.448624 -0.152941
C21   C     C_R   0.126839 0.064336 0.432528 -0.148759
C22   C     C_R   0.203860 0.010622 0.528642 -0.090438
C23   C     C_R   0.241354 0.079551 0.640029 -0.140515
C24   C     C_R   0.201027 0.202044 0.656042 -0.146241
H20   H     H_    0.020825 0.222614 0.375574 0.122382
H21   H     H_    0.097219 0.010474 0.346626 0.123367
H22   H     H_    0.233786 0.915320 0.517049 0.121726
H23   H     H_    0.301277 0.037894 0.714532 0.120306
H24   H     H_    0.230536 0.253105 0.743979 0.120705

loop_
_geom_bond_atom_site_label_1
_geom_bond_atom_site_label_2
_ccdc_geom_bond_type
C2    C4    S    
C22   H22   S    
C11   C18   S    
C15   H13   S    
C16   H3    S    
C17   H18   S    
O6    Zn2   S    
C16   H15   S    
C1    C8    S    
C8    H8    S    
C9    C10   S    
C14   C18   S    
N1    Zn1   S    
C19   C24   A    
C3    H16   S    
H10   N1    S    
C6    H6    S    
C14   C15   S    
C19   C20   A    
C15   H14   S    
O8    Zn2   S    
O3    Zn1   S    
C24   H24   S    
C21   C22   A    
C11   O4    A    
C2    C15   S    
C10   H11   S    
C14   C19   S    
C4    C17   S    
C1    O2    A    
C9    N1    D    
N2    Zn2   S    
H12   N2    S    
C17   C18   S    
C2    C3    S    
C23   H23   S    
C7    H7    S    
C6    C12   S    
C5    C6    D    
O7    Zn1   S    
C21   H21   S    
C20   C21   A    
C4    H2    S    
C7    C8    D    
C4    H19   S    
C9    H9    S    
C11   O3    A    
C16   C18   S    
C20   H20   S    
O2    Zn2   S    
C5    C7    S    
C2    C13   S    
O1    Zn1   S    
C13   O7    A    
C12   O5    A    
C3    H4    S    
C17   H17   S    
C1    O1    A    
C23   C24   A    
C13   O8    A    
C14   H1    S    
C10   N2    D    
O4    Zn2   S    
C3    C16   S    
O5    Zn1   S    
C22   C23   A    
C12   O6    A    
C5    H5    S    
