data_mof_unit_41197.cif
_audit_creation_date              2012-12-10T18:33:31-0500
_audit_creation_method            fapswitch 2.2
_symmetry_space_group_name_H-M    P1
_symmetry_Int_Tables_number       1
_space_group_crystal_system       triclinic
_cell_length_a                    8.754946
_cell_length_b                    15.168522
_cell_length_c                    13.951548
_cell_angle_alpha                 90.291059
_cell_angle_beta                  97.65505
_cell_angle_gamma                 92.918773
_cell_volume                      1833.73425962

loop_
_atom_site_label
_atom_site_type_symbol
_atom_type_description
_atom_site_fract_x
_atom_site_fract_y
_atom_site_fract_z
_atom_type_partial_charge
C1    C     C_R   0.513131 0.330114 0.500879 0.823710
C2    C     C_R   0.486859 0.669884 0.499121 0.823702
C3    C     C_R   0.626981 0.541094 0.119383 0.291262
C4    C     C_R   0.373001 0.458948 0.880625 0.291285
C5    C     C_R   0.613711 0.547697 0.219194 0.424018
C6    C     C_R   0.386252 0.452338 0.780811 0.424001
C7    C     C_R   0.401894 0.442951 0.198878 0.161745
C8    C     C_R   0.598158 0.557021 0.801124 0.161723
C9    C     C_R   0.422583 0.431383 0.100989 0.326385
C10   C     C_R   0.577472 0.568613 0.899008 0.326388
C11   C     C_R   0.510013 0.494921 0.055443 -0.053862
C12   C     C_R   0.490000 0.505103 0.944560 -0.053842
C13   C     C_R   0.204394 0.496714 0.476003 0.879986
C14   C     C_R   0.795607 0.503289 0.523997 0.880034
C15   C     C_2   0.039698 0.480806 0.467370 0.026936
C16   C     C_2   0.960304 0.519199 0.532629 0.026912
C17   C     C_R   0.578346 0.094506 0.589566 0.369381
C18   C     C_R   0.421626 0.905479 0.410395 0.369554
C19   C     C_R   0.573394 0.187522 0.591936 0.043744
C20   C     C_R   0.426436 0.812449 0.408055 0.043805
C21   C     C_R   0.541232 0.233617 0.502711 -0.119920
C22   C     C_R   0.458751 0.766380 0.497284 -0.119984
C23   C     C_R   0.550333 0.185825 0.415574 0.080542
C24   C     C_R   0.449805 0.814195 0.584428 0.080467
C25   C     C_R   0.544135 0.093895 0.417307 -0.096629
C26   C     C_R   0.455971 0.906121 0.582663 -0.096756
C27   C     C_R   0.527023 0.048052 0.502101 -0.007315
C28   C     C_R   0.473021 0.951945 0.497848 -0.007380
Cu1   Cu    Cu3+1 0.500000 0.499990 0.596430 0.985442
Cu2   Cu    Cu3+1 0.500000 0.500010 0.403570 0.985444
H1    H     H_    0.554282 0.058181 0.351581 0.205887
H2    H     H_    0.445895 0.941849 0.648392 0.205831
N1    N     N_R   0.500000 0.500020 0.258690 -0.250063
N2    N     N_R   0.500000 0.499980 0.741310 -0.250040
O1    O     O_R   0.500010 0.371450 0.581430 -0.543476
O2    O     O_R   0.499990 0.628550 0.418570 -0.543420
O3    O     O_R   0.500010 0.371460 0.418560 -0.601944
O4    O     O_R   0.499990 0.628540 0.581440 -0.601953
O5    O     O_R   0.274840 0.499990 0.562640 -0.542234
O6    O     O_R   0.725160 0.500010 0.437360 -0.542261
O7    O     O_R   0.274840 0.500000 0.399770 -0.593465
O8    O     O_R   0.725160 0.500000 0.600230 -0.593464
C29   C     C_3   0.969793 0.408381 0.396959 -0.811490
H3    H     H_    0.891144 0.362617 0.431651 0.222194
H4    H     H_    0.059953 0.367272 0.374206 0.219772
H5    H     H_    0.906756 0.437501 0.331341 0.277438
C30   C     C_3   0.030214 0.591619 0.603047 -0.811427
H6    H     H_    0.108911 0.637372 0.568376 0.222194
H7    H     H_    0.093206 0.562489 0.668676 0.277458
H8    H     H_    0.940058 0.632743 0.625779 0.219749
Cl1   Cl    Cl    0.689096 0.040646 0.685944 -0.566699
Cl2   Cl    Cl    0.311105 0.959383 0.313958 -0.566761
C31   C     C_3   0.609654 0.236143 0.688366 -0.605165
H9    H     H_    0.702432 0.288263 0.684641 0.232602
H10   H     H_    0.504120 0.265010 0.707731 0.263543
H11   H     H_    0.649243 0.193827 0.750026 0.275841
C32   C     C_3   0.389826 0.763768 0.311670 -0.605101
H12   H     H_    0.297159 0.711617 0.315588 0.232426
H13   H     H_    0.349878 0.806021 0.250027 0.275903
H14   H     H_    0.495280 0.734923 0.292133 0.263514
C33   C     C_3   0.569684 0.228653 0.320014 -0.675017
H15   H     H_    0.664985 0.280354 0.329725 0.227558
H16   H     H_    0.600022 0.180547 0.266190 0.244667
H17   H     H_    0.460346 0.256522 0.288281 0.256004
C34   C     C_3   0.430704 0.771396 0.680038 -0.674691
H18   H     H_    0.400656 0.819538 0.733947 0.244705
H19   H     H_    0.540093 0.743472 0.711623 0.255928
H20   H     H_    0.335299 0.719733 0.670434 0.227585
Cl3   Cl    Cl    0.812465 0.564241 0.084941 -0.448645
Cl4   Cl    Cl    0.187530 0.435813 0.915092 -0.448661
Cl5   Cl    Cl    0.745426 0.621006 0.290463 -0.517641
Cl6   Cl    Cl    0.254474 0.379056 0.709551 -0.517759
C35   C     C_3   0.259960 0.398566 0.231183 -0.628308
H21   H     H_    0.285959 0.361662 0.298447 0.225127
H22   H     H_    0.175863 0.449291 0.239681 0.246086
H23   H     H_    0.199209 0.351076 0.176598 0.254941
C36   C     C_3   0.740156 0.601336 0.768836 -0.628347
H24   H     H_    0.714223 0.638240 0.701564 0.225084
H25   H     H_    0.800972 0.648777 0.823433 0.254958
H26   H     H_    0.824162 0.550568 0.760338 0.246127
Cl7   Cl    Cl    0.396297 0.322583 0.052343 -0.502943
Cl8   Cl    Cl    0.603782 0.677425 0.947611 -0.502925

loop_
_geom_bond_atom_site_label_1
_geom_bond_atom_site_label_2
_ccdc_geom_bond_type
C25   H1    S    
C1    C21   S    
Cu1   O8    S    
C7    N1    A    
C35   H21   S    
C17   Cl1   S    
C13   O7    A    
C18   Cl2   S    
C30   H7    S    
C36   H24   S    
C31   H11   S    
C6    Cl6   S    
C3    Cl3   S    
C24   C26   A    
C32   H13   S    
C15   C16   D    
C33   H16   S    
C34   H19   S    
C5    N1    A    
Cu1   O4    S    
C2    C22   S    
Cu2   O7    S    
C4    C12   A    
C18   C20   A    
C1    O3    A    
C14   O8    A    
C19   C31   S    
C36   H25   S    
C35   H22   S    
Cu1   O5    S    
C16   C30   S    
C4    Cl4   S    
C30   H8    S    
C31   H10   S    
C17   C27   A    
C18   C28   A    
C4    C6    A    
C26   H2    S    
C32   H14   S    
C31   H9    S    
Cu1   N2    S    
C10   Cl8   S    
C6    N2    A    
Cu2   O3    S    
C33   H17   S    
C29   H3    S    
Cu1   Cu2   S    
C9    C11   A    
C2    O4    A    
C30   H6    S    
C34   H20   S    
C7    C35   S    
Cu2   O6    S    
C8    N2    A    
C29   H4    S    
C10   C12   A    
C24   C34   S    
C20   C22   A    
C13   C15   S    
C8    C36   S    
C35   H23   S    
C14   C16   S    
C1    O1    A    
C36   H26   S    
C2    O2    A    
C7    C9    A    
Cu2   N1    S    
C19   C21   A    
C3    C5    A    
C11   C12   S    
C25   C27   A    
Cu1   O1    S    
C26   C28   A    
Cu2   O2    S    
C21   C23   A    
C15   C29   S    
C5    Cl5   S    
C32   H12   S    
C17   C19   A    
C22   C24   A    
C23   C25   A    
C33   H15   S    
C29   H5    S    
C13   O5    A    
C3    C11   A    
C14   O6    A    
C23   C33   S    
C8    C10   A    
C34   H18   S    
C27   C28   S    
C20   C32   S    
C9    Cl7   S    
