data_mof_unit_21180.cif
_audit_creation_date              2012-12-11T20:55:35-0500
_audit_creation_method            fapswitch 2.2
_symmetry_space_group_name_H-M    P1
_symmetry_Int_Tables_number       1
_space_group_crystal_system       triclinic
_cell_length_a                    8.264257
_cell_length_b                    19.21315
_cell_length_c                    22.788233
_cell_angle_alpha                 99.750073
_cell_angle_beta                  89.992949
_cell_angle_gamma                 92.506944
_cell_volume                      3562.59570689

loop_
_atom_site_label
_atom_site_type_symbol
_atom_type_description
_atom_site_fract_x
_atom_site_fract_y
_atom_site_fract_z
_atom_type_partial_charge
Ba1   Ba    Ba6+2 0.157290 0.533910 0.474710 1.643085
Ba2   Ba    Ba6+2 0.652900 0.466090 0.525240 1.646629
C1    C     C_3   0.345149 0.700361 0.256028 -0.167708
C2    C     C_R   0.988580 0.271511 0.475787 0.065256
C3    C     C_R   0.129021 0.187047 0.545660 -0.162625
C4    C     C_3   0.936757 0.722314 0.353782 0.371360
C5    C     C_R   0.202053 0.252924 0.540344 0.001082
C6    C     C_R   0.681267 0.809795 0.447903 -0.159134
C7    C     C_R   0.611526 0.743369 0.452710 0.007482
C8    C     C_R   0.856701 0.800170 0.530113 -0.165703
C9    C     C_R   0.823860 0.726183 0.519235 0.064415
C10   C     C_R   0.010497 0.153475 0.503471 0.012138
C11   C     C_R   0.122127 0.297163 0.509952 -0.214508
C12   C     C_3   0.395664 0.683791 0.316631 0.339424
C13   C     C_R   0.796469 0.844054 0.490816 -0.002048
C14   C     C_R   0.693820 0.699220 0.483048 -0.256400
C15   C     C_R   0.226459 0.041081 0.531034 -0.085568
C16   C     C_3   0.977866 0.796674 0.340488 -0.199468
C17   C     C_R   0.320930 0.996857 0.557335 -0.078620
C18   C     C_R   0.274236 0.926390 0.551505 -0.073048
C19   C     C_R   0.130553 0.902484 0.522118 -0.088750
C20   C     C_R   0.011874 0.949359 0.510956 0.019428
C21   C     C_R   0.062561 0.022686 0.514497 0.030686
C22   C     C_R   0.850499 0.923558 0.494252 -0.015796
C23   C     C_3   0.489676 0.687304 0.612926 0.299429
C24   C     C_R   0.742511 0.974680 0.479602 0.034891
C25   C     C_R   0.792590 0.047918 0.481855 0.014141
C26   C     C_R   0.954428 0.074105 0.499757 -0.017858
C27   C     C_R   0.579768 0.955137 0.463617 -0.103826
C28   C     C_3   0.876556 0.378866 0.338625 0.353284
C29   C     C_R   0.485214 0.996621 0.434760 -0.063246
C30   C     C_R   0.531542 0.067145 0.435850 0.049360
C31   C     C_R   0.673375 0.093308 0.467183 -0.108061
C32   C     C_R   0.647110 0.520230 0.333117 -0.279126
C33   C     C_R   0.303642 0.582815 0.961915 -0.023131
C34   C     C_3   0.433459 0.763134 0.619406 -0.223148
C35   C     C_R   0.239953 0.584682 0.904795 0.575902
C36   C     C_R   0.220665 0.457736 0.883481 0.575533
C37   C     C_R   0.272134 0.454124 0.941912 -0.026762
C38   C     C_R   0.319903 0.516988 0.980438 -0.055191
C39   C     C_R   0.357086 0.644921 0.000023 -0.083229
C40   C     C_3   0.951582 0.362623 0.277105 -0.331659
C41   C     C_R   0.429749 0.641622 0.054738 -0.081460
C42   C     C_R   0.444979 0.576340 0.074026 -0.014437
C43   C     C_R   0.385807 0.513999 0.037489 -0.052539
C44   C     C_R   0.283095 0.389086 0.961969 -0.080894
C45   C     C_3   0.870422 0.288783 0.658950 0.346180
C46   C     C_R   0.342152 0.386436 0.019014 -0.078410
C47   C     C_R   0.395543 0.448600 0.057243 -0.024578
C48   C     C_R   0.457851 0.447033 0.114817 0.588735
C49   C     C_R   0.517540 0.572175 0.129185 0.567812
C50   C     C_2   0.044125 0.499270 0.775405 -0.088926
C51   C     C_3   0.026303 0.494110 0.708577 -0.081469
C52   C     C_3   0.996444 0.640640 0.663270 0.324688
C53   C     C_1   0.307261 0.528279 0.703523 0.000006
C54   C     C_2   0.326177 0.544926 0.763117 -0.034831
C55   C     C_2   0.186780 0.524765 0.802164 0.238390
C56   C     C_3   0.836468 0.224452 0.689158 -0.195584
C57   C     C_R   0.715434 0.539645 0.233887 -0.090512
C58   C     C_R   0.755169 0.546119 0.294355 -0.025211
C59   C     C_R   0.504210 0.483280 0.311971 -0.008008
C60   C     C_R   0.460385 0.478669 0.251763 -0.124636
C61   C     C_R   0.564630 0.508163 0.212136 0.214290
C62   C     C_2   0.192771 0.480631 0.681924 -0.127359
C63   C     C_3   0.997970 0.670665 0.730004 -0.209730
C64   C     C_3   0.469474 0.308681 0.343378 0.225436
C65   C     C_3   0.501948 0.291056 0.276799 -0.408078
C66   C     C_3   0.099891 0.739693 0.744661 -0.376049
C67   C     C_3   0.381567 0.253525 0.671403 0.276884
C68   C     C_3   0.450264 0.760164 0.237731 -0.398022
C69   C     C_3   0.501127 0.812536 0.675084 -0.204093
C70   C     C_3   0.672890 0.841693 0.665521 -0.213173
C71   C     C_3   0.738085 0.890119 0.721261 -0.427590
C72   C     C_3   0.813260 0.155567 0.644907 -0.491069
C73   C     C_3   0.302456 0.194637 0.760202 -0.236759
C74   C     C_3   0.426200 0.225580 0.809272 -0.164463
C75   C     C_3   0.541407 0.170610 0.823783 -0.419015
C76   C     C_3   0.429103 0.117064 0.408290 -0.192476
C77   C     C_3   0.290833 0.081409 0.367195 -0.232513
C78   C     C_3   0.373797 0.184562 0.697052 -0.201199
C79   C     C_3   0.211107 0.134403 0.334776 -0.407303
C80   C     C_3   0.478032 0.585739 0.790691 -0.177036
C81   C     C_3   0.581771 0.543469 0.827009 -0.218450
C82   C     C_3   0.723924 0.589186 0.857183 -0.422241
C83   C     C_3   0.241812 0.405739 0.670950 -0.302408
C84   C     C_3   0.871954 0.814697 0.290963 -0.430213
C85   C     C_R   0.951486 0.197925 0.464619 -0.149062
H1    H     H_    0.340950 0.631075 0.320928 0.071514
H2    H     H_    0.574528 0.334054 0.368474 0.084977
H3    H     H_    0.351496 0.651993 0.222198 0.115075
H4    H     H_    0.391375 0.266120 0.252968 0.131689
H5    H     H_    0.601276 0.253586 0.268830 0.099448
H6    H     H_    0.538530 0.339393 0.258799 0.115501
H7    H     H_    0.529901 0.681525 0.318707 -0.047572
H8    H     H_    0.622668 0.687182 0.609670 0.011260
H9    H     H_    0.436189 0.658436 0.570600 0.059245
H10   H     H_    0.468035 0.784785 0.578774 0.067242
H11   H     H_    0.298997 0.761409 0.621688 0.119529
H12   H     H_    0.878871 0.319867 0.248648 0.103623
H13   H     H_    0.217858 0.715682 0.256580 0.152673
H14   H     H_    0.960802 0.836237 0.381236 0.074688
H15   H     H_    0.768663 0.293540 0.628455 0.107709
H16   H     H_    0.983220 0.281995 0.632958 -0.032057
H17   H     H_    0.725984 0.233477 0.716506 0.128518
H18   H     H_    0.937907 0.219282 0.719805 0.111631
H19   H     H_    0.256102 0.263797 0.659158 -0.041547
H20   H     H_    0.426521 0.297710 0.706085 0.051472
H21   H     H_    0.295765 0.144864 0.667577 0.075276
H22   H     H_    0.998571 0.718329 0.396354 0.069748
H23   H     H_    0.954159 0.410471 0.255755 0.080519
H24   H     H_    0.494623 0.162049 0.696809 0.124416
H25   H     H_    0.876134 0.177130 0.426401 0.060874
H26   H     H_    0.171389 0.162109 0.581176 0.057816
H27   H     H_    0.638846 0.834587 0.412017 0.072371
H28   H     H_    0.932730 0.821959 0.567936 0.062082
H29   H     H_    0.168269 0.350927 0.510790 0.081875
H30   H     H_    0.650118 0.645051 0.481625 0.068959
H31   H     H_    0.290329 0.087210 0.520948 0.079284
H32   H     H_    0.440745 0.014830 0.574257 0.075435
H33   H     H_    0.357048 0.889450 0.564083 0.076267
H34   H     H_    0.077086 0.345359 0.280538 0.139765
H35   H     H_    0.803927 0.714988 0.358515 -0.050881
H36   H     H_    0.116370 0.847082 0.507172 0.130118
H37   H     H_    0.518718 0.908761 0.474581 0.084281
H38   H     H_    0.368051 0.975034 0.417839 0.072884
H39   H     H_    0.685684 0.149245 0.480337 0.121844
H40   H     H_    0.347981 0.335328 0.032773 0.117683
H41   H     H_    0.246292 0.339907 0.933527 0.107129
H42   H     H_    0.472437 0.690576 0.082259 0.112517
H43   H     H_    0.800400 0.559984 0.204114 0.112829
H44   H     H_    0.347297 0.696191 0.986884 0.115868
H45   H     H_    0.121555 0.630862 0.647750 0.005033
H46   H     H_    0.106775 0.801741 0.327922 0.150352
H47   H     H_    0.944526 0.482326 0.801421 0.097632
H48   H     H_    0.345652 0.452886 0.236039 0.109502
H49   H     H_    0.679343 0.525141 0.379706 0.076722
H50   H     H_    0.753429 0.395616 0.332631 -0.107842
H51   H     H_    0.943279 0.424222 0.364998 0.102626
H52   H     H_    0.227579 0.730690 0.731803 0.139349
H53   H     H_    0.052312 0.780719 0.721131 0.140562
H54   H     H_    0.096251 0.759383 0.793325 0.136274
H55   H     H_    0.443647 0.808866 0.271599 0.127622
H56   H     H_    0.920557 0.590907 0.655012 0.004762
H57   H     H_    0.577748 0.744650 0.232606 0.170027
H58   H     H_    0.406697 0.771466 0.194369 0.126741
H59   H     H_    0.659507 0.935751 0.733335 0.133156
H60   H     H_    0.743581 0.860530 0.759036 0.137691
H61   H     H_    0.862224 0.910429 0.712716 0.124230
H62   H     H_    0.755129 0.797514 0.654246 0.151996
H63   H     H_    0.672149 0.872195 0.628194 0.119276
H64   H     H_    0.420511 0.857817 0.685364 0.101456
H65   H     H_    0.499452 0.784849 0.714140 0.148607
H66   H     H_    0.759348 0.113736 0.667969 0.128487
H67   H     H_    0.048126 0.632510 0.755392 0.068365
H68   H     H_    0.732302 0.161899 0.607481 0.172212
H69   H     H_    0.931719 0.137590 0.627312 0.135063
H70   H     H_    0.472002 0.125383 0.837669 0.131206
H71   H     H_    0.617287 0.150837 0.784897 0.126922
H72   H     H_    0.623027 0.195112 0.861010 0.130202
H73   H     H_    0.497513 0.271119 0.796826 0.128400
H74   H     H_    0.358836 0.245679 0.850434 0.127078
H75   H     H_    0.251726 0.142940 0.769191 0.115424
H76   H     H_    0.199751 0.230402 0.762520 0.118501
H77   H     H_    0.171878 0.180513 0.366950 0.137177
H78   H     H_    0.871662 0.680176 0.745065 0.108941
H79   H     H_    0.297253 0.153024 0.302777 0.129645
H80   H     H_    0.103285 0.108628 0.309645 0.128424
H81   H     H_    0.338345 0.038618 0.333429 0.125527
H82   H     H_    0.196876 0.058334 0.394044 0.124883
H83   H     H_    0.375093 0.154864 0.444178 0.130740
H84   H     H_    0.511339 0.147137 0.382080 0.103370
H85   H     H_    0.803552 0.608014 0.823399 0.132438
H86   H     H_    0.679109 0.635435 0.887874 0.147301
H87   H     H_    0.796096 0.557766 0.883476 0.137637
H88   H     H_    0.511510 0.523342 0.862143 0.117120
H89   H     H_    0.444879 0.258522 0.360182 0.051541
H90   H     H_    0.628548 0.496933 0.797891 0.163699
H91   H     H_    0.557218 0.603180 0.756214 0.113443
H92   H     H_    0.441550 0.635102 0.819119 0.144495
H93   H     H_    0.375229 0.402825 0.667726 0.139074
H94   H     H_    0.204142 0.379818 0.709066 0.120664
H95   H     H_    0.182327 0.377750 0.629661 0.049156
H96   H     H_    0.881884 0.774669 0.249953 0.164176
H97   H     H_    0.744094 0.817040 0.305673 0.119559
H98   H     H_    0.911589 0.867295 0.280785 0.124202
N1    N     N_R   0.211058 0.522599 0.864933 -0.426911
N2    N     N_R   0.514427 0.508833 0.150909 -0.423248
O1    O     O_2   0.108070 0.674980 0.540650 -0.470032
O2    O     O_2   0.693999 0.446442 0.697749 -0.489526
O3    O     O_3   0.889628 0.348269 0.703881 -0.608167
O4    O     O_3   0.861930 0.586170 0.535430 -0.480758
O5    O     O_3   0.451480 0.461630 0.428900 -0.464651
O6    O     O_2   0.599240 0.538720 0.642170 -0.455975
O7    O     O_3   0.441373 0.657963 0.662914 -0.665580
O8    O     O_2   0.519371 0.248062 0.510942 -0.496475
O9    O     O_3   0.491645 0.248257 0.623801 -0.620064
O10   O     O_2   0.213310 0.641378 0.890041 -0.609685
O11   O     O_2   0.188631 0.403172 0.848596 -0.602749
O12   O     O_3   0.332904 0.348948 0.354652 -0.612065
O13   O     O_2   0.463795 0.390573 0.132472 -0.604853
O14   O     O_2   0.583209 0.625232 0.157970 -0.627275
O15   O     O_3   0.366390 0.628250 0.433820 -0.475349
O16   O     O_2   0.286076 0.755257 0.476851 -0.507541
O17   O     O_3   0.927407 0.689961 0.634118 -0.653260
O18   O     O_3   0.338409 0.735596 0.361900 -0.613259
O19   O     O_2   0.211060 0.461230 0.357810 -0.454703
O20   O     O_3   0.958150 0.591500 0.402390 -0.490560
O21   O     O_2   0.090940 0.543356 0.297395 -0.500676
O22   O     O_3   0.991046 0.671178 0.307431 -0.611396
O23   O     O_2   0.702240 0.324970 0.459330 -0.460956
O24   O     O_3   0.948380 0.413820 0.464520 -0.490774
O25   O     O_3   0.443920 0.371740 0.566130 -0.450007
O26   O     O_3   0.871459 0.317199 0.364470 -0.647010
O27   O     O_3   0.358830 0.538360 0.571050 -0.468745
O28   O     O_3   0.852160 0.408490 0.597560 -0.484233
P1    P     P_3+3 0.933470 0.664380 0.557030 0.968159
P2    P     P_3+3 0.383600 0.440030 0.365120 0.996474
P3    P     P_3+3 0.948803 0.587055 0.325005 0.930613
P4    P     P_3+3 0.876840 0.335610 0.442930 0.982933
P5    P     P_3+3 0.865141 0.426510 0.675522 0.966142
P6    P     P_3+3 0.401963 0.717007 0.430408 0.920610
P7    P     P_3+3 0.421320 0.565524 0.645445 0.930184
P8    P     P_3+3 0.411468 0.280151 0.562706 0.935407

loop_
_geom_bond_atom_site_label_1
_geom_bond_atom_site_label_2
_ccdc_geom_bond_type
C84   H97   S    
C53   C54   D    
C57   H43   S    
C83   H95   S    
C28   H51   S    
C81   H88   S    
C24   C27   A    
Ba1   O24   S    
C50   H47   S    
C17   C18   A    
O12   P2    S    
C41   C42   A    
O25   P8    S    
C23   H9    S    
O1    P1    D    
C4    O22   S    
C25   C31   A    
Ba2   O24   S    
C16   C84   S    
C71   H60   S    
C1    H3    S    
C25   C26   A    
O22   P3    S    
C44   H41   S    
C73   H75   S    
C33   C35   A    
C7    C14   A    
C59   P2    S    
C8    C13   A    
C36   C37   A    
C51   C62   S    
C52   O17   S    
C48   N2    Am   
C27   H37   S    
C63   H78   S    
C76   H83   S    
O28   P5    S    
C54   C55   S    
O16   P6    D    
C16   H46   S    
C73   H76   S    
Ba1   Ba2   S    
C2    C11   A    
C47   C48   A    
C65   H5    S    
O27   P7    S    
C45   C56   S    
C1    H13   S    
C69   H64   S    
C29   C30   A    
C76   H84   S    
C6    C7    A    
C80   H92   S    
C79   H79   S    
C36   O11   D    
C34   H10   S    
C35   O10   D    
C77   H81   S    
C73   C78   S    
C64   O12   S    
O2    P5    D    
C6    H27   S    
C75   H71   S    
O7    P7    S    
C9    P1    S    
C2    P4    S    
C51   P5    S    
C52   H56   S    
C17   H32   S    
Ba2   O28   S    
C45   H15   S    
C19   C20   A    
C32   C58   A    
C39   C41   A    
O15   P6    S    
C64   H89   S    
C74   H74   S    
O5    P2    S    
C82   H87   S    
Ba1   O15   S    
C64   H2    S    
C3    C5    A    
O19   P2    D    
O26   P4    S    
C38   C43   A    
C4    C16   S    
C44   C46   A    
Ba2   O23   S    
C68   H55   S    
C81   H90   S    
C71   H61   S    
C11   H29   S    
C41   H42   S    
C1    C68   S    
C45   H16   S    
C74   C75   S    
C3    C10   A    
C8    C9    A    
C37   C38   A    
C52   C63   S    
C48   O13   D    
C76   C77   S    
C85   H25   S    
C70   H63   S    
C36   N1    Am   
C80   C81   S    
C32   C59   A    
O23   P4    D    
C72   H66   S    
C2    C85   A    
C16   H14   S    
C60   H48   S    
C19   H36   S    
C73   C74   S    
C57   C58   A    
C60   C61   A    
C58   P3    S    
O4    P1    S    
C5    P8    S    
C9    C14   A    
C81   C82   S    
C32   H49   S    
C28   H50   S    
C63   C66   S    
C53   C62   D    
C80   H91   S    
Ba1   P1    S    
C65   H4    S    
C43   C47   A    
C79   H80   S    
C72   H69   S    
C66   H54   S    
C68   H58   S    
C15   C21   A    
C21   C26   A    
Ba2   O4    S    
C54   C80   S    
Ba1   O19   S    
C55   N1    S    
C1    C12   S    
C15   H31   S    
C75   H72   S    
C37   C44   A    
Ba1   O4    S    
C42   C49   A    
C13   C22   S    
C10   C26   S    
C23   H8    S    
C6    C13   A    
C61   N2    S    
C53   P7    S    
C24   C25   A    
Ba2   P4    S    
C4    H22   S    
C20   C22   A    
C66   H53   S    
C56   H17   S    
C29   H38   S    
C82   H86   S    
C62   C83   S    
C18   H33   S    
C52   H45   S    
C50   C51   S    
C56   C72   S    
C39   H44   S    
Ba1   O1    S    
O17   P1    S    
O6    P7    D    
O20   P3    S    
C83   H94   S    
C10   C85   A    
C3    H26   S    
C68   H57   S    
Ba1   O20   S    
C42   C43   A    
C22   C24   A    
Ba2   O5    S    
C70   C71   S    
C82   H85   S    
O3    P5    S    
Ba1   P2    S    
C67   H19   S    
C34   C69   S    
C35   N1    Am   
Ba2   O27   S    
C79   H77   S    
O24   P4    S    
C78   H21   S    
C57   C61   A    
C71   H59   S    
C56   H18   S    
C30   C31   A    
Ba2   O6    S    
C45   O3    S    
C33   C38   A    
C40   H23   S    
C12   H1    S    
C69   C70   S    
C27   C29   A    
C40   H12   S    
C28   O26   S    
O8    P8    D    
Ba2   O25   S    
C77   H82   S    
C84   H96   S    
C74   H73   S    
C83   H93   S    
C46   C47   A    
C78   H24   S    
O18   P6    S    
C31   H39   S    
C15   C17   A    
C12   H7    S    
C72   H68   S    
C64   C65   S    
C67   O9    S    
C77   C79   S    
C59   C60   A    
C33   C39   A    
O9    P8    S    
C49   N2    Am   
C50   C55   D    
C8    H28   S    
C23   C34   S    
C30   C76   S    
Ba1   O5    S    
C7    P6    S    
C5    C11   A    
C18   C19   A    
C84   H98   S    
C70   H62   S    
C66   H52   S    
C12   O18   S    
Ba1   O27   S    
C65   H6    S    
C69   H65   S    
C4    H35   S    
C20   C21   A    
C28   C40   S    
C67   C78   S    
C34   H11   S    
C63   H67   S    
C14   H30   S    
C67   H20   S    
C23   O7    S    
C49   O14   D    
C40   H34   S    
C75   H70   S    
C46   H40   S    
O21   P3    D    
