data_mof_unit_55966.cif
_audit_creation_date              2013-03-05T15:52:42-0500
_audit_creation_method            fapswitch 2.2
_symmetry_space_group_name_H-M    P1
_symmetry_Int_Tables_number       1
_space_group_crystal_system       triclinic
_cell_length_a                    8.262532
_cell_length_b                    17.414194
_cell_length_c                    18.831191
_cell_angle_alpha                 99.423314
_cell_angle_beta                  91.792188
_cell_angle_gamma                 96.295631
_cell_volume                      2653.49852809

loop_
_atom_site_label
_atom_site_type_symbol
_atom_site_description
_atom_site_fract_x
_atom_site_fract_y
_atom_site_fract_z
_atom_type_partial_charge
P1    P     P_3+3 0.048060 0.426210 0.336320 0.467203
O1    O     O_2   0.878040 0.448040 0.325130 -0.337611
O2    O     O_3   0.126800 0.453980 0.414370 -0.408637
O3    O     O_3   0.651020 0.589120 0.368830 -0.383357
O4    O     O_2   0.761030 0.531934 0.242319 -0.372784
O5    O     O_3   0.021110 0.323681 0.321860 -0.589638
O6    O     O_3   0.690490 0.675776 0.255300 -0.530128
H1    H     H_    0.723170 0.734561 0.360094 0.130056
C1    C     C_3   0.665718 0.812751 0.288240 -0.089921
H2    H     H_    0.789038 0.824149 0.267544 0.165126
P2    P     P_3+3 0.655920 0.678120 0.556130 0.473178
P3    P     P_3+3 0.105598 0.731248 0.405501 0.446445
O7    O     O_2   0.830300 0.688050 0.534560 -0.367212
O8    O     O_3   0.068750 0.630380 0.404830 -0.388841
O9    O     O_2   0.979751 0.770929 0.453639 -0.391605
O10   O     O_3   0.667620 0.709337 0.649516 -0.549681
O11   O     O_3   0.058899 0.750148 0.319190 -0.518195
C2    C     C_3   0.116747 0.692424 0.268289 0.442803
H3    H     H_    0.048721 0.633985 0.269591 0.131993
H4    H     H_    0.249140 0.690074 0.278246 0.034619
C3    C     C_3   0.090667 0.712031 0.193284 -0.836232
H5    H     H_    0.958544 0.711397 0.180183 0.268347
H6    H     H_    0.154017 0.770971 0.190493 0.296708
C4    C     C_3   0.224057 0.705010 0.619231 0.391259
H7    H     H_    0.337181 0.680840 0.601901 0.097710
H8    H     H_    0.128593 0.689647 0.574885 0.135779
C5    C     C_3   0.257382 0.793862 0.637788 -0.883378
H9    H     H_    0.358569 0.810714 0.679571 0.273306
H10   H     H_    0.291624 0.819162 0.589432 0.221671
H11   H     H_    0.146297 0.818598 0.658486 0.271848
Ba1   Ba    Ba6+2 0.849550 0.533890 0.465080 1.569532
C6    C     C_3   0.973357 0.295686 0.384161 0.438472
H12   H     H_    0.858265 0.317845 0.401267 0.087699
H13   H     H_    0.068372 0.313611 0.428336 0.137748
C7    C     C_3   0.948808 0.206634 0.366456 -0.935021
H14   H     H_    0.843500 0.187041 0.327134 0.275922
H15   H     H_    0.925961 0.181027 0.415578 0.222338
H16   H     H_    0.060063 0.184672 0.342946 0.268881
C8    C     C_3   0.716395 0.650435 0.684515 0.423716
H17   H     H_    0.840012 0.638406 0.668716 0.086297
H18   H     H_    0.628987 0.596294 0.671628 0.112062
C9    C     C_3   0.720950 0.679446 0.765417 -0.969332
H19   H     H_    0.807205 0.733834 0.779612 0.284007
H20   H     H_    0.761425 0.634777 0.795403 0.197861
H21   H     H_    0.597457 0.691914 0.782158 0.263785
P4    P     P_3+3 0.141640 0.573850 0.663690 0.470400
O12   O     O_2   0.311660 0.551990 0.674910 -0.366981
O13   O     O_3   0.062910 0.546080 0.585630 -0.409100
O14   O     O_3   0.538690 0.410940 0.631180 -0.362790
O15   O     O_3   0.172419 0.676421 0.680862 -0.575006
P5    P     P_3+3 0.089077 0.267109 0.594109 0.517144
O16   O     O_3   0.620260 0.406250 0.463620 -0.397223
O17   O     O_3   0.120960 0.369680 0.595180 -0.317753
O18   O     O_2   0.199001 0.230963 0.536134 -0.383640
O19   O     O_3   0.174405 0.240287 0.672385 -0.569417
Ba2   Ba    Ba6+2 0.340280 0.466170 0.534930 1.591695
P6    P     P_3+3 0.631096 0.582543 0.275631 0.456674
C10   C     C_3   0.644104 0.732147 0.310822 0.295976
H22   H     H_    0.514823 0.718745 0.323597 0.014555
H23   H     H_    0.655333 0.858119 0.336289 0.078813
O20   O     O_3   0.569440 0.593820 0.536390 -0.406666
C11   C     C_3   0.465637 0.338996 0.315288 0.429684
H24   H     H_    0.368483 0.367069 0.345598 0.082140
H25   H     H_    0.569838 0.384046 0.311885 0.133228
C12   C     C_3   0.395343 0.304833 0.239587 -0.834548
H26   H     H_    0.279983 0.266583 0.242652 0.239537
H27   H     H_    0.370508 0.352528 0.209779 0.210935
H28   H     H_    0.482110 0.269208 0.209392 0.314261
P7    P     P_3+3 0.538236 0.307756 0.441012 0.447288
O21   O     O_2   0.359400 0.311980 0.465480 -0.356711
O22   O     O_3   0.519630 0.278440 0.347393 -0.555227
H29   H     H_    0.140354 0.668240 0.152771 0.210991
C13   C     C_3   0.060132 0.236814 0.726205 0.656160
H30   H     H_    0.935073 0.217534 0.702271 -0.012726
C14   C     C_3   0.100253 0.177109 0.775626 -0.245720
H31   H     H_    0.211124 0.201696 0.809905 0.126618
P8    P     P_3+3 0.554234 0.421193 0.725000 0.526815
C15   C     C_3   0.618191 0.279014 0.732791 0.106420
H32   H     H_    0.702916 0.287129 0.781068 0.169685
O23   O     O_2   0.416382 0.468503 0.754265 -0.338742
O24   O     O_3   0.496379 0.329149 0.747935 -0.467377
H33   H     H_    0.689334 0.290731 0.685663 0.052164
C16   C     C_3   0.533597 0.194296 0.718386 -0.109389
H34   H     H_    0.429774 0.192757 0.753299 0.126837
C17   C     C_R   0.986970 0.471688 0.048242 -0.109300
C18   C     C_R   0.906035 0.418893 0.089658 0.289859
C19   C     C_R   0.754561 0.465640 0.958986 -0.112328
C20   C     C_R   0.921891 0.483229 0.979829 0.077997
C21   C     C_R   0.698217 0.462138 0.887990 -0.161586
C22   C     C_R   0.804756 0.482315 0.835914 -0.007375
C23   C     C_R   0.966931 0.514497 0.858380 0.068486
C24   C     C_R   0.025468 0.515629 0.930986 0.063542
C25   C     C_R   0.754150 0.472241 0.762214 0.174384
C26   C     C_R   0.862236 0.497030 0.712528 -0.421147
C27   C     C_R   0.018194 0.534550 0.734062 0.284585
C28   C     C_R   0.070731 0.544768 0.808207 0.003303
C29   C     C_R   0.146114 0.507290 0.072572 0.023266
C30   C     C_R   0.206824 0.503523 0.143972 0.021811
C31   C     C_R   0.111968 0.461273 0.190080 -0.139972
C32   C     C_R   0.972216 0.411518 0.158144 -0.181471
H35   H     H_    0.823454 0.487979 0.656067 0.152398
H36   H     H_    0.569991 0.443946 0.874750 0.193222
C33   C     C_R   0.223332 0.584152 0.834094 -0.068100
C34   C     C_R   0.280786 0.585374 0.904661 -0.191133
C35   C     C_R   0.186635 0.548665 0.953963 0.064648
C36   C     C_R   0.246413 0.545683 0.025506 0.073185
C37   C     C_R   0.406568 0.576966 0.050752 -0.186639
C38   C     C_R   0.365932 0.539555 0.168155 -0.007964
C39   C     C_R   0.464361 0.573821 0.119986 -0.077978
C40   C     C_R   0.423019 0.540061 0.239736 0.187643
C41   C     C_R   0.319436 0.508702 0.287482 -0.516399
C42   C     C_R   0.166656 0.468030 0.264728 0.227554
H37   H     H_    0.302254 0.613931 0.800114 0.160196
H38   H     H_    0.588612 0.598741 0.134774 0.184026
H39   H     H_    0.361829 0.512953 0.343088 0.177991
H40   H     H_    0.664057 0.455198 0.997369 0.172044
H41   H     H_    0.400816 0.615932 0.918475 0.128730
H42   H     H_    0.492814 0.604149 0.018167 0.134983
H43   H     H_    0.486129 0.136996 0.444026 0.166635
H44   H     H_    0.301566 0.888045 0.426053 0.171275
C43   C     C_R   0.407524 0.716844 0.468188 -0.528478
C44   C     C_R   0.555451 0.744336 0.506430 0.316938
C45   C     C_R   0.616240 0.823981 0.513127 -0.237056
C46   C     C_R   0.527342 0.875919 0.482468 0.016182
C47   C     C_R   0.374513 0.848060 0.447150 -0.228575
C48   C     C_R   0.313770 0.768687 0.441218 0.229446
C49   C     C_R   0.594781 0.161077 0.477458 -0.259643
C50   C     C_R   0.641572 0.242265 0.489798 0.264460
C51   C     C_R   0.881513 0.224371 0.560045 0.168578
C52   C     C_R   0.835619 0.142968 0.547526 -0.196263
C53   C     C_R   0.689539 0.111177 0.507844 0.053620
C54   C     C_1   0.636431 0.027736 0.498052 0.108856
C55   C     C_1   0.588204 0.958431 0.490683 0.057620
C56   C     C_R   0.780658 0.273551 0.533432 -0.475818
H45   H     H_    0.915299 0.104593 0.566602 0.205464
H46   H     H_    0.730239 0.845660 0.543458 0.178867
H47   H     H_    0.359614 0.655822 0.464037 0.175990
H48   H     H_    0.818559 0.335970 0.541039 0.167295
N1    N     N_R   0.541819 0.818118 0.232901 0.267451
O25   O     O_R   0.540582 0.775434 0.169302 -0.362637
O26   O     O_R   0.435777 0.867963 0.246012 -0.381847
N2    N     N_R   0.064637 0.314779 0.768698 0.243833
O27   O     O_R   0.981196 0.363718 0.743629 -0.478753
O28   O     O_R   0.181972 0.342041 0.816984 -0.328705
N3    N     N_R   0.970102 0.164223 0.825170 0.278027
O29   O     O_R   0.932184 0.094940 0.841702 -0.273768
O30   O     O_R   0.918761 0.224069 0.865133 -0.300241
C57   C     C_2   0.135386 0.100138 0.732453 0.674792
H49   H     H_    0.239981 0.072916 0.748050 0.049610
O31   O     O_2   0.044520 0.066236 0.682060 -0.526561
N4    N     N_R   0.638587 0.137847 0.737730 0.253173
O32   O     O_R   0.611839 0.108987 0.796358 -0.284175
O33   O     O_R   0.725008 0.101342 0.689500 -0.368055
C58   C     C_2   0.465912 0.171187 0.641974 0.622175
H50   H     H_    0.466628 0.214715 0.607008 0.060891
O34   O     O_2   0.402492 0.104531 0.619809 -0.556794
C59   C     C_2   0.922021 0.337876 0.184644 0.755406
H51   H     H_    0.011147 0.297430 0.189238 -0.005076
O35   O     O_2   0.782406 0.321643 0.201100 -0.542294
N5    N     N_R   0.775385 0.361242 0.057151 0.227111
O36   O     O_R   0.632151 0.358905 0.084156 -0.371336
O37   O     O_R   0.800818 0.309829 0.001483 -0.303876

loop_
_geom_bond_atom_site_label_1
_geom_bond_atom_site_label_2
_geom_bond_distance
_ccdc_geom_bond_type
O5    C6    1.394216 S    
C19   C20   1.411800 A    
C59   H51   1.084254 S    
C21   H36   1.081204 S    
C5    H10   1.106118 S    
C2    C3    1.520855 S    
N1    O26   1.300859 A    
C13   H30   1.108522 S    
Ba1   O20   2.917908 S    
C41   C42   1.396232 A    
C4    C5    1.521674 S    
Ba1   O16   2.753857 S    
N3    O29   1.302672 A    
P5    C51   1.844330 S    
C45   C46   1.407505 A    
C8    H18   1.110938 S    
C16   C58   1.501966 S    
C17   C18   1.425939 A    
C14   N3    1.468201 S    
C25   C26   1.399759 A    
C46   C55   1.450965 S    
C33   H37   1.078975 S    
C4    H8    1.109262 S    
C2    H3    1.111648 S    
P1    C42   1.885672 S    
P8    O23   1.541492 D    
P3    C48   1.836865 S    
C36   C37   1.411241 A    
P1    Ba1   3.394126 S    
C30   C38   1.420367 A    
C38   C39   1.398992 A    
C2    H4    1.110380 S    
P1    O1    1.512350 D    
P2    O10   1.749921 S    
C43   H47   1.081975 S    
P7    O22   1.750253 S    
C40   C41   1.394817 A    
C11   H25   1.110225 S    
O16   P7    1.752248 S    
H1    C10   1.110288 S    
C23   C28   1.421520 A    
C1    N1    1.459061 S    
C15   C16   1.539344 S    
P4    C27   1.869030 S    
C20   C24   1.417743 A    
P7    C50   1.838815 S    
C38   C40   1.412442 A    
C54   C55   1.212800 T    
C12   H27   1.108996 S    
P3    O11   1.750065 S    
N4    O32   1.301138 A    
Ba1   Ba2   4.558980 S    
C18   C32   1.415731 A    
C1    H2    1.111459 S    
O8    Ba1   2.734277 S    
O6    C10   1.405412 S    
C58   O34   1.220837 D    
P2    Ba1   3.383855 S    
C59   O35   1.219103 D    
C3    H5    1.110111 S    
C5    H11   1.110860 S    
C37   C39   1.386007 A    
C26   C27   1.395621 A    
C9    H20   1.106724 S    
C32   C59   1.473595 S    
C34   C35   1.416404 A    
N3    O30   1.300970 A    
C29   C30   1.434457 A    
C8    C9    1.522455 S    
C16   N4    1.461519 S    
C13   N2    1.454756 S    
C4    O15   1.396587 S    
P4    O13   1.567236 S    
C3    H29   1.108987 S    
P1    O5    1.749681 S    
C6    C7    1.521394 S    
C7    H16   1.111036 S    
C57   H49   1.085087 S    
C26   H35   1.081996 S    
C8    H17   1.105050 S    
C15   H32   1.110376 S    
C10   H22   1.110475 S    
O1    Ba1   2.839321 S    
P1    O2    1.567101 S    
C9    H21   1.110843 S    
C6    H13   1.107306 S    
O3    P6    1.741382 S    
C14   H31   1.107106 S    
C11   H24   1.110191 S    
C50   C56   1.396313 A    
C19   H40   1.077828 S    
O2    Ba2   2.796454 S    
C15   H33   1.113736 S    
C16   H34   1.097654 S    
P3    O9    1.546576 D    
P8    O24   1.748084 S    
C12   H28   1.108918 S    
O11   C2    1.405770 S    
C58   H50   1.082069 S    
C4    H7    1.103486 S    
O2    Ba1   2.914942 S    
C43   C44   1.394778 A    
C39   H38   1.079198 S    
C29   C36   1.427513 A    
C52   H45   1.081372 S    
P3    O8    1.747415 S    
C12   H26   1.110112 S    
Ba2   O21   2.810900 S    
Ba1   O13   2.795716 S    
C3    H6    1.109847 S    
C47   C48   1.403093 A    
N2    O28   1.301776 A    
P2    C44   1.846456 S    
C9    H19   1.110658 S    
C13   C14   1.558894 S    
C49   C50   1.403307 A    
C23   C24   1.432280 A    
C17   C20   1.433325 A    
C22   C25   1.414085 A    
C51   C52   1.405686 A    
O17   Ba2   2.734880 S    
O13   Ba2   2.915731 S    
P4    O15   1.750954 S    
P4    O12   1.512634 D    
C1    C10   1.525843 S    
C37   H42   1.075596 S    
C11   C12   1.522552 S    
C7    H15   1.103496 S    
H44   C47   1.083339 S    
O7    Ba1   2.810803 S    
C57   O31   1.219643 D    
P2    O20   1.542229 S    
C56   H48   1.082436 S    
N1    O25   1.301166 A    
P6    C40   1.855962 S    
C14   C57   1.511663 S    
O14   Ba2   2.761973 S    
C35   C36   1.431303 A    
C34   H41   1.075744 S    
C31   C32   1.418539 A    
O4    P6    1.546413 D    
C45   H46   1.083382 S    
C1    H23   1.111691 S    
C6    H12   1.102686 S    
P5    O18   1.541241 D    
C19   C21   1.391395 A    
C52   C53   1.408290 A    
C44   C45   1.406349 A    
C43   C48   1.397132 A    
N5    O36   1.301820 A    
P2    O7    1.508581 D    
C15   O24   1.409145 S    
C22   C23   1.418033 A    
C31   C42   1.445164 A    
P8    C25   1.846998 S    
O14   P8    1.745631 S    
C11   O22   1.404163 S    
P5    O19   1.766532 S    
N4    O33   1.299969 A    
P7    O21   1.567305 D    
C49   C53   1.406959 A    
O3    Ba1   2.762581 S    
C17   C29   1.419103 A    
O10   C8    1.394394 S    
C51   C56   1.396430 A    
O19   C13   1.410579 S    
O16   Ba2   2.916933 S    
C24   C35   1.416306 A    
C30   C31   1.426435 A    
C28   C33   1.400087 A    
P4    Ba2   3.394737 S    
C33   C34   1.393111 A    
N2    O27   1.290237 A    
Ba2   O20   2.753342 S    
O12   Ba2   2.839782 S    
C41   H39   1.081971 S    
C7    H14   1.110705 S    
P5    O17   1.773395 S    
C21   C22   1.399658 A    
C18   N5    1.437936 S    
O6    P6    1.750418 S    
C27   C28   1.425967 A    
C53   C54   1.450963 S    
N5    O37   1.300920 A    
C46   C47   1.407011 A    
C5    H9    1.110708 S    
H43   C49   1.083408 S    
