data_mof_unit_64120.cif
_audit_creation_date              2012-12-10T18:28:15-0500
_audit_creation_method            fapswitch 2.2
_symmetry_space_group_name_H-M    P1
_symmetry_Int_Tables_number       1
_space_group_crystal_system       triclinic
_cell_length_a                    16.068797
_cell_length_b                    17.213591
_cell_length_c                    23.550577
_cell_angle_alpha                 90.256924
_cell_angle_beta                  92.788472
_cell_angle_gamma                 97.372039
_cell_volume                      6452.25551162

loop_
_atom_site_label
_atom_site_type_symbol
_atom_type_description
_atom_site_fract_x
_atom_site_fract_y
_atom_site_fract_z
_atom_type_partial_charge
C1    C     C_R   0.488659 0.349790 0.500545 0.833122
C2    C     C_R   0.511337 0.650237 0.501455 0.835698
C3    C     C_R   0.575084 0.527094 0.241370 0.106342
C4    C     C_R   0.423101 0.485225 0.759191 0.101166
C5    C     C_R   0.574644 0.526894 0.300707 0.568399
C6    C     C_R   0.423233 0.485219 0.699666 0.484442
C7    C     C_R   0.500408 0.500257 0.328270 -0.355328
C8    C     C_R   0.499624 0.499971 0.671951 -0.323047
C9    C     C_R   0.426637 0.473871 0.295176 0.537466
C10   C     C_R   0.575620 0.514608 0.705148 0.540524
C11   C     C_R   0.427312 0.474096 0.236052 -0.176178
C12   C     C_R   0.574982 0.514496 0.764273 -0.220139
C13   C     C_R   0.500959 0.500474 0.208980 0.095013
C14   C     C_R   0.499231 0.500023 0.791376 0.165382
C15   C     C_R   0.481514 0.265278 0.506406 -0.071708
C16   C     C_R   0.518517 0.734863 0.507933 -0.083686
C17   C     C_R   0.519689 0.232588 0.553889 0.147485
C18   C     C_R   0.478265 0.768039 0.551871 0.144350
C19   C     C_R   0.512348 0.150956 0.559338 0.093349
C20   C     C_R   0.486077 0.849677 0.558141 0.103514
C21   C     C_R   0.468745 0.102511 0.515852 0.098427
C22   C     C_R   0.532460 0.897738 0.518953 0.080158
C23   C     C_R   0.500067 0.500016 0.390988 0.885151
C24   C     C_R   0.499936 0.500035 0.609089 0.903116
C25   C     C_R   0.427771 0.136074 0.469786 0.172986
C26   C     C_R   0.575690 0.863841 0.476573 0.184426
C27   C     C_R   0.433966 0.217411 0.465565 -0.296385
C28   C     C_R   0.568523 0.782266 0.471603 -0.272275
C29   C     C_2   0.465347 0.016998 0.517633 -0.172191
C30   C     C_2   0.535797 0.983284 0.521267 -0.197270
C31   C     C_R   0.746312 0.459746 0.473645 0.056775
C32   C     C_R   0.253757 0.540218 0.526432 0.060968
C33   C     C_R   0.832688 0.456911 0.476986 0.540340
C34   C     C_R   0.167384 0.543059 0.523175 0.536477
C35   C     C_R   0.884143 0.507618 0.514966 -0.000219
C36   C     C_R   0.115864 0.492388 0.485206 0.001553
C37   C     C_R   0.846538 0.558602 0.549386 -0.304978
C38   C     C_R   0.153393 0.441388 0.450749 -0.305217
C39   C     C_R   0.759604 0.559149 0.544730 0.115481
C40   C     C_R   0.240325 0.440825 0.455325 0.106327
C41   C     C_2   0.976077 0.506436 0.521881 -0.075477
C42   C     C_2   0.023940 0.493624 0.478316 -0.072619
C43   C     C_R   0.480215 0.564839 0.880065 0.675154
C44   C     C_R   0.519565 0.435515 0.120329 0.636598
C45   C     C_R   0.519909 0.435770 0.880913 0.659266
C46   C     C_R   0.479835 0.564565 0.119472 0.637695
C47   C     C_R   0.520409 0.434165 0.940632 -0.207385
C48   C     C_R   0.479283 0.566156 0.059757 -0.203739
C49   C     C_R   0.499919 0.500202 0.970166 -0.165090
C50   C     C_R   0.499762 0.500111 0.030225 -0.162649
C51   C     C_R   0.479586 0.566330 0.939753 -0.210267
C52   C     C_R   0.520056 0.433964 0.060638 -0.203324
C53   C     C_R   0.540527 0.368590 0.971481 0.583404
C54   C     C_R   0.459082 0.631696 0.028910 0.584787
C55   C     C_R   0.540330 0.368484 0.030665 0.584120
C56   C     C_R   0.459244 0.631789 0.969727 0.582607
Cu1   Cu    Cu3+1 0.415410 0.495980 0.497100 1.022569
Cu2   Cu    Cu3+1 0.584590 0.504020 0.502900 1.021267
H1    H     H_    0.706313 0.420224 0.445082 0.166163
H2    H     H_    0.293803 0.579685 0.555003 0.175182
H3    H     H_    0.269634 0.402059 0.428556 0.179380
H4    H     H_    0.730231 0.597870 0.571496 0.174928
H5    H     H_    0.995092 0.482067 0.436002 0.210083
H6    H     H_    0.004917 0.518008 0.564195 0.208999
H7    H     H_    0.884185 0.597593 0.579637 0.192388
H8    H     H_    0.115685 0.402398 0.420526 0.193584
H9    H     H_    0.370392 0.453462 0.211004 0.198845
H10   H     H_    0.633664 0.525992 0.789310 0.199432
H11   H     H_    0.600640 0.755513 0.438707 0.173291
H12   H     H_    0.403267 0.243251 0.429651 0.168924
H13   H     H_    0.596572 0.018940 0.520226 0.167260
H14   H     H_    0.404898 0.981366 0.510071 0.182590
N1    N     N_R   0.499930 0.500268 0.852265 -0.448172
N2    N     N_R   0.500094 0.500173 0.148109 -0.465123
N3    N     N_R   0.711660 0.510070 0.507250 -0.225688
N4    N     N_R   0.288340 0.489930 0.492750 -0.227274
O1    O     O_R   0.420280 0.382610 0.497280 -0.586568
O2    O     O_R   0.579720 0.617390 0.502720 -0.589060
O3    O     O_R   0.563150 0.389410 0.502170 -0.579899
O4    O     O_R   0.436850 0.610590 0.497830 -0.577330
O5    O     O_R   0.428550 0.496580 0.415430 -0.535725
O6    O     O_R   0.571450 0.503420 0.584570 -0.529945
O7    O     O_R   0.571420 0.503370 0.420330 -0.541255
O8    O     O_R   0.428580 0.496630 0.579670 -0.528892
O9    O     O_2   0.461494 0.627206 0.849782 -0.430957
O10   O     O_2   0.538504 0.373257 0.150648 -0.428811
O11   O     O_2   0.538743 0.373480 0.851431 -0.429967
O12   O     O_2   0.460594 0.626679 0.148967 -0.427433
F1    F     F_    0.560595 0.303912 0.944773 -0.541285
F2    F     F_    0.439019 0.696373 0.055623 -0.540133
N5    N     N_3   0.381514 0.087405 0.426469 -0.562566
H15   H     H_    0.407750 0.102010 0.387553 0.249353
H16   H     H_    0.319762 0.100713 0.424223 0.234993
N6    N     N_3   0.624589 0.912653 0.437721 -0.544325
H17   H     H_    0.678226 0.939296 0.460522 0.220082
H18   H     H_    0.645663 0.878629 0.405827 0.240828
N7    N     N_3   0.450032 0.882122 0.606067 -0.576991
H19   H     H_    0.400048 0.911389 0.592019 0.231004
H20   H     H_    0.495895 0.921815 0.627355 0.239918
N8    N     N_3   0.545743 0.118969 0.610505 -0.579603
H21   H     H_    0.596977 0.090393 0.601247 0.228797
H22   H     H_    0.499157 0.078786 0.627272 0.241227
F3    F     F_    0.135930 0.597828 0.554504 -0.664968
F4    F     F_    0.864209 0.402110 0.445729 -0.661469
F5    F     F_    0.560245 0.303723 0.058242 -0.540199
F6    F     F_    0.439261 0.696528 0.942151 -0.541553
N9    N     N_3   0.651265 0.554808 0.214595 -0.475575
H23   H     H_    0.639989 0.601568 0.188383 0.243819
H24   H     H_    0.667092 0.509733 0.188956 0.246002
N10   N     N_3   0.345814 0.469694 0.787377 -0.519085
H25   H     H_    0.307161 0.511348 0.774245 0.275399
H26   H     H_    0.316254 0.414519 0.774061 0.264958
F7    F     F_    0.646627 0.554096 0.331076 -0.607346
F8    F     F_    0.348611 0.469973 0.669496 -0.636046
F9    F     F_    0.354061 0.446514 0.319722 -0.637684
F10   F     F_    0.650788 0.529829 0.680834 -0.631489
N11   N     N_3   0.563997 0.282855 0.597221 -0.553452
H27   H     H_    0.535187 0.270907 0.635639 0.254500
H28   H     H_    0.625611 0.269460 0.601703 0.256173
N12   N     N_3   0.431347 0.718245 0.590987 -0.571896
H29   H     H_    0.458094 0.730146 0.631962 0.254814
H30   H     H_    0.369817 0.732106 0.589837 0.258115

loop_
_geom_bond_atom_site_label_1
_geom_bond_atom_site_label_2
_ccdc_geom_bond_type
C16   C28   A    
C26   N6    S    
C33   F4    S    
C1    O1    A    
C41   C42   D    
C36   C42   S    
C28   H11   S    
C30   H13   S    
C47   C49   A    
C48   C54   A    
C12   H10   S    
C23   O7    A    
C55   F5    S    
Cu1   N4    S    
C35   C37   A    
C54   F2    S    
N11   H28   S    
C45   N1    A    
C51   C56   A    
C45   C47   A    
C31   H1    S    
C24   O6    A    
N10   H25   S    
C6    F8    S    
C21   C25   A    
C8    C24   S    
C31   N3    A    
C43   N1    A    
C20   N7    S    
C38   H8    S    
N12   H30   S    
C49   C51   A    
C37   H7    S    
C50   C52   A    
N9    H23   S    
C31   C33   A    
C1    C15   S    
C39   N3    A    
C2    C16   S    
C18   C20   A    
C3    C13   A    
C52   C55   A    
C17   N11   S    
C47   C53   A    
C29   H14   S    
C5    F7    S    
C44   C52   A    
C48   C50   A    
N9    H24   S    
Cu1   O4    S    
C44   O10   S    
N7    H20   S    
C11   H9    S    
Cu2   N3    S    
N7    H19   S    
C46   O12   S    
C53   C55   A    
C46   C48   A    
C25   N5    S    
C43   O9    S    
C14   N1    S    
Cu1   O1    S    
C4    C6    A    
N5    H15   S    
C5    C7    A    
C17   C19   A    
C6    C8    A    
C3    N9    S    
C21   C29   S    
C40   H3    S    
C40   N4    A    
C9    F9    S    
N6    H18   S    
C29   C30   D    
C2    O2    A    
N5    H16   S    
C15   C27   A    
N8    H22   S    
Cu1   O8    S    
C44   N2    A    
C9    C11   A    
C56   F6    S    
C27   H12   S    
C10   C12   A    
Cu2   O3    S    
C16   C18   A    
C12   C14   A    
C53   F1    S    
C1    O3    A    
Cu1   O5    S    
C32   H2    S    
C18   N12   S    
C46   N2    A    
C10   F10   S    
N12   H29   S    
C7    C9    A    
C39   H4    S    
C4    N10   S    
C23   O5    A    
C45   O11   S    
C20   C22   A    
C3    C5    A    
C32   N4    A    
C19   N8    S    
C54   C56   A    
C15   C17   A    
C25   C27   A    
C26   C28   A    
C34   F3    S    
Cu2   O6    S    
C24   O8    A    
C37   C39   A    
C22   C30   S    
N11   H27   S    
C38   C40   A    
C11   C13   A    
C43   C51   A    
Cu1   Cu2   S    
C7    C23   S    
C36   C38   A    
N8    H21   S    
C33   C35   A    
C34   C36   A    
C4    C14   A    
N6    H17   S    
C35   C41   S    
N10   H26   S    
C2    O4    A    
Cu2   O2    S    
C13   N2    S    
C8    C10   A    
C49   C50   A    
C22   C26   A    
C41   H6    S    
Cu2   O7    S    
C42   H5    S    
C32   C34   A    
C19   C21   A    
