data_mof_unit_45509.cif
_audit_creation_date              2012-12-10T16:44:39-0500
_audit_creation_method            fapswitch 2.2
_symmetry_space_group_name_H-M    P1
_symmetry_Int_Tables_number       1
_space_group_crystal_system       triclinic
_cell_length_a                    14.996795
_cell_length_b                    8.694766
_cell_length_c                    7.510322
_cell_angle_alpha                 102.60846
_cell_angle_beta                  94.827048
_cell_angle_gamma                 93.566034
_cell_volume                      949.01818289

loop_
_atom_site_label
_atom_site_type_symbol
_atom_type_description
_atom_site_fract_x
_atom_site_fract_y
_atom_site_fract_z
_atom_type_partial_charge
C1    C     C_R   0.495728 0.200420 0.454790 0.845882
C2    C     C_R   0.504272 0.799580 0.545210 0.845883
C3    C     C_R   0.036869 0.221280 0.363919 -0.212222
C4    C     C_R   0.963131 0.778720 0.636085 -0.212222
C5    C     C_2   0.480354 0.034256 0.436275 0.046513
C6    C     C_2   0.519646 0.965744 0.563724 0.046512
C7    C     C_R   0.329527 0.501401 0.501602 0.791295
C8    C     C_R   0.670473 0.498599 0.498398 0.791294
C9    C     C_R   0.819551 0.632017 0.568188 -0.185303
C10   C     C_R   0.180449 0.367982 0.431815 -0.185303
C11   C     C_R   0.766462 0.492918 0.494522 -0.070004
C12   C     C_R   0.233538 0.507082 0.505479 -0.070005
C13   C     C_R   0.804112 0.351627 0.420289 -0.095358
C14   C     C_R   0.195888 0.648373 0.579709 -0.095357
C15   C     C_R   0.899218 0.350168 0.424857 0.026037
C16   C     C_R   0.100782 0.649832 0.575144 0.026037
C17   C     C_R   0.952758 0.496227 0.497975 0.050034
C18   C     C_R   0.047242 0.503773 0.502027 0.050034
C19   C     C_R   0.911908 0.635562 0.567837 0.104142
C20   C     C_R   0.088092 0.364438 0.432166 0.104141
C21   C     C_R   0.943859 0.211331 0.360830 -0.043955
C22   C     C_R   0.056141 0.788668 0.639172 -0.043956
Cu1   Cu    Cu3+1 0.510010 0.517380 0.684380 1.132581
Cu2   Cu    Cu3+1 0.489990 0.482620 0.315620 1.132581
H1    H     H_    0.788099 0.739081 0.623414 0.162779
H2    H     H_    0.211901 0.260918 0.376590 0.162779
H3    H     H_    0.070105 0.115001 0.313814 0.159484
H4    H     H_    0.929895 0.884999 0.686191 0.159484
N1    N     N_2   0.474890 0.456420 0.038520 0.071122
N2    N     N_2   0.525110 0.543580 0.961480 0.071122
O1    O     O_R   0.506510 0.286130 0.619770 -0.552442
O2    O     O_R   0.493490 0.713870 0.380230 -0.552442
O3    O     O_R   0.489600 0.256770 0.308360 -0.533603
O4    O     O_R   0.510400 0.743230 0.691640 -0.533603
O5    O     O_R   0.378710 0.514640 0.655720 -0.561859
O6    O     O_R   0.621290 0.485360 0.344280 -0.561860
O7    O     O_R   0.361800 0.485290 0.344300 -0.556697
O8    O     O_R   0.638200 0.514710 0.655700 -0.556697
C23   C     C_1   0.742917 0.213106 0.340798 0.282537
N3    N     N_1   0.693180 0.103844 0.277562 -0.184537
C24   C     C_1   0.257083 0.786895 0.659193 0.282538
N4    N     N_1   0.306819 0.896158 0.722423 -0.184544
C25   C     C_1   0.899388 0.054177 0.295213 0.250072
N5    N     N_1   0.864950 0.927491 0.242769 -0.229073
C26   C     C_1   0.100612 0.945822 0.704792 0.250072
N6    N     N_1   0.135050 0.072509 0.757238 -0.229072
Br1   Br    Br    0.387297 0.931008 0.244894 -0.420464
Br2   Br    Br    0.612703 0.068992 0.755105 -0.420465
Br3   Br    Br    0.385854 0.303800 0.903430 -0.276954
Br4   Br    Br    0.614146 0.696199 0.096569 -0.276956

loop_
_geom_bond_atom_site_label_1
_geom_bond_atom_site_label_2
_ccdc_geom_bond_type
C25   N5    T    
Cu2   O2    S    
N1    N2    D    
Cu1   O8    S    
C4    C22   A    
C24   N4    T    
C18   C20   A    
Cu2   O3    S    
C8    C11   S    
Cu1   Cu2   S    
Cu1   O4    S    
C10   H2    S    
C3    H3    S    
Cu2   O7    S    
N2    Br4   S    
C1    O3    A    
C3    C20   A    
N1    Br3   S    
C26   N6    T    
C9    C11   A    
C2    O4    A    
Cu2   O6    S    
C15   C21   A    
C8    O8    A    
C14   C24   S    
C1    C5    S    
C10   C12   A    
C16   C18   A    
C17   C19   A    
C12   C14   A    
C17   C18   A    
Cu1   O5    S    
C13   C15   A    
C7    O7    A    
C5    C6    D    
C14   C16   A    
C7    C12   S    
C3    C21   A    
C11   C13   A    
C13   C23   S    
C9    H1    S    
Cu1   O1    S    
C5    Br1   S    
Cu1   N2    S    
C1    O1    A    
C22   C26   S    
C2    O2    A    
C8    O6    A    
C23   N3    T    
C15   C17   A    
Cu2   N1    S    
C16   C22   A    
C4    H4    S    
C21   C25   S    
C4    C19   A    
C7    O5    A    
C9    C19   A    
C2    C6    S    
C10   C20   A    
C6    Br2   S    
