data_mof_unit_42224.cif
_audit_creation_date              2013-03-05T16:11:29-0500
_audit_creation_method            fapswitch 2.2
_symmetry_space_group_name_H-M    P1
_symmetry_Int_Tables_number       1
_space_group_crystal_system       triclinic
_cell_length_a                    9.411507
_cell_length_b                    10.73165
_cell_length_c                    17.306187
_cell_angle_alpha                 90.051604
_cell_angle_beta                  85.853642
_cell_angle_gamma                 90.024637
_cell_volume                      1743.36630373

loop_
_atom_site_label
_atom_site_type_symbol
_atom_site_description
_atom_site_fract_x
_atom_site_fract_y
_atom_site_fract_z
_atom_type_partial_charge
O1    O     O_R   0.379740 0.682430 0.499960 -0.600813
O2    O     O_R   0.620260 0.682190 0.500020 -0.582361
C1    C     C_R   0.499870 0.740264 0.499859 0.788214
O3    O     O_R   0.365800 0.500150 0.613560 -0.600770
O4    O     O_R   0.606310 0.499910 0.613620 -0.559347
C2    C     C_R   0.481130 0.501863 0.649987 0.874134
Cu1   Cu    Cu3+1 0.357600 0.500140 0.499960 0.896738
Cu2   Cu    Cu3+1 0.642400 0.499860 0.500040 0.919875
O5    O     O_R   0.379740 0.317810 0.499980 -0.600209
O6    O     O_R   0.620260 0.317570 0.500040 -0.602584
O7    O     O_R   0.393690 0.500090 0.386380 -0.595862
O8    O     O_R   0.634200 0.499850 0.386440 -0.594742
C3    C     C_R   0.499732 0.259791 0.499833 0.757685
C4    C     C_R   0.518670 0.496365 0.350078 0.787898
C5    C     C_R   0.468749 0.498330 0.734699 -0.198458
C6    C     C_R   0.573818 0.550661 0.779045 0.337057
C7    C     C_R   0.562516 0.534348 0.859107 -0.256821
C8    C     C_R   0.447338 0.469366 0.895970 0.110541
C9    C     C_R   0.340059 0.420002 0.851929 0.222966
C10   C     C_R   0.352141 0.435383 0.771656 -0.257219
C11   C     C_R   0.415324 0.421610 0.150318 -0.148637
C12   C     C_R   0.407870 0.440089 0.229780 -0.216133
C13   C     C_R   0.657326 0.499408 0.221892 -0.206344
C14   C     C_R   0.664354 0.482113 0.141891 -0.164341
C15   C     C_R   0.542633 0.445887 0.105518 0.190661
C16   C     C_2   0.436027 0.462770 0.980803 -0.195033
C17   C     C_2   0.549784 0.438446 0.020651 -0.236226
C18   C     C_R   0.528184 0.480490 0.266037 -0.028749
H1    H     H_    0.308072 0.421219 0.262902 0.139330
H2    H     H_    0.751973 0.528939 0.248959 0.135589
H3    H     H_    0.652832 0.421241 0.989971 0.156381
H4    H     H_    0.321315 0.388053 0.124394 0.120070
H5    H     H_    0.271597 0.394708 0.737591 0.166595
H6    H     H_    0.333480 0.484274 0.010443 0.153606
H7    H     H_    0.641096 0.577667 0.893243 0.180831
H8    H     H_    0.763770 0.499955 0.108158 0.124797
C19   C     C_3   0.344427 0.928653 0.498487 -0.377077
H9    H     H_    0.277962 0.894279 0.549956 0.168541
H10   H     H_    0.294930 0.894712 0.445844 0.159158
C20   C     C_3   0.344280 0.071321 0.498824 -0.376418
H11   H     H_    0.293900 0.105695 0.446599 0.158220
H12   H     H_    0.278553 0.105071 0.550739 0.161471
H13   H     H_    0.501576 0.894147 0.626012 0.188081
H14   H     H_    0.503087 0.107380 0.626071 0.157722
C21   C     C_3   0.564362 0.928454 0.573324 -0.329106
C22   C     C_3   0.587473 0.928092 0.427120 -0.388113
C23   C     C_3   0.499112 0.878274 0.499687 0.134491
H15   H     H_    0.699284 0.894106 0.426510 0.159713
H16   H     H_    0.542195 0.892885 0.373586 0.152128
C24   C     C_3   0.498929 0.121895 0.499687 0.164632
C25   C     C_3   0.564785 0.072233 0.573201 -0.398025
C26   C     C_3   0.586989 0.071972 0.426988 -0.375873
H17   H     H_    0.540927 0.106474 0.373545 0.151875
H18   H     H_    0.698627 0.106603 0.425972 0.159626
H19   H     H_    0.675487 0.894021 0.575790 0.194084
H20   H     H_    0.676173 0.106361 0.575226 0.166766
C27   C     C_3   0.917780 0.374010 0.480386 -0.194259
H21   H     H_    0.885374 0.341798 0.423104 0.140248
H22   H     H_    0.873932 0.305472 0.524006 0.140489
C28   C     C_3   0.085235 0.372285 0.480550 -0.195328
H23   H     H_    0.116002 0.302833 0.523974 0.138248
H24   H     H_    0.132487 0.340003 0.423205 0.135811
H25   H     H_    0.894756 0.561587 0.381072 0.142034
H26   H     H_    0.138706 0.559744 0.381563 0.144262
C29   C     C_3   0.925211 0.586719 0.439960 -0.205682
C30   C     C_3   0.906741 0.537099 0.574587 -0.140111
N1    N     N_3   0.856560 0.499750 0.498270 -0.131555
H27   H     H_    0.866634 0.631932 0.590189 0.193776
H28   H     H_    0.862334 0.472790 0.620515 0.169453
N2    N     N_3   0.143860 0.496700 0.498910 -0.121356
C31   C     C_3   0.092793 0.585103 0.440428 -0.187545
C32   C     C_3   0.073868 0.535001 0.575032 -0.179339
H29   H     H_    0.103794 0.469526 0.620903 0.150139
H30   H     H_    0.112961 0.628676 0.591201 0.154492
H31   H     H_    0.885845 0.683156 0.451284 0.137690
H32   H     H_    0.130896 0.680893 0.451993 0.138812
N3    N     N_R   0.687596 0.626083 0.744691 0.111239
O9    O     O_R   0.812984 0.622267 0.771754 -0.401579
O10   O     O_R   0.660361 0.713281 0.695746 -0.419654
C33   C     C_3   0.214036 0.347404 0.886971 -0.873097
H33   H     H_    0.219800 0.328125 0.949522 0.226777
H34   H     H_    0.114540 0.399894 0.878935 0.242806
H35   H     H_    0.208286 0.255904 0.857304 0.233015

loop_
_geom_bond_atom_site_label_1
_geom_bond_atom_site_label_2
_geom_bond_distance
_ccdc_geom_bond_type
C30   H27   1.111856 S    
H25   C29   1.111390 S    
C12   H1    1.083492 S    
C9    C10   1.395583 A    
C8    C16   1.466054 S    
Cu1   N2    2.013333 S    
Cu1   Cu2   2.680502 S    
N3    O9    1.301410 A    
Cu1   O7    1.970418 S    
C22   H16   1.113118 S    
C16   C17   1.340627 D    
C14   H8    1.083505 S    
C8    C9    1.411052 A    
C19   C20   1.531075 S    
C33   H35   1.110778 S    
O4    C2    1.295113 A    
O7    C4    1.293443 A    
C27   H22   1.112141 S    
C30   H28   1.111506 S    
C21   C25   1.542993 S    
C5    C6    1.410930 A    
C22   C26   1.544087 S    
C28   H24   1.112826 S    
C6    N3    1.436423 S    
H26   C31   1.111093 S    
O5    C3    1.289651 A    
C2    C5    1.462777 S    
C16   H6    1.084544 S    
C30   C32   1.573660 S    
C6    C7    1.393149 A    
C29   N1    1.487871 S    
C24   C26   1.550871 S    
C13   C14   1.393560 A    
N2    C31   1.492609 S    
C19   C23   1.554736 S    
N3    O10   1.300742 A    
C30   N1    1.489021 S    
C12   C18   1.402038 A    
C11   C12   1.385983 A    
C27   N1    1.490896 S    
O3    Cu1   1.973067 S    
C26   H18   1.113268 S    
C24   C25   1.549961 S    
C21   C23   1.550099 S    
C5    C10   1.403007 A    
C11   H4    1.081958 S    
C22   H15   1.113196 S    
C17   H3    1.087238 S    
C13   H2    1.083136 S    
C14   C15   1.401131 A    
C32   H30   1.112796 S    
C33   H33   1.107469 S    
C27   C28   1.576334 S    
C29   C31   1.577908 S    
C28   H23   1.112107 S    
O1    C1    1.289416 A    
C19   H9    1.113814 S    
C20   H12   1.113687 S    
C28   N2    1.487287 S    
Cu2   O8    1.973063 S    
C7    C8    1.403045 A    
C13   C18   1.402830 A    
H13   C21   1.112943 S    
C10   H5    1.084717 S    
H14   C25   1.113264 S    
C33   H34   1.110375 S    
C20   H11   1.113773 S    
O8    C4    1.295569 A    
O3    C2    1.294145 A    
C26   H17   1.113181 S    
Cu1   O5    1.967857 S    
C11   C15   1.403698 A    
C22   C23   1.550603 S    
O1    Cu1   1.967249 S    
O2    Cu2   1.967858 S    
C25   H20   1.113243 S    
C32   H29   1.112095 S    
O6    C3    1.292762 A    
O4    Cu2   1.970420 S    
C15   C17   1.467503 S    
C29   H31   1.111854 S    
O2    C1    1.293559 A    
C19   H10   1.113701 S    
C27   H21   1.112776 S    
C31   H32   1.111350 S    
C20   C24   1.554245 S    
C1    C23   1.481104 S    
C9    C33   1.509163 S    
C3    C24   1.479862 S    
C21   H19   1.113102 S    
Cu2   N1    2.013586 S    
Cu2   O6    1.967249 S    
N2    C32   1.487330 S    
C7    H7    1.083718 S    
C4    C18   1.460533 S    
