data_mof_unit_58423.cif
_audit_creation_date              2013-03-05T16:30:35-0500
_audit_creation_method            fapswitch 2.2
_symmetry_space_group_name_H-M    P1
_symmetry_Int_Tables_number       1
_space_group_crystal_system       triclinic
_cell_length_a                    8.741675
_cell_length_b                    10.817334
_cell_length_c                    9.568739
_cell_angle_alpha                 89.979449
_cell_angle_beta                  97.800838
_cell_angle_gamma                 90.3489
_cell_volume                      896.445244942

loop_
_atom_site_label
_atom_site_type_symbol
_atom_site_description
_atom_site_fract_x
_atom_site_fract_y
_atom_site_fract_z
_atom_type_partial_charge
O1    O     O_R   0.500000 0.319640 0.618810 -0.560404
O2    O     O_R   0.500020 0.319680 0.381230 -0.578613
C1    C     C_R   0.496632 0.262446 0.499609 0.784446
O3    O     O_R   0.274830 0.499980 0.591380 -0.604843
O4    O     O_R   0.274850 0.500020 0.353800 -0.604064
C2    C     C_R   0.204464 0.492655 0.463989 0.824979
Cu1   Cu    Cu3+1 0.499990 0.499980 0.640670 0.991238
Cu2   Cu    Cu3+1 0.500010 0.500020 0.359330 1.009949
O5    O     O_R   0.499980 0.680320 0.618770 -0.587776
O6    O     O_R   0.500000 0.680360 0.381190 -0.533915
O7    O     O_R   0.725150 0.499980 0.646200 -0.565324
O8    O     O_R   0.725170 0.500020 0.408620 -0.551097
C3    C     C_R   0.496404 0.737654 0.499621 0.826469
C4    C     C_R   0.795929 0.497718 0.535645 0.896541
C5    C     C_2   0.039828 0.471634 0.445247 -0.021038
C6    C     C_2   0.961816 0.500745 0.552542 -0.351311
H1    H     H_    0.020537 0.535191 0.652475 0.162169
C7    C     C_R   0.493468 0.064081 0.624863 0.089948
C8    C     C_R   0.480277 0.129413 0.498263 -0.159534
C9    C     C_R   0.443014 0.064487 0.370799 -0.160135
H2    H     H_    0.421274 0.112704 0.270898 0.205086
C10   C     C_R   0.441651 0.935441 0.371168 -0.113226
H3    H     H_    0.417129 0.887019 0.271827 0.226575
C11   C     C_R   0.479826 0.870813 0.498518 -0.101181
C12   C     C_R   0.494189 0.936752 0.624989 0.069895
C13   C     C_3   0.615245 0.930372 0.751052 -0.497936
C14   C     C_3   0.615308 0.071005 0.750623 0.183347
H4    H     H_    0.569713 0.888457 0.843026 0.264538
H5    H     H_    0.725185 0.890225 0.726040 0.170966
H6    H     H_    0.725653 0.113438 0.727879 0.102994
C15   C     C_R   0.634242 0.515683 0.089940 0.182469
N1    N     N_R   0.500980 0.500930 0.148050 -0.174673
C16   C     C_R   0.369548 0.473749 0.057997 -0.005687
H7    H     H_    0.263116 0.453593 0.099160 0.121368
C17   C     C_R   0.369342 0.474361 0.909660 -0.005937
H8    H     H_    0.262624 0.454879 0.842191 0.138679
N2    N     N_R   0.500990 0.500890 0.852140 -0.192137
C18   C     C_R   0.635187 0.512008 0.942812 0.281523
C19   C     C_3   0.749288 0.615844 0.947113 -0.176752
C20   C     C_3   0.743232 0.624189 0.105559 0.056556
H9    H     H_    0.704950 0.697094 0.883739 0.205059
H10   H     H_    0.854560 0.605132 0.172536 0.150374
N3    N     N_3   0.965326 0.412915 0.318115 -0.573448
H11   H     H_    0.042780 0.399332 0.245588 0.214323
H12   H     H_    0.929612 0.324810 0.345666 0.236398
N4    N     N_3   0.899149 0.574252 0.913286 -0.586223
H13   H     H_    0.979161 0.645528 0.939712 0.233076
H14   H     H_    0.937193 0.497503 0.974836 0.218248
N5    N     N_R   0.670898 0.738466 0.144388 0.152366
O9    O     O_R   0.537296 0.772483 0.079250 -0.391602
O10   O     O_R   0.744653 0.810574 0.239761 -0.354951
N6    N     N_R   0.557592 0.124126 0.874003 0.169422
O11   O     O_R   0.640796 0.205472 0.950863 -0.369793
O12   O     O_R   0.423553 0.091789 0.907732 -0.347401

loop_
_geom_bond_atom_site_label_1
_geom_bond_atom_site_label_2
_geom_bond_distance
_ccdc_geom_bond_type
O4    Cu2   1.961794 S    
N3    H11   1.044265 S    
C11   C12   1.395467 A    
C1    C8    1.445169 S    
N2    C18   1.365820 A    
C13   H4    1.109566 S    
C15   N1    1.365735 A    
C15   C18   1.409547 A    
O8    C4    1.287119 A    
Cu2   O8    1.960752 S    
N1    C16   1.369793 A    
N5    O10   1.300619 A    
C20   H10   1.110578 S    
O2    C1    1.294476 A    
Cu1   N2    2.022361 S    
C5    N3    1.444961 S    
Cu1   Cu2   2.692093 S    
C19   H9    1.109233 S    
N6    O11   1.300642 A    
C14   H6    1.113569 S    
Cu1   O7    1.961795 S    
N3    H12   1.045867 S    
C20   N5    1.462740 S    
C13   C14   1.521274 S    
O4    C2    1.293088 A    
C7    C12   1.377416 A    
C19   N4    1.464849 S    
Cu2   O6    1.962055 S    
C16   C17   1.419163 A    
N6    O12   1.302703 A    
C16   H7    1.079475 S    
C10   C11   1.406017 A    
O3    Cu1   1.960753 S    
C14   N6    1.464332 S    
O7    C4    1.296298 A    
C4    C6    1.437315 S    
C2    C5    1.442614 S    
C5    C6    1.345810 D    
Cu2   N1    2.022871 S    
N4    H14   1.047175 S    
C18   C19   1.494475 S    
C9    H2    1.083279 S    
C13   H5    1.112255 S    
O3    C2    1.290915 A    
N5    O9    1.302057 A    
C19   C20   1.526936 S    
Cu1   O5    1.961947 S    
O5    C3    1.294418 A    
N4    H13   1.045559 S    
C7    C8    1.393813 A    
C15   C20   1.501869 S    
C17   N2    1.370220 A    
C12   C13   1.494657 S    
O1    Cu1   1.962055 S    
O6    C3    1.296045 A    
C10   H3    1.080537 S    
O2    Cu2   1.961946 S    
C7    C14   1.496417 S    
C8    C9    1.406037 A    
C3    C11   1.448469 S    
C9    C10   1.395922 A    
C6    H1    1.086922 S    
O1    C1    1.294515 A    
C17   H8    1.079672 S    
