data_mof_unit_16940.cif
_audit_creation_date              2012-12-10T20:36:33-0500
_audit_creation_method            fapswitch 2.2
_symmetry_space_group_name_H-M    P1
_symmetry_Int_Tables_number       1
_space_group_crystal_system       triclinic
_cell_length_a                    10.542164
_cell_length_b                    10.734078
_cell_length_c                    9.89222
_cell_angle_alpha                 88.744972
_cell_angle_beta                  88.384036
_cell_angle_gamma                 91.243359
_cell_volume                      1118.41509234

loop_
_atom_site_label
_atom_site_type_symbol
_atom_type_description
_atom_site_fract_x
_atom_site_fract_y
_atom_site_fract_z
_atom_type_partial_charge
C1    C     C_R   0.508727 0.260850 0.500980 0.982028
C2    C     C_3   0.965238 0.484262 0.371502 -0.113544
C3    C     C_3   0.042887 0.393781 0.458554 -0.203415
C4    C     C_3   0.122265 0.505864 0.505129 -0.107321
C5    C     C_R   0.472245 0.058105 0.609329 0.061848
C6    C     C_R   0.525002 0.129494 0.502632 -0.162195
C7    C     C_R   0.585238 0.067117 0.393134 -0.076202
C8    C     C_R   0.572224 0.936663 0.388521 -0.230778
C9    C     C_R   0.510441 0.870279 0.495829 -0.087779
C10   C     C_R   0.466425 0.933985 0.605395 0.056987
C11   C     C_3   0.396440 0.914945 0.736723 -0.463680
C12   C     C_R   0.257384 0.502794 0.501768 0.929610
C13   C     C_3   0.402454 0.058221 0.743733 -0.103242
C14   C     C_R   0.388960 0.487446 0.075241 0.207571
C15   C     C_R   0.608410 0.523584 0.068027 -0.101876
C16   C     C_R   0.608311 0.524104 0.924400 -0.064457
C17   C     C_R   0.388967 0.486812 0.932707 0.238939
C18   C     C_3   0.301636 0.375837 0.936070 -0.449698
C19   C     C_3   0.298868 0.379279 0.088918 -0.464615
C20   C     C_R   0.501783 0.739279 0.498474 0.910925
C21   C     C_R   0.742280 0.500543 0.498147 0.930268
C22   C     C_3   0.033057 0.524230 0.627990 -0.108845
C23   C     C_3   0.952564 0.412605 0.581738 -0.084732
C24   C     C_3   0.876825 0.502061 0.495000 -0.102336
C25   C     C_3   0.956479 0.613303 0.539902 -0.079076
C26   C     C_3   0.047212 0.596298 0.417208 -0.182096
H1    H     H_    0.453962 0.864892 0.812371 0.220663
H2    H     H_    0.696423 0.540771 0.118713 0.165267
H3    H     H_    0.696250 0.542556 0.868046 0.212647
H4    H     H_    0.208977 0.393226 0.891257 0.228104
H5    H     H_    0.349541 0.294008 0.896651 0.207662
H6    H     H_    0.205321 0.405947 0.132775 0.208033
H7    H     H_    0.341414 0.296285 0.137567 0.229545
H8    H     H_    0.089721 0.671957 0.351054 0.170058
H9    H     H_    0.934239 0.468364 0.266845 0.155761
H10   H     H_    0.082087 0.304192 0.424412 0.193575
H11   H     H_    0.615572 0.886696 0.305749 0.214627
H12   H     H_    0.299926 0.874012 0.722928 0.238803
N1    N     N_R   0.499140 0.499140 0.142800 -0.117834
N2    N     N_R   0.499140 0.499180 0.857150 -0.126159
O1    O     O_R   0.500020 0.316790 0.614690 -0.608373
O2    O     O_R   0.500000 0.316760 0.385350 -0.609799
O3    O     O_R   0.313960 0.499990 0.614650 -0.601315
O4    O     O_R   0.313940 0.499950 0.385310 -0.626658
O5    O     O_R   0.500000 0.683240 0.614650 -0.613563
O6    O     O_R   0.499980 0.683210 0.385310 -0.624532
O7    O     O_R   0.686060 0.500050 0.614690 -0.618417
O8    O     O_R   0.686040 0.500010 0.385350 -0.610141
Zn1   Zn    Zn3+2 0.500010 0.500020 0.653130 1.002769
Zn2   Zn    Zn3+2 0.499990 0.499980 0.346870 0.982638
C27   C     C_2   0.895595 0.306657 0.666946 0.960482
O9    O     O_2   0.915130 0.199087 0.635670 -0.601538
O10   O     O_R   0.818708 0.331312 0.780020 -0.753410
H13   H     H_    0.785439 0.252513 0.828379 0.361908
C28   C     C_2   0.273837 0.116428 0.741989 0.922952
O11   O     O_2   0.196018 0.091570 0.833193 -0.570574
O12   O     O_R   0.244518 0.200617 0.638564 -0.817926
H14   H     H_    0.159248 0.239690 0.654956 0.346498
C29   C     C_1   0.483950 0.103309 0.851505 0.187226
N3    N     N_1   0.548242 0.139117 0.935837 -0.135165
C30   C     C_2   0.066380 0.556965 0.769530 0.951772
O13   O     O_2   0.147575 0.637345 0.787939 -0.610578
O14   O     O_R   0.999627 0.500732 0.879436 -0.789634
H15   H     H_    0.028114 0.533162 0.969440 0.333331
C31   C     C_2   0.902877 0.736863 0.577110 0.921735
O15   O     O_2   0.913507 0.775630 0.691536 -0.570703
O16   O     O_R   0.841029 0.807168 0.479633 -0.810676
H16   H     H_    0.810686 0.889363 0.515716 0.360755
C32   C     C_2   0.670026 0.132032 0.290281 0.969380
O17   O     O_2   0.686488 0.087125 0.178804 -0.602688
O18   O     O_R   0.737308 0.240301 0.323102 -0.801294
H17   H     H_    0.793010 0.274353 0.245031 0.342497

loop_
_geom_bond_atom_site_label_1
_geom_bond_atom_site_label_2
_ccdc_geom_bond_type
C2    H9    S    
C28   O11   D    
C3    C23   S    
O12   H14   S    
C7    C8    A    
O7    Zn1   S    
O10   H13   S    
C12   O3    A    
C5    C6    A    
N2    Zn1   S    
C27   O9    D    
C30   O14   S    
C18   C19   S    
C32   O18   S    
C14   N1    A    
C26   H8    S    
C8    C9    A    
C31   O16   S    
C22   C25   S    
C23   C24   S    
C18   H4    S    
C11   H1    S    
C4    C12   S    
C9    C10   A    
C5    C13   S    
C20   O5    A    
C21   O8    A    
O8    Zn2   S    
C29   N3    T    
C14   C17   A    
C32   O17   D    
C19   H6    S    
O1    Zn1   S    
O16   H16   S    
C25   C31   S    
C24   C25   S    
C19   H7    S    
O3    Zn1   S    
C25   C26   S    
C1    C6    S    
C27   O10   S    
C17   N2    A    
C11   H12   S    
C4    C22   S    
C9    C20   S    
C23   C27   S    
O5    Zn1   S    
C17   C18   S    
C2    C26   S    
C15   N1    A    
O2    Zn2   S    
C1    O1    A    
C16   N2    A    
C28   O12   S    
C2    C24   S    
C8    H11   S    
C3    C4    S    
O4    Zn2   S    
C14   C19   S    
C7    C32   S    
C4    C26   S    
C6    C7    A    
C13   C29   S    
O6    Zn2   S    
C2    C3    S    
C16   H3    S    
C5    C10   A    
C12   O4    A    
C22   C30   S    
C11   C13   S    
C15   H2    S    
C3    H10   S    
C30   O13   D    
C10   C11   S    
O14   H15   S    
C1    O2    A    
O18   H17   S    
N1    Zn2   S    
C31   O15   D    
C21   C24   S    
C22   C23   S    
C18   H5    S    
C21   O7    A    
C20   O6    A    
C15   C16   A    
C13   C28   S    
