data_mof_unit_14040.cif
_audit_creation_date              2012-12-11T14:46:16-0500
_audit_creation_method            fapswitch 2.2
_symmetry_space_group_name_H-M    P1
_symmetry_Int_Tables_number       1
_space_group_crystal_system       triclinic
_cell_length_a                    10.888526
_cell_length_b                    10.910145
_cell_length_c                    18.771647
_cell_angle_alpha                 89.817051
_cell_angle_beta                  90.241914
_cell_angle_gamma                 119.742586
_cell_volume                      1936.19492807

loop_
_atom_site_label
_atom_site_type_symbol
_atom_type_description
_atom_site_fract_x
_atom_site_fract_y
_atom_site_fract_z
_atom_type_partial_charge
C1    C     C_R   0.865484 0.637399 0.603857 0.529356
C2    C     C_R   0.960967 0.169262 0.709894 -0.027509
C3    C     C_R   0.958153 0.182337 0.784720 -0.010337
C4    C     C_R   0.212832 0.597297 0.611229 0.548958
C5    C     C_R   0.710304 0.091841 0.701959 -0.005449
C6    C     C_R   0.708012 0.119503 0.774770 0.004786
C7    C     C_R   0.583131 0.026225 0.662234 -0.074233
C8    C     C_R   0.457432 0.005083 0.691908 -0.080987
C9    C     C_R   0.458259 0.053646 0.760212 -0.093199
C10   C     C_R   0.582742 0.114904 0.800263 -0.062537
C11   C     C_R   0.840704 0.142075 0.668505 -0.047315
C12   C     C_R   0.415800 0.640199 0.776892 -0.116669
C13   C     C_R   0.797314 0.550350 0.725815 -0.130519
C14   C     C_R   0.776629 0.572253 0.796482 -0.099635
C15   C     C_R   0.783672 0.699087 0.816044 0.021985
C16   C     C_R   0.860598 0.219981 0.600809 0.527944
C17   C     C_R   0.806492 0.801228 0.764686 -0.149844
C18   C     C_R   0.827000 0.779459 0.693874 -0.128095
C19   C     C_R   0.822675 0.653925 0.674436 0.028225
C20   C     C_R   0.245300 0.541771 0.276083 -0.155933
C21   C     C_R   0.260115 0.556816 0.203421 -0.145730
C22   C     C_R   0.336621 0.691156 0.174026 -0.005167
C23   C     C_R   0.374418 0.615391 0.706949 -0.110801
C24   C     C_R   0.387665 0.811562 0.217452 -0.138069
C25   C     C_R   0.374200 0.798080 0.291434 0.019973
C26   C     C_R   0.305191 0.660719 0.320844 0.000004
C27   C     C_R   0.791278 0.258124 0.274425 -0.103819
C28   C     C_R   0.869743 0.636729 0.395544 0.541882
C29   C     C_R   0.790208 0.241234 0.201700 -0.124688
C30   C     C_R   0.852666 0.167745 0.172685 0.015557
C31   C     C_R   0.927942 0.122876 0.216577 -0.139584
C32   C     C_R   0.930278 0.141431 0.289859 -0.146813
C33   C     C_R   0.856584 0.203692 0.318985 0.040282
C34   C     C_R   0.262078 0.632874 0.683742 0.021644
C35   C     C_R   0.966200 0.712298 0.276627 -0.127097
C36   C     C_R   0.950614 0.713024 0.203913 -0.139002
C37   C     C_R   0.815076 0.649240 0.174340 0.018763
C38   C     C_R   0.695362 0.572205 0.217497 -0.136693
C39   C     C_R   0.711321 0.569694 0.290768 -0.147279
C40   C     C_R   0.269107 0.632890 0.395610 0.585310
C41   C     C_R   0.846536 0.644898 0.320493 0.027833
C42   C     C_R   0.805154 0.102853 0.893971 0.521802
C43   C     C_R   0.392796 0.700150 0.897447 0.530889
C44   C     C_R   0.773631 0.729913 0.890019 0.550490
C45   C     C_R   0.829583 0.150237 0.818313 -0.034566
C46   C     C_R   0.809590 0.108403 0.102031 0.547964
C47   C     C_R   0.393757 0.704710 0.103133 0.549183
C48   C     C_R   0.798044 0.692328 0.103843 0.554144
C49   C     C_R   0.864177 0.234478 0.394151 0.559058
C50   C     C_R   0.194890 0.680827 0.730688 -0.152884
C51   C     C_R   0.237994 0.707277 0.801674 -0.142754
C52   C     C_R   0.346733 0.683812 0.824578 0.040357
C53   C     C_2   0.438823 0.928229 0.335524 0.576917
C54   C     C_2   0.340673 0.256470 0.680390 0.548891
C55   C     C_R   0.085023 0.230031 0.823671 -0.114598
C56   C     C_R   0.209687 0.256431 0.789770 -0.128392
C57   C     C_R   0.209558 0.230569 0.716801 0.056732
C58   C     C_R   0.084087 0.182831 0.678008 -0.087425
Cr1   Cr    Cr6+3 0.791660 0.390250 0.499930 1.051017
Cr2   Cr    Cr6+3 0.098520 0.708290 0.500540 1.058974
Cr3   Cr    Cr6+3 0.109770 0.401430 0.499480 1.041819
Cr4   Cr    Cr6+3 0.874790 0.925890 0.000070 1.011056
Cr5   Cr    Cr6+3 0.574120 0.948670 0.999300 1.009777
Cr6   Cr    Cr6+3 0.551420 0.625320 0.000920 1.011373
H1    H     H_    0.108813 0.695878 0.712581 0.127891
H2    H     H_    0.218720 0.463068 0.170507 0.138428
H3    H     H_    0.448727 0.915939 0.194319 0.176021
H4    H     H_    0.185370 0.742227 0.838487 0.122526
H5    H     H_    0.740854 0.314153 0.295817 0.144251
H6    H     H_    0.733276 0.278121 0.168605 0.137944
H7    H     H_    0.976674 0.065331 0.195009 0.147692
H8    H     H_    0.986051 0.104463 0.323725 0.133954
H9    H     H_    0.072451 0.764335 0.298467 0.151753
H10   H     H_    0.044082 0.771001 0.171293 0.137906
H11   H     H_    0.589422 0.522146 0.195384 0.147386
H12   H     H_    0.361115 0.957966 0.660617 0.158573
H13   H     H_    0.618945 0.512431 0.324143 0.133078
H14   H     H_    0.501085 0.623157 0.794181 0.146101
H15   H     H_    0.429626 0.581133 0.671410 0.168527
H16   H     H_    0.305710 0.295194 0.820982 0.154505
H17   H     H_    0.090063 0.251912 0.880105 0.135158
H18   H     H_    0.082676 0.154825 0.622667 0.166453
H19   H     H_    0.579343 0.163744 0.849545 0.149235
H20   H     H_    0.494625 0.133878 0.342987 0.344089
H21   H     H_    0.549652 0.331538 0.685822 0.351469
H22   H     H_    0.582119 0.994679 0.607454 0.149091
H23   H     H_    0.362862 0.046544 0.781778 0.125128
H24   H     H_    0.799772 0.455286 0.711742 0.123505
H25   H     H_    0.760449 0.493092 0.836024 0.131978
H26   H     H_    0.809352 0.897684 0.779857 0.121792
H27   H     H_    0.848854 0.860864 0.654718 0.122787
H28   H     H_    0.185513 0.435630 0.297271 0.151669
O1    O     O_R   0.766500 0.250040 0.579790 -0.500741
O2    O     O_R   0.413330 0.603360 0.920440 -0.530482
O3    O     O_R   0.676110 0.626250 0.926750 -0.505628
O4    O     O_R   0.798570 0.516780 0.574780 -0.494715
O5    O     O_R   0.895350 0.809870 0.080950 -0.518176
O6    O     O_R   0.872490 0.049760 0.073800 -0.504499
O7    O     O_R   0.691680 0.088070 0.079070 -0.517579
O8    O     O_R   0.451720 0.825250 0.074050 -0.504417
O9    O     O_R   0.413580 0.606370 0.080960 -0.518748
O10   O     O_R   0.676340 0.629040 0.075550 -0.500566
O11   O     O_3   0.666780 0.833290 0.000090 -0.260354
O12   O     O_R   0.218690 0.701900 0.425960 -0.471552
O13   O     O_R   0.984000 0.732950 0.581090 -0.522574
O14   O     O_R   0.218600 0.700890 0.574760 -0.495474
O15   O     O_R   0.249390 0.515350 0.579940 -0.501207
O16   O     O_R   0.982790 0.280900 0.573700 -0.519966
O17   O     O_R   0.766600 0.251130 0.419260 -0.500475
O18   O     O_R   0.798660 0.517790 0.425980 -0.507595
O19   O     O_R   0.984100 0.734040 0.420570 -0.515649
O20   O     O_2   0.484374 0.928014 0.395159 -0.500596
O21   O     O_R   0.450317 0.052696 0.307918 -0.721256
O22   O     O_2   0.336411 0.218515 0.618710 -0.530086
O23   O     O_R   0.249490 0.516440 0.419420 -0.517135
O24   O     O_R   0.470133 0.325512 0.716133 -0.729860
O25   O     O_R   0.982880 0.281910 0.424890 -0.514280
O26   O     O_3   0.999980 0.499990 0.499980 -0.283684
O27   O     O_R   0.895110 0.806860 0.920430 -0.509384
O28   O     O_R   0.872260 0.046970 0.925000 -0.515154
O29   O     O_R   0.691430 0.085060 0.918550 -0.531052
O30   O     O_R   0.451490 0.822460 0.925250 -0.501329

loop_
_geom_bond_atom_site_label_1
_geom_bond_atom_site_label_2
_ccdc_geom_bond_type
Cr6   O11   S    
C46   O7    A    
H20   O21   S    
C47   O9    A    
C6    C45   A    
C21   H2    S    
C27   C29   A    
C10   H19   S    
C35   C36   A    
C55   C56   A    
C26   C40   S    
Cr1   O18   S    
C7    C8    A    
C39   C41   A    
C27   C33   A    
Cr6   O10   S    
C48   O5    A    
C20   H28   S    
C12   C23   A    
C16   O1    A    
C37   C38   A    
C18   H27   S    
C39   H13   S    
C21   C22   A    
C36   C37   A    
C25   C53   S    
C15   C44   S    
C5    C11   A    
C58   H18   S    
C30   C31   A    
C43   C52   S    
C7    H22   S    
C33   C49   S    
C28   C41   S    
C8    H12   S    
C43   O2    A    
C56   C57   A    
C18   C19   A    
Cr3   O16   S    
Cr5   O7    S    
C24   H3    S    
Cr5   O29   S    
Cr4   O6    S    
C3    C55   A    
C49   O25   A    
C8    C9    A    
C12   H14   S    
Cr3   O23   S    
Cr2   O26   S    
C55   H17   S    
C9    C10   A    
Cr4   O28   S    
C27   H5    S    
C31   H7    S    
C22   C47   S    
C46   O6    A    
C13   C14   A    
C35   C41   A    
C2    C11   A    
C12   C52   A    
C53   O21   S    
C50   C51   A    
C38   H11   S    
C28   O19   A    
Cr6   O9    S    
C4    O15   A    
C4    C34   S    
C34   C50   A    
C1    C19   S    
C13   C19   A    
Cr3   O25   S    
C51   C52   A    
C38   C39   A    
C24   C25   A    
Cr5   O11   S    
C5    C7    A    
C44   O27   A    
C28   O18   A    
C25   C26   A    
C29   H6    S    
C4    O14   A    
C3    C45   A    
C47   O8    A    
C54   O24   S    
C42   C45   S    
C14   H25   S    
C29   C30   A    
C40   O12   A    
Cr4   O5    S    
C11   C16   S    
C31   C32   A    
C23   C34   A    
C48   O10   A    
C17   C18   A    
C37   C48   S    
C43   O30   A    
Cr5   O8    S    
Cr4   O27   S    
C36   H10   S    
C53   O20   D    
Cr1   O26   S    
C22   C24   A    
Cr1   O4    S    
Cr5   O30   S    
Cr2   O14   S    
C49   O17   A    
Cr4   O11   S    
C15   C17   A    
C35   H9    S    
Cr3   O26   S    
C30   C46   S    
H21   O24   S    
C17   H26   S    
Cr6   O3    S    
C6    C10   A    
C2    C58   A    
C56   H16   S    
C32   C33   A    
C2    C3    A    
Cr6   O2    S    
Cr2   O19   S    
C9    H23   S    
C42   O28   A    
C57   C58   A    
C5    C6    A    
C20   C26   A    
C1    O4    A    
C54   O22   D    
C13   H24   S    
Cr1   O17   S    
C51   H4    S    
Cr3   O15   S    
C50   H1    S    
C16   O16   A    
C40   O23   A    
C20   C21   A    
C44   O3    A    
C14   C15   A    
Cr1   O1    S    
C23   H15   S    
Cr2   O12   S    
Cr2   O13   S    
C42   O29   A    
C1    O13   A    
C32   H8    S    
C54   C57   S    
