data_mof_unit_9294.cif
_audit_creation_date              2012-12-10T17:46:32-0500
_audit_creation_method            fapswitch 2.2
_symmetry_space_group_name_H-M    P1
_symmetry_Int_Tables_number       1
_space_group_crystal_system       triclinic
_cell_length_a                    20.751974
_cell_length_b                    21.179913
_cell_length_c                    14.768065
_cell_angle_alpha                 90.234757
_cell_angle_beta                  127.885494
_cell_angle_gamma                 89.944663
_cell_volume                      5122.84902106

loop_
_atom_site_label
_atom_site_type_symbol
_atom_type_description
_atom_site_fract_x
_atom_site_fract_y
_atom_site_fract_z
_atom_type_partial_charge
C1    C     C_R   0.602978 0.913879 0.631483 0.805974
C2    C     C_R   0.396900 0.086030 0.368369 0.806441
C3    C     C_R   0.397585 0.913108 0.368881 0.802410
C4    C     C_R   0.603036 0.086017 0.631571 0.805418
C5    C     C_R   0.103087 0.413959 0.631612 0.812121
C6    C     C_R   0.896793 0.585946 0.368249 0.801286
C7    C     C_R   0.896914 0.414027 0.368365 0.805919
C8    C     C_R   0.104160 0.585494 0.633260 0.804188
C9    C     C_R   0.368193 0.740472 0.972791 -0.314433
C10   C     C_R   0.673988 0.223019 0.079736 -0.314601
C11   C     C_R   0.668200 0.771947 0.072931 -0.321384
C12   C     C_R   0.331431 0.227826 0.926579 -0.318348
C13   C     C_R   0.825103 0.277745 0.918976 -0.314440
C14   C     C_R   0.214269 0.693104 0.129209 -0.316582
C15   C     C_R   0.168125 0.271745 0.072660 -0.318815
C16   C     C_R   0.828847 0.725754 0.923422 -0.320256
C17   C     C_R   0.322837 0.008091 0.666452 -0.285005
C18   C     C_R   0.677342 0.992361 0.333830 -0.287014
C19   C     C_R   0.822489 0.507394 0.665845 -0.287152
C20   C     C_R   0.176983 0.491654 0.333191 -0.284279
C21   C     C_R   0.351905 0.002873 0.603376 0.065066
C22   C     C_R   0.648123 0.997193 0.396765 0.065414
C23   C     C_R   0.851859 0.502910 0.603073 0.060933
C24   C     C_R   0.148078 0.497245 0.396444 0.063861
C25   C     C_R   0.488186 0.999281 0.774934 0.118823
C26   C     C_R   0.511935 0.001052 0.225064 0.113048
C27   C     C_R   0.987941 0.498452 0.774957 0.107808
C28   C     C_R   0.011685 0.500332 0.225075 0.120592
C29   C     C_R   0.462205 0.999446 0.844909 -0.008799
C30   C     C_R   0.538086 0.001233 0.155285 -0.008100
C31   C     C_R   0.961583 0.497938 0.844492 -0.006375
C32   C     C_R   0.037466 0.499801 0.154862 -0.009474
C33   C     C_R   0.377726 0.008075 0.786827 0.094562
C34   C     C_R   0.622576 0.992664 0.213458 0.092885
C35   C     C_R   0.877111 0.506653 0.786208 0.092439
C36   C     C_R   0.121936 0.491170 0.212819 0.087353
C37   C     C_R   0.516010 0.994413 0.968752 -0.043589
C38   C     C_R   0.484394 0.006492 0.031496 -0.042729
C39   C     C_R   0.015093 0.492300 0.968204 -0.054277
C40   C     C_R   0.983518 0.504532 0.030953 -0.044886
C41   C     C_R   0.401043 0.024760 0.968276 0.389195
C42   C     C_R   0.599439 0.976311 0.032053 0.391968
C43   C     C_R   0.900021 0.522515 0.967559 0.393685
C44   C     C_R   0.098261 0.473604 0.031331 0.391815
C45   C     C_R   0.348520 0.020663 0.848220 -0.286444
C46   C     C_R   0.651902 0.980395 0.152123 -0.287740
C47   C     C_R   0.847661 0.518609 0.847466 -0.286059
C48   C     C_R   0.150950 0.478009 0.151347 -0.295731
C49   C     C_R   0.660226 0.136658 0.703174 -0.089771
C50   C     C_R   0.345426 0.858323 0.302573 -0.091748
C51   C     C_R   0.339158 0.136235 0.295743 -0.094040
C52   C     C_R   0.660156 0.863257 0.703409 -0.092978
C53   C     C_R   0.170277 0.629056 0.716767 -0.090060
C54   C     C_R   0.839505 0.363562 0.296462 -0.089997
C55   C     C_R   0.838790 0.635964 0.295362 -0.093244
C56   C     C_R   0.160743 0.363679 0.704088 -0.093878
C57   C     C_R   0.756067 0.217937 0.743048 -0.167067
C58   C     C_R   0.257350 0.772727 0.273852 -0.165809
C59   C     C_R   0.237301 0.213399 0.249345 -0.166277
C60   C     C_R   0.760206 0.784860 0.747640 -0.168634
C61   C     C_R   0.296722 0.683666 0.792983 -0.165071
C62   C     C_R   0.743378 0.282437 0.256119 -0.166635
C63   C     C_R   0.737548 0.713582 0.249618 -0.167423
C64   C     C_R   0.262517 0.286487 0.750262 -0.165412
C65   C     C_R   0.702244 0.169895 0.672137 -0.186477
C66   C     C_R   0.301435 0.827226 0.332487 -0.183859
C67   C     C_R   0.292824 0.166915 0.322266 -0.186822
C68   C     C_R   0.705518 0.832005 0.675773 -0.184588
C69   C     C_R   0.231599 0.646111 0.708320 -0.188785
C70   C     C_R   0.797458 0.330272 0.327391 -0.186055
C71   C     C_R   0.793057 0.667081 0.322503 -0.192430
C72   C     C_R   0.207125 0.333089 0.677561 -0.186654
C73   C     C_R   0.670897 0.152842 0.803009 -0.149597
C74   C     C_R   0.344670 0.834107 0.213514 -0.151980
C75   C     C_R   0.331459 0.154057 0.198657 -0.149625
C76   C     C_R   0.667965 0.845387 0.800566 -0.149397
C77   C     C_R   0.175193 0.650016 0.810911 -0.155529
C78   C     C_R   0.828570 0.347660 0.196335 -0.148893
C79   C     C_R   0.830276 0.653191 0.197439 -0.148583
C80   C     C_R   0.168267 0.345658 0.800957 -0.143109
C81   C     C_R   0.716179 0.206095 0.867324 0.097511
C82   C     C_R   0.306700 0.776135 0.160181 0.099990
C83   C     C_R   0.283312 0.205650 0.131742 0.093502
C84   C     C_R   0.715256 0.793247 0.866471 0.093975
C85   C     C_R   0.244016 0.683092 0.902467 0.099769
C86   C     C_R   0.783084 0.294558 0.131661 0.097146
C87   C     C_R   0.782329 0.704883 0.130604 0.092620
C88   C     C_R   0.216336 0.293985 0.867672 0.092607
C89   C     C_R   0.764502 0.235329 0.841667 0.099210
C90   C     C_R   0.259076 0.747326 0.187411 0.097910
C91   C     C_R   0.230835 0.231765 0.152788 0.096989
C92   C     C_R   0.766808 0.766468 0.844287 0.097695
C93   C     C_R   0.302996 0.702694 0.889317 0.099562
C94   C     C_R   0.734752 0.265273 0.157268 0.099094
C95   C     C_R   0.730591 0.731590 0.152530 0.097464
C96   C     C_R   0.268839 0.267938 0.846627 0.096463
C97   C     C_R   0.718534 0.228338 0.960272 -0.047581
C98   C     C_R   0.311341 0.747824 0.076587 -0.048129
C99   C     C_R   0.281993 0.228974 0.040262 -0.056897
C100  C     C_R   0.716703 0.769994 0.958098 -0.056662
C101  C     C_R   0.253650 0.699910 0.003739 -0.048155
C102  C     C_R   0.780614 0.272458 0.038532 -0.047625
C103  C     C_R   0.780634 0.727873 0.038617 -0.057313
C104  C     C_R   0.217583 0.270547 0.959020 -0.056341
C105  C     C_R   0.373459 0.763405 0.066375 0.405581
C106  C     C_R   0.660280 0.208944 0.976537 0.403886
C107  C     C_R   0.655918 0.786492 0.970984 0.420169
C108  C     C_R   0.343394 0.213154 0.028261 0.421170
C109  C     C_R   0.838795 0.291912 0.022142 0.403942
C110  C     C_R   0.210640 0.668879 0.037658 0.402744
C111  C     C_R   0.156121 0.286299 0.970911 0.419536
C112  C     C_R   0.841284 0.711267 0.025489 0.419557
Cu1   Cu    Cu3+1 0.526640 1.000000 0.436960 0.959425
Cu2   Cu    Cu3+1 0.473360 0.000000 0.563040 0.960886
Cu3   Cu    Cu3+1 0.026640 0.500000 0.436960 0.961069
Cu4   Cu    Cu3+1 0.973360 0.500000 0.563040 0.955659
H1    H     H_    0.415189 0.752684 0.964685 0.136136
H2    H     H_    0.632755 0.204809 0.095303 0.138842
H3    H     H_    0.624710 0.788112 0.085774 0.138355
H4    H     H_    0.375424 0.212138 0.914403 0.142551
H5    H     H_    0.866296 0.295964 0.903341 0.138897
H6    H     H_    0.181227 0.669605 0.154608 0.142058
H7    H     H_    0.124110 0.287437 0.084788 0.142833
H8    H     H_    0.872178 0.709461 0.910366 0.142805
H9    H     H_    0.371968 0.862252 0.184415 0.201271
H10   H     H_    0.646504 0.121266 0.832232 0.201766
H11   H     H_    0.640098 0.875094 0.827090 0.229706
H12   H     H_    0.360080 0.124672 0.172935 0.230478
H13   H     H_    0.852929 0.379348 0.167215 0.202301
H14   H     H_    0.123321 0.641767 0.809490 0.200351
H15   H     H_    0.139552 0.374929 0.826670 0.231794
H16   H     H_    0.858202 0.623324 0.171221 0.229982
H17   H     H_    0.301064 0.844933 0.401066 0.160852
H18   H     H_    0.695119 0.157792 0.595101 0.161440
H19   H     H_    0.700563 0.845191 0.600935 0.158810
H20   H     H_    0.297604 0.153708 0.396960 0.158911
H21   H     H_    0.804756 0.342185 0.404620 0.161787
H22   H     H_    0.229314 0.630480 0.636476 0.156896
H23   H     H_    0.202472 0.346442 0.603025 0.159134
H24   H     H_    0.798381 0.654270 0.397769 0.156427
H25   H     H_    0.342671 0.697395 0.783659 0.142222
H26   H     H_    0.707776 0.259321 0.277550 0.141783
H27   H     H_    0.699214 0.734799 0.268133 0.140444
H28   H     H_    0.301405 0.265736 0.732351 0.141410
H29   H     H_    0.791657 0.241013 0.721559 0.141607
H30   H     H_    0.222388 0.750081 0.296781 0.141247
H31   H     H_    0.198438 0.234207 0.267251 0.141322
H32   H     H_    0.798334 0.763545 0.728847 0.136136
H33   H     H_    0.284264 0.031384 0.801547 0.138090
H34   H     H_    0.716195 0.969797 0.198852 0.138609
H35   H     H_    0.783354 0.529181 0.800667 0.139512
H36   H     H_    0.215179 0.467228 0.197928 0.147627
H37   H     H_    0.448645 0.998073 0.188937 0.186353
H38   H     H_    0.551422 0.002296 0.810832 0.187544
H39   H     H_    0.948522 0.497229 0.189456 0.188374
H40   H     H_    0.051322 0.501269 0.811409 0.204936
H41   H     H_    0.690303 0.996286 0.489508 0.124800
H42   H     H_    0.309646 0.003610 0.510630 0.124649
H43   H     H_    0.190446 0.496801 0.489195 0.124454
H44   H     H_    0.809777 0.504104 0.510337 0.128276
H45   H     H_    0.257793 0.013565 0.621273 0.141092
H46   H     H_    0.742406 0.986954 0.379110 0.140700
H47   H     H_    0.757422 0.512882 0.620459 0.143798
H48   H     H_    0.242017 0.486220 0.378246 0.143298
N1    N     N_R   0.433280 1.000000 0.657760 -0.198279
N2    N     N_R   0.566720 1.000000 0.342240 -0.197632
N3    N     N_R   0.933280 0.500000 0.657760 -0.202189
N4    N     N_R   0.066720 0.500000 0.342240 -0.198436
O1    O     O_R   0.600040 0.935040 0.546740 -0.587252
O2    O     O_R   0.399960 0.064960 0.453260 -0.587226
O3    O     O_R   0.399960 0.935040 0.453260 -0.583200
O4    O     O_R   0.600040 0.064960 0.546740 -0.585350
O5    O     O_R   0.100040 0.435040 0.546740 -0.587528
O6    O     O_R   0.899960 0.564960 0.453260 -0.591771
O7    O     O_R   0.899960 0.435040 0.453260 -0.584310
O8    O     O_R   0.100040 0.564960 0.546740 -0.582104
O9    O     O_R   0.555010 0.935070 0.653220 -0.575084
O10   O     O_R   0.444990 0.064930 0.346780 -0.574631
O11   O     O_R   0.444990 0.935070 0.346780 -0.585545
O12   O     O_R   0.555010 0.064930 0.653220 -0.583677
O13   O     O_R   0.055010 0.435070 0.653220 -0.572191
O14   O     O_R   0.944990 0.564930 0.346780 -0.574128
O15   O     O_R   0.944990 0.435070 0.346780 -0.583956
O16   O     O_R   0.055010 0.564930 0.653220 -0.588168
O17   O     O_3   0.372273 0.050654 0.023251 -0.772128
H49   H     H_    0.313962 0.062367 0.966493 0.322088
O18   O     O_3   0.628363 0.950553 0.977188 -0.771879
H50   H     H_    0.686698 0.938923 0.034003 0.322272
O19   O     O_3   0.870865 0.547933 0.022331 -0.772240
H51   H     H_    0.812496 0.559461 0.965472 0.322900
O20   O     O_3   0.126818 0.447516 0.976212 -0.754601
H52   H     H_    0.185178 0.435915 0.032878 0.330133
O21   O     O_3   0.442898 0.795419 0.153769 -0.749969
H53   H     H_    0.479713 0.801975 0.133061 0.318702
O22   O     O_3   0.587291 0.181001 0.888294 -0.751850
H54   H     H_    0.554345 0.171008 0.914345 0.320109
O23   O     O_3   0.582037 0.811893 0.880546 -0.728377
H55   H     H_    0.547161 0.819943 0.904177 0.333190
O24   O     O_3   0.417515 0.188375 0.119295 -0.727881
H56   H     H_    0.452801 0.180743 0.096225 0.333298
O25   O     O_3   0.911733 0.319975 0.110243 -0.752335
H57   H     H_    0.944610 0.330012 0.084098 0.320409
O26   O     O_3   0.172376 0.611637 0.988991 -0.749638
H58   H     H_    0.144329 0.597564 0.020670 0.324492
O27   O     O_3   0.081928 0.310898 0.879719 -0.729061
H59   H     H_    0.046561 0.318439 0.902682 0.333547
O28   O     O_3   0.915251 0.685930 0.115824 -0.728792
H60   H     H_    0.949974 0.677759 0.091978 0.334910

loop_
_geom_bond_atom_site_label_1
_geom_bond_atom_site_label_2
_ccdc_geom_bond_type
C42   O18   S    
O26   H58   S    
C88   C96   A    
C21   H42   S    
C14   H6    S    
C57   H29   S    
C33   C45   A    
O25   H57   S    
C5    C56   S    
C53   C77   A    
C6    C55   S    
C49   C73   A    
C53   C69   A    
C76   C84   A    
C79   C87   A    
C13   H5    S    
C57   C89   A    
C24   H43   S    
O27   H59   S    
C105  O21   S    
C99   C108  A    
C30   C38   A    
C37   C38   A    
C98   C105  A    
C15   H7    S    
C6    O14   A    
C32   C36   A    
C24   N4    A    
C78   H13   S    
C62   H26   S    
C50   C74   A    
C44   O20   S    
C61   C93   A    
C74   H9    S    
C10   C94   A    
C9    C105  A    
C73   H10   S    
C20   H48   S    
C63   C95   A    
C69   H22   S    
C21   N1    A    
C62   C70   A    
Cu2   O2    S    
C75   H12   S    
C42   C46   A    
C5    O13   A    
C37   C42   A    
C3    O11   A    
C14   C90   A    
C13   C109  A    
C86   C94   A    
C77   C85   A    
C59   C67   A    
C12   H4    S    
C85   C93   A    
C58   C66   A    
C40   C43   A    
C20   C24   A    
C29   C33   A    
C56   C72   A    
C87   C95   A    
C28   H39   S    
Cu4   N3    S    
C36   C48   A    
C26   H37   S    
C34   C46   A    
C43   C47   A    
C111  O27   S    
C97   C102  A    
C52   C68   A    
C17   H45   S    
C81   C89   A    
C8    O16   A    
C32   C40   A    
Cu1   O10   S    
C35   C47   A    
O24   H56   S    
C80   H15   S    
C83   C99   A    
C23   H44   S    
C82   C98   A    
O19   H51   S    
C17   C33   A    
C4    O12   A    
C73   C81   A    
C88   C104  A    
C3    C50   S    
Cu1   O4    S    
C60   C92   A    
C25   C29   A    
Cu2   O3    S    
C30   C34   A    
C27   C31   A    
O20   H52   S    
C84   C100  A    
C75   C83   A    
C15   C111  A    
C28   C32   A    
C64   C96   A    
C38   C41   A    
C11   H3    S    
Cu1   N2    S    
C107  O23   S    
Cu1   O1    S    
C64   H28   S    
C25   N1    A    
C101  C110  A    
C100  C103  A    
C17   C21   A    
O28   H60   S    
C7    O7    A    
C103  C112  A    
C22   N2    A    
C19   C23   A    
Cu3   O8    S    
C10   H2    S    
C66   H17   S    
C55   C79   A    
C54   C70   A    
Cu2   O9    S    
Cu4   O13   S    
C50   C66   A    
C58   H30   S    
C41   O17   S    
C19   H47   S    
C84   C92   A    
C18   C34   A    
C43   O19   S    
C39   C44   A    
C49   C65   A    
C2    O2    A    
C23   N3    A    
C97   C106  A    
C61   H25   S    
C46   H34   S    
C47   H35   S    
C26   C30   A    
Cu2   O12   S    
C3    O3    A    
C48   H36   S    
C11   C107  A    
C87   C103  A    
C10   C106  A    
C29   C37   A    
C83   C91   A    
C86   C102  A    
C9    C93   A    
C39   C40   A    
Cu3   O14   S    
C85   C101  A    
C16   C112  A    
Cu2   N1    S    
C12   C108  A    
Cu1   Cu2   S    
C59   C91   A    
C11   C95   A    
C27   H40   S    
C14   C110  A    
C26   N2    A    
C100  C107  A    
C63   H27   S    
C4    O4    A    
Cu4   O7    S    
C13   C89   A    
C25   H38   S    
C18   C22   A    
C5    O5    A    
C68   H19   S    
C65   H18   S    
C112  O28   S    
C57   C65   A    
C52   C76   A    
C82   C90   A    
C8    C53   S    
C104  C111  A    
Cu3   O15   S    
C8    O8    A    
C16   C92   A    
C71   H24   S    
C22   H41   S    
C7    O15   A    
C98   C101  A    
C6    O6    A    
C60   H32   S    
C56   C80   A    
C51   C75   A    
Cu4   O6    S    
C4    C49   S    
C58   C90   A    
C60   C68   A    
C61   C69   A    
C108  O24   S    
C62   C94   A    
C67   H20   S    
C16   H8    S    
C106  O22   S    
O18   H50   S    
C80   C88   A    
C19   C35   A    
C18   H46   S    
C78   C86   A    
O17   H49   S    
C51   C67   A    
C81   C97   A    
Cu1   O11   S    
C79   H16   S    
Cu4   O16   S    
C31   C35   A    
C109  O25   S    
C31   C39   A    
C99   C104  A    
C45   H33   S    
C77   H14   S    
C64   C72   A    
O23   H55   S    
C1    C52   S    
C55   C71   A    
C2    C51   S    
C28   N4    A    
C15   C91   A    
O22   H54   S    
C20   C36   A    
C72   H23   S    
C70   H21   S    
Cu3   O5    S    
O21   H53   S    
C1    O1    A    
C76   H11   S    
C41   C45   A    
C12   C96   A    
C102  C109  A    
C2    O10   A    
C7    C54   S    
Cu3   Cu4   S    
Cu3   N4    S    
C1    O9    A    
C63   C71   A    
C110  O26   S    
C74   C82   A    
C9    H1    S    
C44   C48   A    
C27   N3    A    
C54   C78   A    
C59   H31   S    
