data_mof_unit_53680.cif
_audit_creation_date              2012-12-11T16:33:31-0500
_audit_creation_method            fapswitch 2.2
_symmetry_space_group_name_H-M    P1
_symmetry_Int_Tables_number       1
_space_group_crystal_system       triclinic
_cell_length_a                    6.962825
_cell_length_b                    18.078186
_cell_length_c                    20.441092
_cell_angle_alpha                 68.567022
_cell_angle_beta                  90.265488
_cell_angle_gamma                 90.638012
_cell_volume                      2394.94249274

loop_
_atom_site_label
_atom_site_type_symbol
_atom_type_description
_atom_site_fract_x
_atom_site_fract_y
_atom_site_fract_z
_atom_type_partial_charge
O1    O     O_R   0.488960 0.443750 0.941980 -0.535642
O2    O     O_R   0.823890 0.406510 0.087590 -0.516086
O3    O     O_R   0.999680 0.556250 0.058020 -0.533586
C1    C     C_R   0.655488 0.380462 0.112968 0.723970
O4    O     O_R   0.818360 0.434410 0.944340 -0.522640
O5    O     O_R   0.994110 0.584350 0.913750 -0.536921
C2    C     C_R   0.649953 0.423381 0.921591 0.707585
O6    O     O_R   0.494530 0.415650 0.086250 -0.543979
O7    O     O_3   0.662590 0.549160 0.990130 -0.355720
V1    V     V_3+5 0.935320 0.490880 0.001830 1.556453
O8    O     O_R   0.324180 0.593490 0.912410 -0.511558
C3    C     C_R   0.156802 0.619878 0.887491 0.747740
O9    O     O_R   0.329720 0.565590 0.055660 -0.542077
C4    C     C_R   0.161868 0.579272 0.076366 0.681924
V2    V     V_3+5 0.435990 0.509120 0.998170 1.533990
O10   O     O_3   0.158850 0.450840 0.009870 -0.349974
C5    C     C_3   0.012525 0.711878 0.303670 -0.013506
C6    C     C_3   0.196469 0.674469 0.287416 -0.178102
H1    H     H_    0.250206 0.614254 0.318505 0.128865
C7    C     C_1   0.155051 0.624279 0.122300 -0.146592
C8    C     C_1   0.110945 0.876689 0.376488 -0.063150
C9    C     C_3   0.955473 0.743152 0.224751 -0.220368
C10   C     C_3   0.141618 0.707119 0.208433 0.123747
C11   C     C_3   0.066814 0.822321 0.213959 -0.225020
C12   C     C_3   0.121303 0.790210 0.293106 0.131250
C13   C     C_3   0.251356 0.785197 0.197637 -0.006164
C14   C     C_3   0.301934 0.753623 0.276015 0.138832
C15   C     C_1   0.149086 0.661496 0.161145 0.089972
C16   C     C_1   0.116176 0.837536 0.339172 0.118289
H2    H     H_    0.015705 0.882933 0.182892 0.150070
H3    H     H_    0.812815 0.738722 0.202012 0.161541
C17   C     C_R   0.229818 0.786698 0.871016 -0.132631
C18   C     C_R   0.175910 0.859715 0.874632 0.131920
C19   C     C_R   0.084791 0.915868 0.817544 0.299251
C20   C     C_R   0.063479 0.902920 0.754073 -0.083019
C21   C     C_R   0.114548 0.828209 0.749338 -0.052667
C22   C     C_R   0.170674 0.766088 0.812646 0.024042
C23   C     C_R   0.111005 0.813316 0.684807 -0.137442
C24   C     C_R   0.117516 0.731962 0.687928 -0.030014
C25   C     C_R   0.140908 0.667972 0.754719 0.030760
C26   C     C_R   0.158935 0.685607 0.817090 -0.091352
C27   C     C_R   0.092850 0.710479 0.627363 -0.058876
C28   C     C_R   0.091507 0.631367 0.632787 -0.151486
C29   C     C_R   0.124857 0.570308 0.696077 0.179248
C30   C     C_R   0.152884 0.587524 0.756835 0.158869
H4    H     H_    0.072551 0.617182 0.585915 0.160355
C31   C     C_R   0.621336 0.091731 0.257063 -0.075627
C32   C     C_R   0.715231 0.069471 0.206685 0.017246
C33   C     C_R   0.779778 0.128493 0.144998 0.140346
C34   C     C_R   0.747199 0.209414 0.133416 -0.078618
C35   C     C_R   0.679552 0.232958 0.189411 -0.055182
C36   C     C_R   0.638416 0.171231 0.255010 0.075745
C37   C     C_R   0.653651 0.314147 0.183200 -0.113792
C38   C     C_R   0.625006 0.332831 0.244941 0.057591
C39   C     C_R   0.597669 0.270089 0.311913 -0.098854
C40   C     C_R   0.613213 0.188474 0.317131 -0.097010
C41   C     C_R   0.630881 0.413753 0.241608 0.138661
C42   C     C_R   0.568244 0.433493 0.298718 -0.050706
C43   C     C_R   0.525944 0.372234 0.362686 0.121769
C44   C     C_R   0.551336 0.292281 0.370603 -0.026135
O11   O     O_R   0.770540 0.084530 0.414050 -0.543297
O12   O     O_R   0.445710 0.065660 0.555720 -0.510847
O13   O     O_R   0.270420 0.915650 0.586190 -0.540633
C45   C     C_R   0.613755 0.076712 0.578550 0.706515
O14   O     O_R   0.441140 0.093540 0.412470 -0.513470
O15   O     O_R   0.265820 0.943740 0.441930 -0.554945
C46   C     C_R   0.609501 0.119147 0.386417 0.661555
O16   O     O_R   0.775150 0.056440 0.558310 -0.538529
O17   O     O_3   0.602370 0.950960 0.510050 -0.379280
V3    V     V_3+5 0.329450 0.009140 0.498150 1.581642
O18   O     O_R   0.935790 0.934280 0.444060 -0.512841
C47   C     C_R   0.103451 0.923458 0.421119 0.764817
O19   O     O_R   0.940370 0.906390 0.587310 -0.547192
C48   C     C_R   0.107883 0.882919 0.615406 0.656104
V4    V     V_3+5 0.828810 0.990710 0.501460 1.549134
O20   O     O_3   0.105780 0.049100 0.489960 -0.349740
C49   C     C_3   0.692601 0.321859 0.713514 0.146137
C50   C     C_3   0.511910 0.281873 0.697567 0.171998
C51   C     C_1   0.620631 0.121567 0.624315 -0.062761
C52   C     C_1   0.642185 0.378334 0.875866 -0.162545
C53   C     C_3   0.805118 0.245062 0.726235 0.134544
C54   C     C_3   0.624413 0.204749 0.709715 -0.001389
C55   C     C_3   0.751977 0.214914 0.805212 -0.076039
C56   C     C_3   0.638423 0.292690 0.792280 0.010827
C57   C     C_3   0.569198 0.174520 0.788918 -0.089679
C58   C     C_3   0.457760 0.252178 0.775898 0.133833
C59   C     C_1   0.622511 0.158953 0.662846 0.098758
C60   C     C_1   0.639894 0.340312 0.837774 0.054566
N1    N     N_3   0.012995 0.987402 0.823486 -0.621033
H5    H     H_    0.913371 0.971623 0.864562 0.243991
H6    H     H_    0.126889 0.017680 0.836272 0.267615
C61   C     C_2   0.960788 0.965121 0.698033 0.464572
H7    H     H_    0.823887 0.950887 0.679957 0.029415
O21   O     O_2   0.025965 0.032712 0.673743 -0.515811
C62   C     C_2   0.074994 0.766735 0.555340 0.415547
H8    H     H_    0.195377 0.805260 0.531993 0.010226
O22   O     O_2   0.931175 0.766501 0.521003 -0.495862
N2    N     N_3   0.204421 0.522530 0.819638 -0.640918
H9    H     H_    0.327934 0.495895 0.809816 0.244481
H10   H     H_    0.092591 0.480612 0.833333 0.235236
N3    N     N_3   0.465834 0.390209 0.422514 -0.636381
H11   H     H_    0.577038 0.420120 0.437369 0.207611
H12   H     H_    0.344044 0.426005 0.409052 0.230886
C63   C     C_2   0.464031 0.039005 0.297446 0.360028
H13   H     H_    0.486089 0.976039 0.325158 0.095448
O23   O     O_2   0.303673 0.065873 0.297083 -0.532019
C64   C     C_2   0.734250 0.984785 0.215015 0.294341
H14   H     H_    0.735361 0.967849 0.169289 0.087818
O24   O     O_2   0.756311 0.933450 0.272979 -0.556997
N4    N     N_3   0.867030 0.104936 0.092058 -0.679032
H15   H     H_    0.783959 0.125628 0.046329 0.260414
H16   H     H_    0.004865 0.129858 0.081412 0.287838
C65   C     C_2   0.780366 0.265499 0.061477 0.441057
H17   H     H_    0.657557 0.292486 0.029593 -0.008656
O25   O     O_2   0.942623 0.279664 0.037381 -0.502998
C66   C     C_2   0.884710 0.666646 0.363986 0.423053
H18   H     H_    0.821580 0.610597 0.366558 0.015254
O26   O     O_2   0.851610 0.692062 0.410408 -0.481662
N5    N     N_3   0.723072 0.474479 0.183569 -0.635006
H19   H     H_    0.830544 0.502610 0.202195 0.239032
H20   H     H_    0.621698 0.515695 0.154540 0.280071
C67   C     C_2   0.556591 0.517962 0.294046 0.295747
H21   H     H_    0.558065 0.532115 0.341131 0.051747
O27   O     O_2   0.540023 0.573145 0.237975 -0.543280
C68   C     C_2   0.537244 0.234975 0.443011 0.485386
H22   H     H_    0.663964 0.202458 0.467525 -0.032167
O28   O     O_2   0.387414 0.226592 0.475907 -0.503467
N6    N     N_3   0.380150 0.318729 0.639527 -0.604986
H23   H     H_    0.332515 0.371390 0.643748 0.241997
H24   H     H_    0.459377 0.334711 0.593026 0.236763
N7    N     N_3   0.759858 0.401387 0.671108 -0.668744
H25   H     H_    0.776918 0.403471 0.619703 0.231629
H26   H     H_    0.650235 0.440824 0.670036 0.236522
N8    N     N_3   0.267561 0.256517 0.803117 -0.607492
H27   H     H_    0.230076 0.316446 0.785554 0.264376
H28   H     H_    0.279760 0.237189 0.857761 0.240360
C69   C     C_2   0.500123 0.092832 0.833049 0.385251
H29   H     H_    0.451621 0.080695 0.886342 0.049093
O29   O     O_2   0.499725 0.039648 0.809676 -0.522931
C70   C     C_2   0.885242 0.174740 0.865034 0.411259
H30   H     H_    0.958723 0.121278 0.867558 0.056423
O30   O     O_2   0.911641 0.201688 0.911059 -0.528255
N9    N     N_3   0.995519 0.242022 0.698416 -0.569149
H31   H     H_    0.034001 0.182252 0.714936 0.272515
H32   H     H_    0.983897 0.262743 0.643690 0.250314
N10   N     N_3   0.490369 0.758348 0.304763 -0.611090
H33   H     H_    0.535219 0.817582 0.283352 0.254776
H34   H     H_    0.581013 0.726257 0.284874 0.234156
C71   C     C_2   0.390684 0.828065 0.140381 0.359631
H35   H     H_    0.454720 0.883738 0.138551 0.034905
O31   O     O_2   0.433462 0.800735 0.096030 -0.533299
N11   N     N_3   0.140843 0.489852 0.699022 -0.683745
H36   H     H_    0.124048 0.487074 0.649111 0.245795
H37   H     H_    0.027688 0.456942 0.729764 0.265616
C72   C     C_2   0.376260 0.741031 0.922008 0.395204
H38   H     H_    0.357434 0.727886 0.977776 0.057974
O32   O     O_2   0.526141 0.722828 0.901245 -0.508344
N12   N     N_3   0.215321 0.878720 0.935773 -0.664417
H39   H     H_    0.363891 0.878702 0.943396 0.270969
H40   H     H_    0.152138 0.835058 0.979399 0.242619

loop_
_geom_bond_atom_site_label_1
_geom_bond_atom_site_label_2
_ccdc_geom_bond_type
C39   C40   A    
N3    H11   S    
C1    C37   S    
C72   O32   D    
O19   V4    S    
O19   C48   A    
C62   H8    S    
C1    O6    A    
C50   N6    S    
N6    H23   S    
C51   C59   T    
C53   C54   S    
O15   V3    S    
C49   C50   S    
O11   V4    S    
O16   V4    S    
C69   O29   D    
C13   C14   S    
C29   N11   S    
C22   C26   A    
C45   O16   A    
C21   C22   A    
C70   O30   D    
C6    H1    S    
C30   N2    S    
C71   O31   D    
O5    C3    A    
C23   C24   A    
C32   C64   S    
N9    H31   S    
C18   N12   S    
C66   H18   S    
O12   V3    S    
C19   C20   A    
C49   N7    S    
C10   C13   S    
O11   C46   A    
N4    H15   S    
C55   C70   S    
O12   C45   A    
N4    H16   S    
C65   H17   S    
O8    V2    S    
C58   N8    S    
O15   C47   A    
C20   C21   A    
O14   C46   A    
C64   H14   S    
O1    V2    S    
N1    H6    S    
O7    V1    S    
C41   N5    S    
C20   C61   S    
C50   C58   S    
C43   C44   A    
N3    H12   S    
O9    C4    A    
N12   H40   S    
C64   O24   D    
C63   O23   D    
C63   H13   S    
C53   C55   S    
C5    C6    S    
C24   C27   A    
N10   H34   S    
N5    H20   S    
C12   C16   S    
C25   C30   A    
C42   C67   S    
C9    H3    S    
C8    C47   S    
C27   C62   S    
C43   N3    S    
C31   C32   A    
C4    C7    S    
C18   C19   A    
C70   H30   S    
C24   C25   A    
O4    C2    A    
N8    H28   S    
C7    C15   T    
C49   C56   S    
C44   C68   S    
C42   C43   A    
C37   C38   A    
C8    C16   T    
C35   C36   A    
C35   C37   A    
O14   V3    S    
O2    C1    A    
V4    O20   S    
C3    C26   S    
C17   C72   S    
C50   C54   S    
C55   C56   S    
O13   V3    S    
C49   C53   S    
N5    H19   S    
C61   O21   D    
C34   C35   A    
C17   C22   A    
C11   C12   S    
C57   C58   S    
C31   C36   A    
O3    C4    A    
C25   C26   A    
C55   C57   S    
N11   H37   S    
N2    H9    S    
O6    V2    S    
N2    H10   S    
O9    V2    S    
C28   C29   A    
V3    O20   S    
N12   H39   S    
C45   C51   S    
C9    C11   S    
C10   C15   S    
C27   C28   A    
C67   O27   D    
N7    H25   S    
C54   C57   S    
C57   C69   S    
C2    C52   S    
C29   C30   A    
N10   H33   S    
C23   C48   S    
N9    H32   S    
C38   C39   A    
C32   C33   A    
C31   C63   S    
O1    C2    A    
C14   N10   S    
C13   C71   S    
C6    C14   S    
C56   C60   S    
C11   C13   S    
N7    H26   S    
N6    H24   S    
O5    V1    S    
O8    C3    A    
C62   O22   D    
N8    H27   S    
O13   C48   A    
C12   C14   S    
C40   C46   S    
C69   H29   S    
C5    C9    S    
C34   C65   S    
C5    C12   S    
C17   C18   A    
C21   C23   A    
C67   H21   S    
C19   N1    S    
O4    V1    S    
C52   C60   T    
O3    V1    S    
V1    O10   S    
C71   H35   S    
O18   V4    S    
C41   C42   A    
C68   H22   S    
C6    C10   S    
V2    O10   S    
C61   H7    S    
C66   O26   D    
O17   V4    S    
O7    V2    S    
O17   V3    S    
C28   H4    S    
C11   H2    S    
C54   C59   S    
C53   N9    S    
O18   C47   A    
N11   H36   S    
C33   C34   A    
C72   H38   S    
C68   O28   D    
C9    C10   S    
C56   C58   S    
N1    H5    S    
C39   C44   A    
C36   C40   A    
C5    C66   S    
C33   N4    S    
C65   O25   D    
C38   C41   A    
O2    V1    S    
