data_mof_unit_6810.cif
_audit_creation_date              2012-12-10T16:54:57-0500
_audit_creation_method            fapswitch 2.2
_symmetry_space_group_name_H-M    P1
_symmetry_Int_Tables_number       1
_space_group_crystal_system       triclinic
_cell_length_a                    7.813152
_cell_length_b                    8.595152
_cell_length_c                    15.71088
_cell_angle_alpha                 91.718237
_cell_angle_beta                  85.536742
_cell_angle_gamma                 93.094456
_cell_volume                      1049.98212152

loop_
_atom_site_label
_atom_site_type_symbol
_atom_type_description
_atom_site_fract_x
_atom_site_fract_y
_atom_site_fract_z
_atom_type_partial_charge
C1    C     C_R   0.544406 0.794195 0.498104 0.906359
C2    C     C_3   0.392720 0.634225 0.055725 -0.478946
C3    C     C_3   0.499095 0.499502 0.082761 0.147136
C4    C     C_3   0.417137 0.343540 0.049274 -0.335867
C5    C     C_3   0.421444 0.342965 0.950985 -0.352068
C6    C     C_1   0.496009 0.499706 0.174383 0.002872
C7    C     C_1   0.503858 0.500165 0.825677 -0.012821
C8    C     C_1   0.504245 0.499994 0.750291 -0.088097
C9    C     C_2   0.563361 0.955809 0.511183 0.130078
C10   C     C_2   0.437679 0.043693 0.487864 -0.018402
C11   C     C_R   0.501445 0.500170 0.661504 0.890830
C12   C     C_R   0.455714 0.205637 0.501487 0.940986
C13   C     C_R   0.498556 0.499792 0.338508 0.897475
C14   C     C_3   0.396069 0.637290 0.957224 0.148623
C15   C     C_3   0.687400 0.521942 0.944235 -0.452029
C16   C     C_3   0.687028 0.524042 0.042751 0.268083
C17   C     C_1   0.495690 0.499844 0.249750 -0.068312
C18   C     C_3   0.500881 0.500611 0.917304 0.156790
H1    H     H_    0.446593 0.747851 0.080422 0.168335
H2    H     H_    0.258324 0.619441 0.084519 0.256031
H3    H     H_    0.486724 0.243185 0.069770 0.217849
H4    H     H_    0.986420 0.615229 0.565993 0.189328
H5    H     H_    0.459778 0.749717 0.935437 0.135407
H6    H     H_    0.765340 0.426573 0.915142 0.250574
H7    H     H_    0.748455 0.633458 0.919633 0.192429
H8    H     H_    0.741035 0.639688 0.064556 0.139770
H9    H     H_    0.288951 0.320925 0.930553 0.233141
H10   H     H_    0.498912 0.245655 0.923938 0.189551
H11   H     H_    0.281502 0.327868 0.076374 0.224798
N1    N     N_2   0.950340 0.457950 0.477370 0.068762
N2    N     N_2   0.049660 0.542050 0.522630 -0.103049
O1    O     O_R   0.389240 0.738570 0.505550 -0.602873
O2    O     O_R   0.678400 0.711630 0.491050 -0.598838
O3    O     O_R   0.355360 0.513470 0.630110 -0.610224
O4    O     O_R   0.644510 0.486530 0.615610 -0.621702
O5    O     O_R   0.321600 0.288370 0.508950 -0.568242
O6    O     O_R   0.610760 0.261430 0.494450 -0.567953
O7    O     O_R   0.355490 0.513470 0.384390 -0.577789
O8    O     O_R   0.644640 0.486530 0.369890 -0.592210
Zn1   Zn    Zn3+2 0.306930 0.517990 0.509680 1.079232
Zn2   Zn    Zn3+2 0.693070 0.482010 0.490320 1.091667
Br1   Br    Br    0.162159 0.634072 0.920671 -0.515782
Cl1   Cl    Cl    0.730066 0.020323 0.577051 -0.546025
Br2   Br    Br    0.259399 0.973928 0.413786 -0.387938
Br3   Br    Br    0.039959 0.321998 0.391798 -0.237267
Cl2   Cl    Cl    0.826369 0.381494 0.076084 -0.589672

loop_
_geom_bond_atom_site_label_1
_geom_bond_atom_site_label_2
_ccdc_geom_bond_type
C14   H5    S    
C15   C18   S    
N1    Zn2   S    
C12   O5    A    
C5    H10   S    
C9    C10   D    
C14   C18   S    
N1    Br3   S    
C4    H11   S    
C11   O3    A    
C13   C17   S    
C14   Br1   S    
C3    C6    S    
O2    Zn2   S    
C7    C18   S    
C11   O4    A    
C2    C3    S    
C1    O2    A    
C7    C8    T    
O8    Zn2   S    
O7    Zn1   S    
C4    H3    S    
C13   O7    A    
C10   C12   S    
C8    C11   S    
C2    C14   S    
C15   H6    S    
O1    Zn1   S    
O6    Zn2   S    
N1    N2    D    
O4    Zn2   S    
O3    Zn1   S    
C9    Cl1   S    
C13   O8    A    
H4    N2    S    
C2    H2    S    
C3    C4    S    
O5    Zn1   S    
C1    C9    S    
N2    Zn1   S    
C15   H7    S    
C16   Cl2   S    
C12   O6    A    
C6    C17   T    
C5    C18   S    
C2    H1    S    
C5    H9    S    
C10   Br2   S    
C1    O1    A    
C3    C16   S    
C15   C16   S    
C4    C5    S    
C16   H8    S    
