data_mof_unit_44741.cif
_audit_creation_date              2013-03-05T15:40:28-0500
_audit_creation_method            fapswitch 2.2
_symmetry_space_group_name_H-M    P1
_symmetry_Int_Tables_number       1
_space_group_crystal_system       triclinic
_cell_length_a                    19.704206
_cell_length_b                    11.200429
_cell_length_c                    19.882014
_cell_angle_alpha                 89.703966
_cell_angle_beta                  90.553278
_cell_angle_gamma                 90.37434
_cell_volume                      4387.51684379

loop_
_atom_site_label
_atom_site_type_symbol
_atom_site_description
_atom_site_fract_x
_atom_site_fract_y
_atom_site_fract_z
_atom_type_partial_charge
O1    O     O_R   0.215090 0.709860 0.828130 -0.510746
O2    O     O_R   0.784910 0.709860 0.171870 -0.499595
O3    O     O_R   0.715090 0.209860 0.828130 -0.488905
O4    O     O_R   0.284910 0.209860 0.171870 -0.494480
O5    O     O_R   0.236990 0.958390 0.823710 -0.471476
O6    O     O_R   0.763010 0.958390 0.176290 -0.463616
O7    O     O_R   0.736990 0.458390 0.823710 -0.459331
O8    O     O_R   0.263010 0.458390 0.176290 -0.458131
C1    C     C_R   0.276455 0.036038 0.853739 0.618777
C2    C     C_R   0.724362 0.037726 0.147012 0.612291
C3    C     C_R   0.784629 0.513516 0.858626 0.604401
C4    C     C_R   0.213703 0.509847 0.141575 0.599333
O9    O     O_R   0.332380 0.074750 0.830850 -0.486481
O10   O     O_R   0.667620 0.074750 0.169150 -0.481443
O11   O     O_R   0.832380 0.574750 0.830850 -0.482559
O12   O     O_R   0.167620 0.574750 0.169150 -0.482368
O13   O     O_R   0.445800 0.917770 0.825070 -0.548092
O14   O     O_R   0.554200 0.917770 0.174930 -0.547014
O15   O     O_R   0.945800 0.417770 0.825070 -0.559667
O16   O     O_R   0.054200 0.417770 0.174930 -0.557123
C5    C     C_R   0.460089 0.820024 0.857607 0.565099
C6    C     C_R   0.538151 0.820403 0.142841 0.562415
C7    C     C_R   0.962377 0.319940 0.857105 0.565060
C8    C     C_R   0.040251 0.319973 0.142606 0.555913
O17   O     O_R   0.456410 0.716580 0.829970 -0.451062
O18   O     O_R   0.543590 0.716580 0.170030 -0.441676
O19   O     O_R   0.956410 0.216580 0.829970 -0.420694
O20   O     O_R   0.043590 0.216580 0.170030 -0.455356
O21   O     O_R   0.321080 0.625290 0.822650 -0.470756
O22   O     O_R   0.678920 0.625290 0.177350 -0.471209
O23   O     O_R   0.821080 0.125290 0.822650 -0.488579
O24   O     O_R   0.178920 0.125290 0.177350 -0.464226
C9    C     C_R   0.262632 0.643837 0.851765 0.552259
C10   C     C_R   0.736797 0.645670 0.147585 0.553983
C11   C     C_R   0.762973 0.145795 0.852793 0.552929
C12   C     C_R   0.237986 0.142136 0.148093 0.557703
O25   O     O_R   0.214930 0.711450 0.668160 -0.458042
O26   O     O_R   0.785070 0.711450 0.331840 -0.446084
O27   O     O_R   0.714930 0.211450 0.668160 -0.447302
O28   O     O_R   0.285070 0.211450 0.331840 -0.450516
O29   O     O_R   0.236850 0.959870 0.675420 -0.450298
O30   O     O_R   0.763150 0.959870 0.324580 -0.447115
O31   O     O_R   0.736850 0.459870 0.675420 -0.449179
O32   O     O_R   0.263150 0.459870 0.324580 -0.444286
C13   C     C_R   0.278414 0.033285 0.644955 0.616310
C14   C     C_R   0.721989 0.034083 0.354575 0.614512
C15   C     C_R   0.778174 0.533830 0.645067 0.620103
C16   C     C_R   0.221924 0.533714 0.354619 0.615322
O33   O     O_R   0.332230 0.076350 0.670880 -0.443918
O34   O     O_R   0.667770 0.076350 0.329120 -0.446970
O35   O     O_R   0.832230 0.576350 0.670880 -0.440848
O36   O     O_R   0.167770 0.576350 0.329120 -0.443435
O37   O     O_R   0.445660 0.919250 0.676780 -0.457717
O38   O     O_R   0.554340 0.919250 0.323220 -0.459804
O39   O     O_R   0.945660 0.419250 0.676780 -0.458931
O40   O     O_R   0.054340 0.419250 0.323220 -0.459584
C17   C     C_R   0.457024 0.820631 0.643346 0.571690
C18   C     C_R   0.538946 0.820562 0.355931 0.579242
C19   C     C_R   0.958196 0.320849 0.643721 0.571059
C20   C     C_R   0.039642 0.320650 0.356174 0.581230
O41   O     O_R   0.456260 0.718170 0.670000 -0.436127
O42   O     O_R   0.543740 0.718170 0.330000 -0.421951
O43   O     O_R   0.956260 0.218170 0.670000 -0.432827
O44   O     O_R   0.043740 0.218170 0.330000 -0.423353
O45   O     O_R   0.320940 0.626760 0.674370 -0.468047
O46   O     O_R   0.679060 0.626760 0.325630 -0.461486
O47   O     O_R   0.820940 0.126760 0.674370 -0.466463
O48   O     O_R   0.179060 0.126760 0.325630 -0.457705
C21   C     C_R   0.263238 0.650645 0.643504 0.567473
C22   C     C_R   0.737218 0.648658 0.356252 0.572942
C23   C     C_R   0.762879 0.149447 0.643763 0.567402
C24   C     C_R   0.237244 0.148743 0.356247 0.574291
Cr1   Cr    Cr6+3 0.230530 0.836340 0.748870 1.134201
Cr2   Cr    Cr6+3 0.769470 0.836340 0.251130 1.146778
Cr3   Cr    Cr6+3 0.730530 0.336340 0.748870 1.146711
Cr4   Cr    Cr6+3 0.269470 0.336340 0.251130 1.144793
Cr5   Cr    Cr6+3 0.387420 0.989430 0.750820 1.121987
Cr6   Cr    Cr6+3 0.612580 0.989430 0.249180 1.116143
Cr7   Cr    Cr6+3 0.887420 0.489430 0.750820 1.118528
Cr8   Cr    Cr6+3 0.112580 0.489430 0.249180 1.115780
Cr9   Cr    Cr6+3 0.385640 0.677860 0.749230 1.138663
Cr10  Cr    Cr6+3 0.614360 0.677860 0.250770 1.146281
Cr11  Cr    Cr6+3 0.885640 0.177860 0.749230 1.149704
Cr12  Cr    Cr6+3 0.114360 0.177860 0.250770 1.140953
O49   O     O_3   0.334530 0.834540 0.749640 -0.361282
O50   O     O_3   0.665470 0.834540 0.250360 -0.359616
O51   O     O_3   0.834530 0.334540 0.749640 -0.368478
O52   O     O_3   0.165470 0.334540 0.250360 -0.371135
C25   C     C_R   0.515604 0.825365 0.070378 -0.052722
C26   C     C_R   0.481073 0.824966 0.930203 -0.053353
C27   C     C_R   0.019917 0.323753 0.069890 -0.055024
C28   C     C_R   0.986028 0.323405 0.930094 -0.046032
C29   C     C_R   0.507976 0.936110 0.034907 -0.083769
C30   C     C_R   0.491654 0.936148 0.964452 -0.081340
C31   C     C_R   0.011335 0.434353 0.034826 -0.083499
C32   C     C_R   0.993424 0.434244 0.964493 -0.087166
C33   C     C_R   0.485514 0.715360 0.966996 0.218067
C34   C     C_R   0.510475 0.716198 0.033760 0.224662
C35   C     C_R   0.994308 0.213271 0.966758 0.236789
C36   C     C_R   0.016318 0.213334 0.034602 0.208459
C37   C     C_R   0.518466 0.048792 0.065897 -0.034546
C38   C     C_R   0.486309 0.049630 0.932214 -0.025974
C39   C     C_R   0.020494 0.547663 0.065489 -0.037169
C40   C     C_R   0.983467 0.547251 0.933142 -0.045544
C41   C     C_R   0.012370 0.654079 0.031805 0.255955
C42   C     C_R   0.993112 0.653984 0.965750 0.253088
C43   C     C_R   0.521162 0.155075 0.030350 0.256953
C44   C     C_R   0.502317 0.156314 0.963205 0.260331
H1    H     H_    0.522530 0.065313 0.118381 0.203062
H2    H     H_    0.472319 0.066614 0.881412 0.218017
H3    H     H_    0.032387 0.565701 0.116317 0.217779
H4    H     H_    0.971311 0.565140 0.882265 0.216424
C45   C     C_2   0.249653 0.610224 0.922571 -0.116092
C46   C     C_2   0.748055 0.616467 0.076167 -0.109676
C47   C     C_2   0.752621 0.121806 0.925236 -0.101301
C48   C     C_2   0.254039 0.100037 0.079162 -0.127387
C49   C     C_2   0.228299 0.551052 0.072471 0.269659
C50   C     C_2   0.768877 0.557112 0.926445 0.274474
C51   C     C_2   0.736892 0.081386 0.078567 0.269240
C52   C     C_2   0.266634 0.075433 0.923413 0.275279
C53   C     C_2   0.273686 0.497692 0.032526 0.218144
C54   C     C_2   0.724558 0.501970 0.967218 0.219658
C55   C     C_2   0.786430 0.035083 0.040426 0.213778
C56   C     C_2   0.213683 0.036436 0.960149 0.192518
C57   C     C_2   0.283568 0.528059 0.958072 -0.113740
C58   C     C_2   0.715521 0.531574 0.041389 -0.110145
C59   C     C_2   0.788411 0.046941 0.964699 -0.111713
C60   C     C_2   0.209378 0.048650 0.035999 -0.142488
H5    H     H_    0.317991 0.472837 0.932599 0.210909
H6    H     H_    0.682698 0.473221 0.068474 0.205810
H7    H     H_    0.819136 0.981361 0.940880 0.192421
H8    H     H_    0.167094 0.004664 0.057072 0.244410
H9    H     H_    0.209952 0.664039 0.944165 0.179721
H10   H     H_    0.785541 0.675227 0.053656 0.185841
H11   H     H_    0.713546 0.178486 0.945442 0.193835
H12   H     H_    0.304625 0.128989 0.063020 0.181120
C61   C     C_2   0.480147 0.820835 0.573451 -0.143202
C62   C     C_2   0.512454 0.820461 0.426354 -0.138833
C63   C     C_2   0.981260 0.321391 0.573810 -0.142894
C64   C     C_2   0.013121 0.321347 0.426534 -0.138616
C65   C     C_2   0.506142 0.717853 0.464404 0.163879
C66   C     C_2   0.478311 0.718712 0.536000 0.154449
C67   C     C_2   0.007380 0.219319 0.464918 0.163788
C68   C     C_2   0.978887 0.219830 0.535974 0.151239
H13   H     H_    0.501543 0.907393 0.446912 0.115432
H14   H     H_    0.496249 0.906401 0.553350 0.117328
H15   H     H_    0.001484 0.408339 0.446685 0.115795
H16   H     H_    0.997967 0.406777 0.553883 0.117052
C69   C     C_2   0.251843 0.611340 0.574573 -0.078021
C70   C     C_2   0.748887 0.609760 0.425215 -0.073049
C71   C     C_2   0.751552 0.110759 0.574754 -0.073823
C72   C     C_2   0.249167 0.109532 0.425166 -0.069980
C73   C     C_2   0.236077 0.569478 0.423762 0.177907
C74   C     C_2   0.763413 0.571727 0.576149 0.188454
C75   C     C_2   0.735809 0.070308 0.423728 0.182591
C76   C     C_2   0.264047 0.070304 0.575859 0.190259
C77   C     C_2   0.190745 0.632190 0.462577 0.216012
C78   C     C_2   0.810150 0.634409 0.536804 0.193828
C79   C     C_2   0.689698 0.131612 0.462878 0.207872
C80   C     C_2   0.310539 0.133688 0.536759 0.196958
C81   C     C_2   0.203677 0.662975 0.534440 0.197442
C82   C     C_2   0.799420 0.659550 0.464093 0.191773
C83   C     C_2   0.701132 0.158776 0.535548 0.199883
C84   C     C_2   0.299423 0.159713 0.464150 0.190254
H17   H     H_    0.286782 0.546884 0.558006 0.146671
H18   H     H_    0.712402 0.547609 0.442689 0.169302
H19   H     H_    0.788713 0.051170 0.557336 0.144454
H20   H     H_    0.213152 0.046485 0.442422 0.175279
S1    S     S_3+6 0.469046 0.569054 0.930924 0.073353
O53   O     O_2   0.532450 0.532118 0.894356 -0.237372
O54   O     O_2   0.445404 0.474860 0.979242 -0.240579
O55   O     O_3   0.407393 0.554783 0.879979 -0.497611
H21   H     H_    0.425032 0.518345 0.839213 0.392481
S2    S     S_3+6 0.531664 0.571930 0.067506 0.059451
O56   O     O_2   0.469009 0.521706 0.101020 -0.255028
O57   O     O_2   0.561387 0.489810 0.016960 -0.256006
O58   O     O_3   0.592129 0.560037 0.119406 -0.489081
H22   H     H_    0.576545 0.508420 0.155938 0.385097
S3    S     S_3+6 0.975792 0.070175 0.930365 0.073466
O59   O     O_2   0.030977 0.035594 0.881737 -0.216681
O60   O     O_2   0.954508 0.967485 0.972846 -0.259278
O61   O     O_3   0.904655 0.077746 0.893002 -0.508447
H23   H     H_    0.906975 0.012630 0.858309 0.386892
S4    S     S_3+6 0.029135 0.067260 0.072878 0.063746
O62   O     O_2   0.961589 0.028420 0.102324 -0.250206
O63   O     O_2   0.056975 0.977725 0.026015 -0.262562
O64   O     O_3   0.086093 0.044089 0.131662 -0.469879
H24   H     H_    0.062520 0.013658 0.173641 0.381107
S5    S     S_3+6 0.112686 0.688355 0.425824 0.031227
O65   O     O_2   0.129265 0.774037 0.369006 -0.215969
O66   O     O_2   0.072790 0.584279 0.400549 -0.304595
O67   O     O_3   0.055683 0.752961 0.470782 -0.499597
H25   H     H_    0.015347 0.750943 0.439935 0.422936
S6    S     S_3+6 0.888693 0.692552 0.574360 0.011407
O68   O     O_2   0.871403 0.770238 0.633264 -0.222523
O69   O     O_2   0.927696 0.584874 0.596958 -0.315236
O70   O     O_3   0.946947 0.769797 0.534000 -0.475551
H26   H     H_    0.988713 0.745679 0.559917 0.415938
S7    S     S_3+6 0.611096 0.186103 0.425553 0.024442
O71   O     O_2   0.627196 0.271434 0.368475 -0.217755
O72   O     O_2   0.573523 0.079499 0.400750 -0.306777
O73   O     O_3   0.551052 0.247978 0.468041 -0.506208
H27   H     H_    0.510808 0.239242 0.437388 0.417649
S8    S     S_3+6 0.388513 0.193525 0.574546 0.010997
O74   O     O_2   0.370397 0.271064 0.633272 -0.227847
O75   O     O_2   0.428566 0.087242 0.597567 -0.312592
O76   O     O_3   0.445845 0.272406 0.533905 -0.469089
H28   H     H_    0.487817 0.251420 0.560392 0.416547
O77   O     O_3   0.169155 0.760351 0.558584 -0.579889
H29   H     H_    0.120995 0.737344 0.562923 0.380634
O78   O     O_3   0.838571 0.749515 0.436309 -0.582270
H30   H     H_    0.886785 0.729727 0.441478 0.385213
O79   O     O_3   0.663188 0.249853 0.562218 -0.588090
H31   H     H_    0.614763 0.229278 0.558831 0.382640
O80   O     O_3   0.337906 0.251034 0.436896 -0.578957
H32   H     H_    0.386144 0.230372 0.440815 0.382811
O81   O     O_3   0.295432 0.525644 0.448421 -0.691778
H33   H     H_    0.326469 0.595001 0.447861 0.346109
O82   O     O_3   0.703256 0.526651 0.551734 -0.693561
H34   H     H_    0.673244 0.596255 0.544998 0.320917
O83   O     O_3   0.795482 0.026990 0.448239 -0.692503
H35   H     H_    0.825274 0.097898 0.451559 0.338839
O84   O     O_3   0.204633 0.023550 0.550976 -0.695269
H36   H     H_    0.172885 0.091405 0.547717 0.319442
O85   O     O_3   0.022290 0.756694 0.068479 -0.626274
H37   H     H_    0.985997 0.811673 0.053741 0.403235
O86   O     O_3   0.985816 0.756289 0.927861 -0.631891
H38   H     H_    0.023751 0.809568 0.941818 0.394049
O87   O     O_3   0.540669 0.256076 0.064757 -0.643495
H39   H     H_    0.503744 0.314302 0.056199 0.390757
O88   O     O_3   0.498212 0.258827 0.924349 -0.632323
H40   H     H_    0.526322 0.320968 0.946750 0.407184
O89   O     O_3   0.312593 0.407060 0.060490 -0.673445
H41   H     H_    0.348156 0.384793 0.028397 0.367071
O90   O     O_3   0.686415 0.409223 0.940073 -0.676507
H42   H     H_    0.652201 0.383343 0.973135 0.372414
O91   O     O_3   0.832299 0.962140 0.072491 -0.647167
H43   H     H_    0.866470 0.938859 0.039928 0.390478
O92   O     O_3   0.159637 0.988470 0.924373 -0.617318
H44   H     H_    0.138099 0.928050 0.955953 0.363420
O93   O     O_3   0.187895 0.643928 0.049835 -0.713966
H45   H     H_    0.218715 0.714535 0.053216 0.318406
O94   O     O_3   0.807188 0.653501 0.947028 -0.713070
H46   H     H_    0.774719 0.720580 0.945281 0.315358
O95   O     O_3   0.688576 0.155947 0.052490 -0.702219
H47   H     H_    0.712064 0.233615 0.048220 0.311903
O96   O     O_3   0.319568 0.138909 0.951205 -0.718816
H48   H     H_    0.299314 0.213588 0.968037 0.318649
S9    S     S_3+6 0.524572 0.572858 0.428746 0.121539
O97   O     O_2   0.471232 0.548954 0.375624 -0.183381
O98   O     O_2   0.592746 0.571371 0.398186 -0.285346
O99   O     O_3   0.531401 0.454062 0.476504 -0.335616
H49   H     H_    0.579404 0.453974 0.492505 0.406614
S10   S     S_3+6 0.456920 0.569915 0.567573 0.091432
O100  O     O_2   0.523368 0.519091 0.590181 -0.222302
O101  O     O_2   0.413577 0.542547 0.626918 -0.223931
O102  O     O_3   0.416150 0.496193 0.506238 -0.403072
H50   H     H_    0.380472 0.447087 0.528095 0.420114
S11   S     S_3+6 0.027893 0.074717 0.430740 0.117913
O103  O     O_2   0.974896 0.045608 0.378130 -0.178975
O104  O     O_2   0.095601 0.076127 0.400122 -0.289738
O105  O     O_3   0.037482 0.958927 0.480341 -0.340661
H51   H     H_    0.085306 0.963504 0.496919 0.403718
S12   S     S_3+6 0.956861 0.070878 0.566841 0.092334
O106  O     O_2   0.022203 0.020615 0.593101 -0.218274
O107  O     O_2   0.911079 0.044995 0.624080 -0.225893
O108  O     O_3   0.918986 0.994774 0.504484 -0.399442
H52   H     H_    0.882357 0.946197 0.525223 0.419591

loop_
_geom_bond_atom_site_label_1
_geom_bond_atom_site_label_2
_geom_bond_distance
_ccdc_geom_bond_type
C18   O42   1.264290 A    
C78   C82   1.484772 S    
S6    O69   1.498958 D    
C16   C73   1.457685 S    
O4    C12   1.280556 A    
C37   C43   1.382248 A    
C29   C30   1.434194 A    
O39   C19   1.312215 A    
O20   Cr12  2.160325 S    
C65   S9    1.815618 S    
S1    O53   1.512603 D    
Cr11  O51   2.029112 S    
C31   C32   1.438914 A    
C22   C70   1.453161 S    
C64   C67   1.375517 D    
C28   C32   1.426411 A    
C61   C66   1.368146 D    
S11   O105  1.636015 S    
C51   C55   1.349730 D    
C40   C42   1.374125 A    
C33   C34   1.411188 A    
C33   S1    1.818152 S    
O79   H31   0.981899 S    
O55   H21   0.977255 S    
O7    C3    1.314734 A    
C14   C75   1.458159 S    
S9    O97   1.506541 D    
C78   S6    1.829295 S    
O36   Cr8   2.150637 S    
C76   O84   1.368580 S    
C80   C84   1.485712 S    
O92   H44   1.014544 S    
O102  H50   0.991938 S    
O25   C21   1.277157 A    
O30   C14   1.314400 A    
C46   C58   1.335451 D    
C71   H19   1.056032 S    
S6    O70   1.645485 S    
C45   C57   1.335638 D    
C82   O78   1.381273 S    
C58   H6    1.064431 S    
C62   H13   1.081613 S    
C37   H1    1.062866 S    
O94   H46   0.990244 S    
C70   H18   1.057304 S    
O21   C9    1.312186 A    
O8    Cr4   2.019053 S    
O23   Cr11  2.028046 S    
S4    O62   1.519280 D    
C39   H3    1.055394 S    
O93   H45   0.996101 S    
C50   C54   1.342636 D    
C17   O41   1.261635 A    
S5    O66   1.488558 D    
C1    O9    1.269176 A    
O61   H23   1.007986 S    
O44   Cr12  2.163204 S    
S10   O101  1.492577 D    
C2    C51   1.466272 S    
C53   C57   1.531131 S    
S2    O56   1.512464 D    
C3    O11   1.287770 A    
O11   Cr7   2.164200 S    
O86   H38   0.991817 S    
S4    O63   1.483730 D    
S12   O106  1.496893 D    
C24   C72   1.454152 S    
S7    O73   1.621645 S    
O90   H42   0.987240 S    
C38   C44   1.380540 A    
C52   O96   1.371821 S    
C41   O85   1.376157 S    
C27   C36   1.426057 A    
C77   S5    1.811522 S    
O3    Cr3   2.136176 S    
O89   H41   0.986365 S    
Cr4   O52   2.049113 S    
C26   C33   1.428552 A    
C73   O81   1.357643 S    
O2    Cr2   2.149571 S    
O8    C4    1.320125 A    
C56   C60   1.518181 S    
S3    O61   1.582587 S    
C9    C45   1.479590 S    
O2    C10   1.278535 A    
C79   S7    1.818637 S    
S6    O68   1.505616 D    
O42   Cr10  2.163204 S    
C47   C59   1.343983 D    
Cr5   O49   2.018071 S    
S7    O71   1.514500 D    
O18   Cr10  2.160325 S    
C45   H9    1.083933 S    
O91   H43   0.976200 S    
C25   C29   1.431739 A    
S8    O74   1.505822 D    
S1    O54   1.498231 D    
C5    C26   1.498762 S    
S5    O65   1.515138 D    
O24   Cr12  2.037233 S    
O34   Cr6   2.150637 S    
C64   H15   1.082208 S    
Cr7   O51   2.018071 S    
C72   H20   1.056217 S    
C31   C39   1.420487 A    
O29   C13   1.307441 A    
C26   C30   1.435455 A    
C59   H7    1.070157 S    
C7    O19   1.283962 A    
C84   O80   1.380905 S    
O31   Cr3   2.010668 S    
C70   C82   1.371963 D    
O9    Cr5   2.164200 S    
C63   H16   1.083718 S    
S9    O98   1.479891 D    
O30   Cr2   2.022140 S    
O73   H27   1.000027 S    
O22   C10   1.308093 A    
C17   C61   1.466590 S    
C75   C79   1.389309 D    
O76   H28   1.004683 S    
O48   Cr12  2.032775 S    
C12   C48   1.489159 S    
C4    O12   1.294559 A    
C61   H14   1.083228 S    
C76   C80   1.395389 D    
C67   S11   1.809279 S    
O84   H36   0.988963 S    
O77   H29   0.986156 S    
C2    O10   1.277970 A    
C29   C37   1.420348 A    
O82   H34   0.989363 S    
C40   H4    1.055740 S    
C56   O92   1.382210 S    
O16   Cr8   2.028333 S    
O7    Cr3   2.028317 S    
S10   O102  1.672448 S    
O81   H33   0.985612 S    
Cr10  O50   2.017627 S    
O6    Cr2   2.019053 S    
C81   O77   1.379884 S    
O13   C5    1.299815 A    
O28   Cr4   2.144546 S    
O43   Cr11  2.155999 S    
O48   C24   1.315274 A    
O12   Cr8   2.150638 S    
Cr9   O49   2.029112 S    
C35   S3    1.795726 S    
C54   C58   1.525505 S    
S5    O67   1.618901 S    
O15   C7    1.306309 A    
O80   H32   0.981994 S    
S2    O57   1.492275 D    
O78   H30   0.981258 S    
O5    C1    1.305794 A    
O87   H39   0.993132 S    
C57   H5    1.055691 S    
O46   Cr10  2.032775 S    
O83   H35   0.986626 S    
O39   Cr7   2.039150 S    
C63   C68   1.367308 D    
C60   H8    1.054366 S    
O45   Cr9   2.032415 S    
C35   C36   1.412901 A    
S8    O76   1.645260 S    
C19   C63   1.466512 S    
O14   Cr6   2.028333 S    
O13   Cr5   2.028242 S    
O85   H37   0.988089 S    
C46   H10   1.084447 S    
C69   H17   1.056874 S    
C39   C41   1.373663 A    
C13   C76   1.458570 S    
O47   Cr11  2.032415 S    
Cr2   O50   2.049113 S    
O15   Cr7   2.028242 S    
O32   Cr4   2.022140 S    
S2    O58   1.574450 S    
Cr1   O49   2.049379 S    
C72   C84   1.371006 D    
C20   C64   1.498121 S    
C71   C83   1.368067 D    
Cr3   O51   2.049379 S    
O26   C22   1.271170 A    
S8    O75   1.499700 D    
O21   Cr9   2.028046 S    
O58   H22   0.976581 S    
O27   Cr3   2.152726 S    
C43   O87   1.375757 S    
C6    O18   1.284508 A    
O37   Cr5   2.039150 S    
S1    O55   1.581975 S    
C79   C83   1.492718 S    
C75   O83   1.359909 S    
C69   C81   1.363688 D    
C43   C44   1.382214 A    
O3    C11   1.281331 A    
S11   O103  1.506273 D    
C68   S12   1.825752 S    
C8    C27   1.496968 S    
C77   C81   1.490675 S    
C55   C59   1.511619 S    
C23   C71   1.455675 S    
C50   O94   1.375063 S    
C8    O20   1.279248 A    
O38   C18   1.314826 A    
O25   Cr1   2.152726 S    
C7    C28   1.520488 S    
O45   C21   1.315173 A    
C5    O17   1.286194 A    
O26   Cr2   2.144546 S    
S9    O99   1.636129 S    
O37   C17   1.313696 A    
O22   Cr10  2.037233 S    
O28   C24   1.270236 A    
O14   C6    1.301966 A    
C19   O43   1.261211 A    
O5    Cr1   2.028317 S    
Cr12  O52   2.017627 S    
S11   O104  1.471746 D    
C62   C65   1.378225 D    
O40   Cr8   2.027471 S    
C80   S8    1.828561 S    
C15   O35   1.268867 A    
O96   H48   0.990317 S    
O24   C12   1.318183 A    
C74   C78   1.397392 D    
O105  H51   0.996396 S    
C48   H12   1.096612 S    
C15   C74   1.459525 S    
C49   C53   1.346595 D    
C10   C46   1.477901 S    
C41   C42   1.363499 A    
C14   O34   1.270936 A    
O47   C23   1.316233 A    
C53   O89   1.386865 S    
C66   S10   1.826024 S    
S4    O64   1.633467 S    
C25   C34   1.428796 A    
C20   O44   1.266096 A    
O108  H52   0.992600 S    
O1    Cr1   2.136176 S    
O67   H25   0.999425 S    
S10   O100  1.495361 D    
C32   C40   1.421911 A    
O38   Cr6   2.027471 S    
C51   O95   1.367114 S    
C21   C69   1.456524 S    
O64   H24   1.015385 S    
Cr8   O52   2.029536 S    
O32   C16   1.312965 A    
O41   Cr9   2.155999 S    
C65   C66   1.530482 S    
C83   O79   1.379854 S    
C18   C62   1.499002 S    
O46   C22   1.314707 A    
C47   H11   1.082677 S    
S12   O108  1.674914 S    
C34   S2    1.796571 S    
O19   Cr11  2.159992 S    
C6    C25   1.504414 S    
O33   Cr5   2.149640 S    
C13   O33   1.268107 A    
C54   O90   1.386728 S    
O23   C11   1.319444 A    
O10   Cr6   2.150638 S    
C73   C77   1.383445 D    
O70   H26   1.004507 S    
C36   S4    1.818931 S    
O35   Cr7   2.149640 S    
O4    Cr4   2.149571 S    
C38   H2    1.060998 S    
O6    C2    1.305100 A    
O1    C9    1.281466 A    
O29   Cr1   2.010668 S    
S3    O59   1.515516 D    
C52   C56   1.348438 D    
C16   O36   1.271773 A    
O40   C20   1.313310 A    
C11   C47   1.479621 S    
C30   C38   1.424604 A    
C27   C31   1.428515 A    
S12   O107  1.485230 D    
Cr6   O50   2.029536 S    
C48   C60   1.351315 D    
O88   H40   0.991456 S    
S7    O72   1.484731 D    
C1    C52   1.470953 S    
O27   C23   1.277156 A    
C42   O86   1.375601 S    
C4    C49   1.477402 S    
S3    O60   1.484131 D    
C74   O82   1.370835 S    
O95   H47   0.986338 S    
C3    C50   1.473012 S    
O31   C15   1.307257 A    
O16   C8    1.299352 A    
O17   Cr9   2.159992 S    
C67   C68   1.525293 S    
C28   C35   1.438974 A    
O99   H49   0.995006 S    
C55   O91   1.372574 S    
C44   O88   1.382954 S    
C49   O93   1.384767 S    
