data_mof_unit_30968.cif
_audit_creation_date              2012-10-26T19:57:53-0400
_audit_creation_method            fapswitch 2.2
_symmetry_space_group_name_H-M    P1
_symmetry_Int_Tables_number       1
_space_group_crystal_system       triclinic
_cell_length_a                    7.463006
_cell_length_b                    8.683894
_cell_length_c                    12.970314
_cell_angle_alpha                 88.070228
_cell_angle_beta                  79.226857
_cell_angle_gamma                 102.743614
_cell_volume                      802.958154539

loop_
_atom_site_label
_atom_site_type_symbol
_atom_type_description
_atom_site_fract_x
_atom_site_fract_y
_atom_site_fract_z
_atom_type_partial_charge
C1    C     C_R   0.452848 0.199734 0.503205 0.551766
C2    C     C_R   0.732051 0.542444 0.119700 -0.134286
C3    C     C_R   0.607487 0.521328 0.858778 -0.130805
C4    C     C_R   0.392513 0.478671 0.141222 -0.130805
C5    C     C_R   0.590178 0.517272 0.967241 0.049110
C6    C     C_R   0.409822 0.482728 0.032759 0.049110
C7    C     C_2   0.426267 0.031915 0.504731 -0.154351
C8    C     C_2   0.573733 0.968085 0.495269 -0.154351
C9    C     C_R   0.547151 0.800266 0.496795 0.551766
C10   C     C_R   0.466450 0.495767 0.701382 0.548501
C11   C     C_R   0.533550 0.504233 0.298618 0.548501
C12   C     C_R   0.553072 0.508302 0.184970 0.002946
C13   C     C_R   0.446928 0.491698 0.815030 0.002946
C14   C     C_R   0.249561 0.452769 0.988844 -0.140533
C15   C     C_R   0.750439 0.547231 0.011156 -0.140533
C16   C     C_R   0.267949 0.457556 0.880300 -0.134286
Cu1   Cu    Cu3+1 0.686350 0.517570 0.488220 0.953998
Cu2   Cu    Cu3+1 0.313650 0.482430 0.511780 0.953998
H1    H     H_    0.254053 0.452068 0.191306 0.124831
H2    H     H_    0.715955 0.039490 0.486352 0.134712
H3    H     H_    0.745947 0.547932 0.808694 0.124831
H4    H     H_    0.857904 0.566294 0.152353 0.130015
H5    H     H_    0.142096 0.433706 0.847647 0.130016
H6    H     H_    0.110714 0.425439 0.038286 0.105383
H7    H     H_    0.889286 0.574561 0.961714 0.105383
H8    H     H_    0.934021 0.376528 0.583108 0.237326
H9    H     H_    0.065979 0.623472 0.416892 0.237326
H10   H     H_    0.284045 0.960510 0.513647 0.134712
N1    N     N_2   0.033570 0.455950 0.529530 -0.259503
N2    N     N_2   0.966430 0.544050 0.470470 -0.259503
O1    O     O_R   0.621060 0.286250 0.492350 -0.503748
O2    O     O_R   0.378940 0.713750 0.507650 -0.503748
O3    O     O_R   0.306310 0.256580 0.512240 -0.497408
O4    O     O_R   0.693690 0.743420 0.487760 -0.497408
O5    O     O_R   0.631800 0.512400 0.642670 -0.511285
O6    O     O_R   0.368200 0.487600 0.357330 -0.511285
O7    O     O_R   0.317060 0.482730 0.662570 -0.506670
O8    O     O_R   0.682940 0.517270 0.337430 -0.506670

loop_
_geom_bond_atom_site_label_1
_geom_bond_atom_site_label_2
_ccdc_geom_bond_type
C2    H4    S    
C11   O8    A    
C11   C12   S    
C10   O5    A    
Cu1   N2    S    
C6    C14   A    
C3    C13   A    
C5    C15   A    
C2    C12   A    
Cu1   Cu2   S    
C1    O3    A    
C7    C8    D    
Cu2   N1    S    
C8    H2    S    
H9    N2    S    
C2    C15   A    
N1    N2    D    
H8    N1    S    
C10   O7    A    
C11   O6    A    
Cu2   O7    S    
C9    O4    A    
C16   H5    S    
Cu1   O8    S    
C5    C6    A    
Cu1   O1    S    
Cu2   O3    S    
C14   C16   A    
C3    H3    S    
C4    C12   A    
Cu1   O4    S    
C1    O1    A    
Cu2   O2    S    
C15   H7    S    
C4    C6    A    
C13   C16   A    
C14   H6    S    
Cu1   O5    S    
C9    O2    A    
C1    C7    S    
C4    H1    S    
Cu2   O6    S    
C7    H10   S    
C8    C9    S    
C3    C5    A    
C10   C13   S    
