data_mof_unit_24740.cif
_audit_creation_date              2012-12-10T17:44:32-0500
_audit_creation_method            fapswitch 2.2
_symmetry_space_group_name_H-M    P1
_symmetry_Int_Tables_number       1
_space_group_crystal_system       triclinic
_cell_length_a                    10.048905
_cell_length_b                    10.794031
_cell_length_c                    15.859611
_cell_angle_alpha                 94.822188
_cell_angle_beta                  75.001448
_cell_angle_gamma                 90.498686
_cell_volume                      1655.62416153

loop_
_atom_site_label
_atom_site_type_symbol
_atom_type_description
_atom_site_fract_x
_atom_site_fract_y
_atom_site_fract_z
_atom_type_partial_charge
C1    C     C_R   0.503407 0.738037 0.490327 0.982924
C2    C     C_R   0.420282 0.412375 0.901043 -0.127021
C3    C     C_R   0.276899 0.411578 0.939210 -0.199775
C4    C     C_R   0.508220 0.385407 0.953371 -0.006098
C5    C     C_R   0.461277 0.412460 0.044781 -0.015533
C6    C     C_R   0.317389 0.420984 0.083051 0.465568
C7    C     C_R   0.230880 0.389106 0.027781 0.192567
C8    C     C_R   0.636373 0.325745 0.917974 -0.190741
C9    C     C_R   0.724970 0.308948 0.970510 0.234663
C10   C     C_R   0.691120 0.361817 0.057681 -0.080840
C11   C     C_R   0.558810 0.415521 0.094936 -0.031376
C12   C     C_R   0.418003 0.486122 0.671037 0.960577
C13   C     C_R   0.786212 0.368817 0.108946 0.604007
C14   C     C_R   0.735653 0.382304 0.199184 -0.346152
C15   C     C_R   0.534941 0.481667 0.177886 0.203443
C16   C     C_R   0.284392 0.885254 0.433497 0.437565
C17   C     C_R   0.160077 0.954935 0.442944 0.411968
C18   C     C_R   0.131788 0.059297 0.502133 -0.172288
C19   C     C_R   0.236567 0.112926 0.533982 -0.101826
C20   C     C_R   0.369994 0.060587 0.509624 -0.053173
C21   C     C_R   0.386027 0.936539 0.474754 -0.037405
C22   C     C_R   0.504758 0.871334 0.481933 -0.127992
C23   C     C_R   0.495794 0.261171 0.507913 0.870861
C24   C     C_R   0.615776 0.936468 0.501202 -0.252674
C25   C     C_R   0.607476 0.063130 0.521474 0.551068
C26   C     C_R   0.488030 0.127773 0.518571 -0.215836
C27   C     C_R   0.831504 0.701853 0.604652 0.197741
C28   C     C_R   0.901233 0.798082 0.640177 -0.239980
C29   C     C_R   0.034690 0.783302 0.643498 0.106915
C30   C     C_R   0.106389 0.677921 0.603749 -0.127297
C31   C     C_R   0.053368 0.589675 0.551606 -0.016668
C32   C     C_R   0.908687 0.594534 0.551626 0.063017
C33   C     C_R   0.947975 0.409668 0.454254 0.139101
C34   C     C_R   0.581442 0.494496 0.327045 0.948634
C35   C     C_R   0.089308 0.408027 0.456054 0.452431
C36   C     C_R   0.376330 0.449763 0.761193 -0.308019
C37   C     C_R   0.616650 0.453617 0.233749 -0.202295
C38   C     C_R   0.185955 0.426026 0.886514 0.584521
C39   C     C_R   0.237380 0.418913 0.796394 0.015877
C40   C     C_R   0.470140 0.446826 0.814252 0.456201
H1    H     H_    0.708506 0.888850 0.504495 0.212065
H2    H     H_    0.032308 0.105731 0.516841 0.232855
H3    H     H_    0.213035 0.197199 0.575929 0.229558
H4    H     H_    0.849684 0.882729 0.674276 0.195184
H5    H     H_    0.205184 0.669064 0.614670 0.234242
H6    H     H_    0.807825 0.372424 0.237844 0.205809
H7    H     H_    0.665005 0.287274 0.850342 0.200374
N1    N     N_R   0.856800 0.501200 0.500850 -0.149355
N2    N     N_R   0.142390 0.501280 0.500880 -0.174427
O1    O     O_R   0.385310 0.683220 0.500000 -0.618981
O2    O     O_R   0.614640 0.683250 0.500010 -0.620755
O3    O     O_R   0.319840 0.499980 0.632240 -0.633425
O4    O     O_R   0.549160 0.500000 0.632250 -0.545666
O5    O     O_R   0.385360 0.316750 0.499990 -0.592447
O6    O     O_R   0.614690 0.316780 0.500000 -0.546177
O7    O     O_R   0.450840 0.500000 0.367750 -0.627668
O8    O     O_R   0.680160 0.500020 0.367760 -0.621245
Zn1   Zn    Zn3+2 0.346880 0.499980 0.499990 0.976695
Zn2   Zn    Zn3+2 0.653120 0.500020 0.500010 1.026452
I1    I     I_    0.137004 0.214294 0.054308 -0.249307
O9    O     O_3   0.914737 0.416215 0.075161 -0.542569
C41   C     C_3   0.912346 0.546277 0.100788 -0.269110
H8    H     H_    0.892384 0.567007 0.172812 0.141799
H9    H     H_    0.833876 0.596405 0.077796 0.172251
H10   H     H_    0.014821 0.585248 0.072909 0.185226
O10   O     O_3   0.321307 0.781016 0.374342 -0.592751
C42   C     C_3   0.208732 0.705898 0.366277 -0.118058
H11   H     H_    0.242621 0.608203 0.358122 0.184759
H12   H     H_    0.177480 0.724047 0.306400 0.176496
H13   H     H_    0.118312 0.716333 0.423330 0.147905
O11   O     O_3   0.064091 0.921916 0.396725 -0.622067
C43   C     C_3   0.106612 0.968787 0.313715 -0.243197
H14   H     H_    0.210704 0.933618 0.276261 0.178736
H15   H     H_    0.106495 0.071415 0.320083 0.201840
H16   H     H_    0.032545 0.938553 0.275236 0.200169
O12   O     O_3   0.718760 0.122054 0.542599 -0.575964
C44   C     C_3   0.688732 0.146252 0.634423 -0.220451
H17   H     H_    0.779407 0.190923 0.651295 0.211880
H18   H     H_    0.669249 0.058706 0.667781 0.161471
H19   H     H_    0.599563 0.211622 0.659631 0.160651
I2    I     I_    0.885792 0.264607 0.375012 -0.314881
I3    I     I_    0.621723 0.752292 0.673267 -0.391101
I4    I     I_    0.465784 0.667651 0.183381 -0.396053
I5    I     I_    0.125376 0.915421 0.716889 -0.355440
O13   O     O_3   0.166005 0.299986 0.427287 -0.611305
C45   C     C_3   0.243728 0.303226 0.340033 -0.184908
H20   H     H_    0.336720 0.243324 0.329484 0.183943
H21   H     H_    0.277961 0.396967 0.323226 0.209738
H22   H     H_    0.183980 0.265791 0.294271 0.192642
I6    I     I_    0.888781 0.180560 0.918472 -0.194928
O14   O     O_3   0.047715 0.452073 0.921838 -0.522967
C46   C     C_3   0.017613 0.573583 0.902637 -0.248446
H23   H     H_    0.041242 0.585544 0.831563 0.183321
H24   H     H_    0.074291 0.645317 0.933525 0.142132
H25   H     H_    0.905598 0.592240 0.928275 0.180095
I7    I     I_    0.090643 0.358258 0.723783 -0.304959
O15   O     O_3   0.608419 0.473858 0.780184 -0.585303
C47   C     C_3   0.647844 0.577660 0.828936 -0.187151
H26   H     H_    0.677064 0.552028 0.887705 0.156678
H27   H     H_    0.566810 0.651930 0.848653 0.167127
H28   H     H_    0.742854 0.616769 0.788122 0.201498
O16   O     O_3   0.268952 0.420616 0.173270 -0.627880
C48   C     C_3   0.141026 0.483773 0.204097 -0.341692
H29   H     H_    0.057410 0.424401 0.190931 0.233549
H30   H     H_    0.143182 0.575957 0.177290 0.167940
H31   H     H_    0.116058 0.500682 0.276073 0.148894

loop_
_geom_bond_atom_site_label_1
_geom_bond_atom_site_label_2
_ccdc_geom_bond_type
C34   O7    A    
C16   C21   A    
O6    Zn2   S    
C34   C37   S    
C30   H5    S    
C19   C20   A    
C4    C8    A    
O15   C47   S    
O4    Zn2   S    
C14   H6    S    
C44   H17   S    
C29   C30   A    
N1    Zn2   S    
C5    C6    A    
C28   C29   A    
C5    C11   A    
C3    C7    A    
C18   H2    S    
O5    Zn1   S    
C30   C31   A    
C45   H21   S    
O8    Zn2   S    
C18   C19   A    
C23   C26   S    
C15   C37   A    
C41   H9    S    
C11   C15   A    
C3    C38   A    
O7    Zn1   S    
C16   C17   A    
C35   N2    A    
C34   O8    A    
C12   C36   S    
C1    O1    A    
C12   O4    A    
O10   C42   S    
C1    C22   S    
C21   C22   A    
C24   H1    S    
C32   N1    A    
O9    C41   S    
C31   N2    A    
C43   H16   S    
C12   O3    A    
C19   H3    S    
C44   H18   S    
C42   H11   S    
O1    Zn1   S    
C36   C40   A    
C24   C25   A    
C29   I5    S    
C43   H15   S    
C40   O15   S    
C45   H20   S    
C8    C9    A    
C15   I4    S    
C25   C26   A    
O13   C45   S    
C38   O14   S    
C36   C39   A    
C46   H25   S    
N2    Zn1   S    
C45   H22   S    
C42   H12   S    
C2    C4    A    
C41   H8    S    
C31   C32   A    
C46   H24   S    
C17   C18   A    
C48   H30   S    
O12   C44   S    
C1    O2    A    
C16   O10   S    
O3    Zn1   S    
C17   O11   S    
C47   H27   S    
C22   C24   A    
O2    Zn2   S    
C7    I1    S    
O14   C46   S    
C23   O5    A    
C9    C10   A    
C44   H19   S    
C41   H10   S    
C27   C32   A    
C27   I3    S    
C43   H14   S    
C10   C13   A    
C9    I6    S    
C23   O6    A    
C6    C7    A    
C47   H28   S    
C25   O12   S    
C42   H13   S    
C2    C3    A    
C8    H7    S    
O11   C43   S    
C14   C37   A    
C35   O13   S    
C38   C39   A    
C20   C26   A    
C46   H23   S    
C33   C35   A    
C28   H4    S    
C48   H31   S    
C6    O16   S    
O16   C48   S    
C39   I7    S    
C10   C11   A    
C2    C40   A    
C4    C5    A    
C13   O9    S    
C20   C21   A    
C47   H26   S    
C48   H29   S    
C33   N1    A    
C13   C14   A    
C33   I2    S    
C27   C28   A    
