data_mof_unit_17397.cif
_audit_creation_date              2012-12-10T17:58:17-0500
_audit_creation_method            fapswitch 2.2
_symmetry_space_group_name_H-M    P1
_symmetry_Int_Tables_number       1
_space_group_crystal_system       triclinic
_cell_length_a                    9.562266
_cell_length_b                    10.786124
_cell_length_c                    15.481376
_cell_angle_alpha                 89.225514
_cell_angle_beta                  73.815599
_cell_angle_gamma                 90.600613
_cell_volume                      1533.15722537

loop_
_atom_site_label
_atom_site_type_symbol
_atom_type_description
_atom_site_fract_x
_atom_site_fract_y
_atom_site_fract_z
_atom_type_partial_charge
C1    C     C_R   0.000470 0.262562 0.497582 0.784931
C2    C     C_R   0.999561 0.737456 0.502353 0.778447
C3    C     C_R   0.586064 0.513100 0.094795 -0.017777
C4    C     C_R   0.414519 0.479635 0.905170 -0.068782
C5    C     C_R   0.720472 0.570595 0.049645 -0.103018
C6    C     C_R   0.278055 0.425485 0.951141 -0.049008
C7    C     C_R   0.937742 0.061850 0.438414 -0.012269
C8    C     C_R   0.062418 0.938223 0.561419 -0.008088
C9    C     C_R   0.936883 0.932847 0.443774 -0.099561
C10   C     C_R   0.063202 0.067210 0.556088 -0.099474
C11   C     C_R   0.999564 0.871408 0.503623 -0.132973
C12   C     C_R   0.000519 0.128637 0.496252 -0.128803
C13   C     C_R   0.547272 0.418905 0.554004 0.509000
C14   C     C_R   0.453054 0.580311 0.445372 0.469553
C15   C     C_R   0.399264 0.419666 0.553896 -0.058620
C16   C     C_R   0.600943 0.579810 0.445683 -0.128394
C17   C     C_R   0.917795 0.503244 0.672013 0.798074
C18   C     C_R   0.082165 0.497203 0.327986 0.811946
C19   C     C_R   0.871795 0.519824 0.769541 -0.059515
C20   C     C_R   0.127865 0.480953 0.230474 -0.057701
C21   C     C_R   0.909440 0.604874 0.905069 -0.190789
C22   C     C_R   0.085361 0.403201 0.094344 -0.158510
C23   C     C_R   0.959646 0.583641 0.813043 -0.200734
C24   C     C_R   0.035243 0.425916 0.186062 -0.205914
C25   C     C_R   0.731603 0.482866 0.817778 -0.205476
C26   C     C_R   0.270846 0.510746 0.182912 -0.128388
C27   C     C_R   0.672373 0.516596 0.907722 0.078061
C28   C     C_R   0.328296 0.476906 0.092876 0.097266
C29   C     C_R   0.767534 0.566512 0.954724 0.092462
C30   C     C_R   0.231300 0.430967 0.045868 0.083087
C31   C     C_R   0.522034 0.497080 0.952512 -0.049404
C32   C     C_R   0.478489 0.494663 0.047776 0.042212
Cu1   Cu    Cu3+1 0.140660 0.500020 0.500000 1.026914
Cu2   Cu    Cu3+1 0.859340 0.499980 0.500000 1.011646
H1    H     H_    0.336836 0.561802 0.217032 0.187839
H2    H     H_    0.669256 0.426587 0.784218 0.205901
H3    H     H_    0.923689 0.401769 0.221877 0.162015
H4    H     H_    0.067733 0.615940 0.776185 0.174894
H5    H     H_    0.983742 0.650687 0.935884 0.137331
H6    H     H_    0.006967 0.368058 0.061808 0.175873
H7    H     H_    0.891225 0.879222 0.399116 0.190573
H8    H     H_    0.108858 0.120840 0.600744 0.186419
H9    H     H_    0.322160 0.355529 0.597086 0.186868
H10   H     H_    0.678189 0.643564 0.402197 0.198875
N1    N     N_R   0.352080 0.500030 0.499980 -0.230064
N2    N     N_R   0.647920 0.499970 0.500020 -0.233729
O1    O     O_R   0.118740 0.319660 0.500000 -0.577905
O2    O     O_R   0.881260 0.680340 0.500000 -0.580269
O3    O     O_R   0.881170 0.319630 0.500010 -0.543969
O4    O     O_R   0.118830 0.680370 0.499990 -0.539041
O5    O     O_R   0.055570 0.500030 0.629830 -0.588879
O6    O     O_R   0.944430 0.499970 0.370170 -0.598607
O7    O     O_R   0.818000 0.500000 0.629840 -0.536548
O8    O     O_R   0.182000 0.500000 0.370160 -0.526743
C33   C     C_2   0.813792 0.626026 0.102138 0.333346
H11   H     H_    0.931237 0.620355 0.079569 0.077067
O9    O     O_2   0.759138 0.681779 0.171235 -0.498709
C34   C     C_2   0.182391 0.369059 0.900959 0.432286
H12   H     H_    0.153348 0.419523 0.847937 0.122496
O10   O     O_2   0.135753 0.263200 0.918705 -0.498580
C35   C     C_2   0.573720 0.450035 0.183319 0.382427
H13   H     H_    0.635018 0.482804 0.227928 0.117690
O11   O     O_2   0.500133 0.355540 0.205311 -0.506955
C36   C     C_2   0.436420 0.538892 0.814433 0.338100
H14   H     H_    0.507489 0.619840 0.795986 0.109085
O12   O     O_2   0.379718 0.498312 0.759034 -0.558902
C37   C     C_2   0.880344 0.124180 0.369263 0.436135
H15   H     H_    0.901837 0.221842 0.353068 0.061655
O13   O     O_2   0.809314 0.066427 0.328365 -0.490448
C38   C     C_2   0.120034 0.875954 0.630486 0.422883
H16   H     H_    0.099086 0.778215 0.646438 0.060872
O14   O     O_2   0.190647 0.933840 0.671575 -0.504106
Cl1   Cl    Cl    0.596250 0.309893 0.625229 -0.548020
Cl2   Cl    Cl    0.404946 0.687460 0.372635 -0.559555

loop_
_geom_bond_atom_site_label_1
_geom_bond_atom_site_label_2
_ccdc_geom_bond_type
C33   H11   S    
C10   H8    S    
Cu1   N1    S    
C6    C34   S    
C17   O5    A    
C18   O6    A    
C14   Cl2   S    
C13   N2    A    
C27   C29   A    
C34   O10   D    
C8    C38   S    
C35   O11   D    
C2    O4    A    
C20   C24   A    
C38   H16   S    
Cu2   N2    S    
C14   C16   A    
C16   H10   S    
C35   H13   S    
C1    C12   S    
C2    C11   S    
C26   C28   A    
C24   H3    S    
C14   N1    A    
C5    C29   A    
C3    C35   S    
C7    C12   A    
C27   C31   A    
C37   H15   S    
C28   C32   A    
C4    C6    A    
C16   N2    A    
C1    O1    A    
C2    O2    A    
Cu1   O4    S    
C21   C29   A    
C37   O13   D    
C36   O12   D    
C19   C23   A    
C31   C32   A    
C21   H5    S    
C22   H6    S    
Cu1   Cu2   S    
C33   O9    D    
C9    C11   A    
C10   C12   A    
C6    C30   A    
C13   Cl1   S    
C13   C15   A    
C25   C27   A    
Cu1   O1    S    
C22   C24   A    
Cu2   O2    S    
C15   N1    A    
C17   O7    A    
Cu1   O8    S    
C7    C9    A    
Cu2   O3    S    
C22   C30   A    
Cu2   O6    S    
C5    C33   S    
C3    C5    A    
Cu1   O5    S    
C23   H4    S    
C4    C36   S    
C9    H7    S    
C36   H14   S    
C21   C23   A    
C34   H12   S    
C15   H9    S    
C20   C26   A    
C8    C11   A    
C28   C30   A    
C17   C19   S    
C18   C20   S    
C3    C32   A    
C19   C25   A    
C4    C31   A    
C18   O8    A    
C25   H2    S    
C7    C37   S    
C26   H1    S    
Cu2   O7    S    
C8    C10   A    
C38   O14   D    
C1    O3    A    
