data_mof_unit_19947.cif
_audit_creation_date              2013-03-05T15:41:47-0500
_audit_creation_method            fapswitch 2.2
_symmetry_space_group_name_H-M    P1
_symmetry_Int_Tables_number       1
_space_group_crystal_system       triclinic
_cell_length_a                    11.098038
_cell_length_b                    12.714297
_cell_length_c                    23.469852
_cell_angle_alpha                 90.630897
_cell_angle_beta                  96.673764
_cell_angle_gamma                 68.989538
_cell_volume                      3068.87970749

loop_
_atom_site_label
_atom_site_type_symbol
_atom_site_description
_atom_site_fract_x
_atom_site_fract_y
_atom_site_fract_z
_atom_type_partial_charge
O1    O     O_R   0.196340 0.303200 0.448500 -0.506427
O2    O     O_R   0.199310 0.519670 0.454880 -0.492372
C1    C     C_R   0.150462 0.616736 0.429273 0.538266
O3    O     O_R   0.045660 0.691380 0.441680 -0.515525
O4    O     O_R   0.811930 0.659460 0.430950 -0.501308
C2    C     C_R   0.753426 0.601404 0.403422 0.538165
O5    O     O_R   0.757900 0.507620 0.421760 -0.519854
O6    O     O_R   0.988630 0.322990 0.439840 -0.508881
C3    C     C_R   0.101213 0.281645 0.423496 0.535989
O7    O     O_R   0.196380 0.301720 0.573850 -0.528923
O8    O     O_R   0.199350 0.518300 0.571080 -0.504612
C4    C     C_R   0.152971 0.617966 0.589651 0.545372
O9    O     O_R   0.045700 0.689900 0.567030 -0.514753
O10   O     O_R   0.811960 0.658090 0.547150 -0.497350
C5    C     C_R   0.749103 0.602385 0.565860 0.547591
O11   O     O_R   0.757930 0.506140 0.547110 -0.494856
O12   O     O_R   0.988670 0.321620 0.556040 -0.461385
C6    C     C_R   0.099488 0.276823 0.584947 0.551488
Cr1   Cr    Cr6+3 0.189770 0.415650 0.511620 1.017583
Cr2   Cr    Cr6+3 0.930400 0.667320 0.496770 1.008006
Cr3   Cr    Cr6+3 0.879870 0.417010 0.491650 1.026959
O13   O     O_3   0.000020 0.499990 0.500010 -0.244258
C7    C     C_R   0.647672 0.770948 0.141384 -0.007348
C8    C     C_R   0.725383 0.619698 0.342330 0.007757
C9    C     C_R   0.779834 0.543670 0.250215 -0.140636
C10   C     C_R   0.779483 0.527340 0.308077 -0.124407
C11   C     C_R   0.668228 0.728360 0.318658 -0.123036
C12   C     C_R   0.664923 0.745966 0.259912 0.074241
C13   C     C_R   0.723403 0.652118 0.225864 0.029069
C14   C     C_R   0.716973 0.666037 0.167150 -0.119389
C15   C     C_R   0.594465 0.865550 0.174606 -0.127475
C16   C     C_R   0.601226 0.853892 0.233922 0.116901
H1    H     H_    0.537001 0.946967 0.154167 0.140940
H2    H     H_    0.823694 0.471573 0.224552 0.116051
H3    H     H_    0.827754 0.442783 0.326606 0.142943
C17   C     C_1   0.235855 0.162663 0.123074 -0.012649
C18   C     C_2   0.181180 0.232161 0.226951 -0.129945
C19   C     C_2   0.156248 0.163653 0.263092 -0.130472
C20   C     C_1   0.132847 0.197102 0.320896 -0.051812
C21   C     C_1   0.210631 0.197278 0.169939 -0.058403
C22   C     C_1   0.116241 0.230710 0.368662 -0.012856
H4    H     H_    0.156260 0.081477 0.249862 0.133540
H5    H     H_    0.182006 0.313977 0.240410 0.141698
C23   C     C_1   0.167737 0.753299 0.124129 -0.026106
C24   C     C_2   0.131061 0.712453 0.229891 0.151905
C25   C     C_2   0.234482 0.662891 0.269562 -0.105980
C26   C     C_1   0.219310 0.645819 0.328684 -0.051932
C27   C     C_1   0.152700 0.730868 0.171886 -0.022122
C28   C     C_1   0.195446 0.632661 0.376340 -0.009629
C29   C     C_1   0.627330 0.758143 0.864496 -0.010139
C30   C     C_2   0.695868 0.717309 0.759898 -0.123773
C31   C     C_2   0.610045 0.703321 0.718184 -0.126239
C32   C     C_1   0.648375 0.670194 0.662140 -0.054524
C33   C     C_1   0.661651 0.740745 0.817296 -0.049626
C34   C     C_1   0.688154 0.640213 0.616762 -0.008096
H6    H     H_    0.512567 0.712380 0.726554 0.143503
C35   C     C_R   0.262582 0.061168 0.839288 0.006979
C36   C     C_R   0.111157 0.204536 0.635704 0.020646
C37   C     C_R   0.012837 0.152287 0.713202 -0.117592
C38   C     C_R   0.000204 0.196620 0.657552 0.135536
C39   C     C_R   0.234089 0.153244 0.666799 -0.166787
C40   C     C_R   0.245863 0.109796 0.722237 0.039392
C41   C     C_R   0.133598 0.114445 0.746674 0.029618
C42   C     C_R   0.142770 0.088357 0.805150 -0.123534
C43   C     C_R   0.375501 0.046099 0.813385 -0.126281
C44   C     C_R   0.367296 0.070094 0.755207 -0.131328
H7    H     H_    0.055908 0.096689 0.824530 0.118597
H8    H     H_    0.469939 0.020489 0.838758 0.136601
H9    H     H_    0.927140 0.151960 0.731066 0.091064
H10   H     H_    0.454802 0.063553 0.736824 0.105643
C45   C     C_R   0.135554 0.761477 0.846839 0.011489
C46   C     C_R   0.206854 0.642014 0.645964 0.016972
C47   C     C_R   0.302512 0.561307 0.740912 -0.152761
C48   C     C_R   0.292462 0.551701 0.681666 -0.160912
C49   C     C_R   0.146514 0.747656 0.669693 0.138817
C50   C     C_R   0.140014 0.751265 0.728576 0.073567
C51   C     C_R   0.220636 0.658170 0.764640 0.013116
C52   C     C_R   0.219370 0.664548 0.823826 -0.123352
C53   C     C_R   0.044889 0.847382 0.810192 -0.146110
C54   C     C_R   0.050198 0.844230 0.751744 -0.129167
H11   H     H_    0.288097 0.597222 0.851914 0.126933
H12   H     H_    0.977465 0.922611 0.826808 0.133457
H13   H     H_    0.983726 0.914793 0.724991 0.131719
O14   O     O_R   0.113660 0.883270 0.047820 -0.506995
O15   O     O_R   0.186930 0.068530 0.043990 -0.486425
C55   C     C_R   0.265677 0.110367 0.069417 0.552950
O16   O     O_R   0.377770 0.089040 0.054220 -0.510994
O17   O     O_R   0.562800 0.872960 0.056970 -0.505737
C56   C     C_R   0.597463 0.777267 0.081585 0.544892
O18   O     O_R   0.555390 0.700940 0.062700 -0.506868
O19   O     O_R   0.295020 0.731920 0.049950 -0.489527
C57   C     C_R   0.189263 0.788119 0.069612 0.546740
O20   O     O_R   0.094290 0.884230 0.921550 -0.530290
O21   O     O_R   0.168980 0.069410 0.926940 -0.499889
C58   C     C_R   0.273729 0.051975 0.902009 0.568266
O22   O     O_R   0.358400 0.089990 0.927950 -0.509070
O23   O     O_R   0.544850 0.873850 0.939920 -0.521591
C59   C     C_R   0.573872 0.776732 0.918085 0.536834
O24   O     O_R   0.536020 0.701900 0.936430 -0.502634
O25   O     O_R   0.277070 0.732810 0.932890 -0.502582
C60   C     C_R   0.165087 0.788611 0.905941 0.536341
Cr4   Cr    Cr6+3 0.149500 0.973980 0.985330 1.020405
Cr5   Cr    Cr6+3 0.457000 0.976510 0.994660 1.014899
Cr6   Cr    Cr6+3 0.411170 0.724270 0.995270 1.023039
O26   O     O_3   0.339220 0.891590 0.991750 -0.273920
H14   H     H_    0.755244 0.593554 0.140832 0.120972
N1    N     N_2   0.000397 0.752510 0.243988 -0.497826
H15   H     H_    0.985826 0.730672 0.284099 0.265043
C61   C     C_3   0.924241 0.868348 0.226371 -0.296468
H16   H     H_    0.827645 0.892514 0.241322 0.146410
H17   H     H_    0.909727 0.878616 0.178830 0.167069
H18   H     H_    0.972841 0.925460 0.245501 0.139618
H19   H     H_    0.793742 0.707043 0.751631 0.141200
N2    N     N_2   0.874502 0.238731 0.625566 -0.478022
H20   H     H_    0.799770 0.272089 0.650489 0.241270
C62   C     C_3   0.849426 0.160592 0.584881 -0.282201
H21   H     H_    0.850916 0.083995 0.607793 0.123610
H22   H     H_    0.923207 0.136011 0.554242 0.151315
H23   H     H_    0.752214 0.201387 0.560005 0.135416
H24   H     H_    0.320079 0.154977 0.649707 0.124445
H25   H     H_    0.366243 0.490034 0.768015 0.120758
H26   H     H_    0.343981 0.470947 0.664205 0.140053
N3    N     N_2   0.087512 0.849075 0.635290 -0.526618
H27   H     H_    0.993942 0.864942 0.616312 0.264520
C63   C     C_3   0.171591 0.878592 0.600987 -0.289500
H28   H     H_    0.120307 0.964949 0.582085 0.134206
H29   H     H_    0.198690 0.819066 0.565645 0.149897
H30   H     H_    0.260915 0.877499 0.628266 0.157341
N4    N     N_2   0.530108 0.947212 0.265691 -0.529934
H31   H     H_    0.443559 0.998775 0.243424 0.258776
C64   C     C_3   0.604897 0.011163 0.292173 -0.320284
H32   H     H_    0.635561 0.054070 0.258703 0.137337
H33   H     H_    0.691816 0.955455 0.320054 0.150284
H34   H     H_    0.543982 0.076250 0.319253 0.156474
H35   H     H_    0.628150 0.797874 0.346345 0.141539
H36   H     H_    0.332515 0.635332 0.257576 0.112271

loop_
_geom_bond_atom_site_label_1
_geom_bond_atom_site_label_2
_geom_bond_distance
_ccdc_geom_bond_type
O11   Cr3   2.021661 S    
O14   Cr4   2.034981 S    
C47   C48   1.389546 A    
C38   N2    1.423444 S    
C58   O22   1.293647 A    
C8    C11   1.387921 A    
O19   Cr6   1.899965 S    
C64   H34   1.110356 S    
C45   C53   1.405915 A    
N2    H20   1.031971 S    
C1    C28   1.433816 S    
N3    H27   1.030387 S    
C20   C22   1.205943 T    
O4    Cr2   1.934878 S    
C44   H10   1.083914 S    
O15   C55   1.268060 A    
O8    Cr1   1.920164 S    
C30   H19   1.086871 S    
C49   N3    1.427592 S    
C12   C13   1.423995 A    
C18   C19   1.341047 D    
C8    C10   1.404101 A    
C19   H4    1.086657 S    
C18   C21   1.441718 S    
C61   H17   1.110976 S    
O4    C2    1.272588 A    
N3    C63   1.446394 S    
C36   C38   1.423402 A    
C5    O11   1.269990 A    
O25   Cr6   1.936827 S    
C62   H21   1.111666 S    
Cr4   O26   1.975194 S    
C16   N4    1.425635 S    
C6    C36   1.477652 S    
O6    C3    1.273025 A    
C63   H30   1.111574 S    
N1    H15   1.030930 S    
C15   H1    1.083887 S    
C23   C57   1.431641 S    
C9    H2    1.084441 S    
C36   C39   1.400112 A    
O24   Cr6   2.015274 S    
C45   C60   1.454455 S    
C37   C38   1.400079 A    
Cr3   O13   1.968005 S    
C14   H14   1.085811 S    
C39   H24   1.084618 S    
N1    C61   1.447069 S    
C39   C40   1.392733 A    
C54   H13   1.083285 S    
Cr6   O26   1.985074 S    
O23   C59   1.276826 A    
C32   C34   1.205873 T    
C9    C13   1.391038 A    
O1    Cr1   2.036597 S    
C29   C59   1.433902 S    
C40   C44   1.395774 A    
C30   C31   1.340967 D    
C7    C14   1.382194 A    
O10   Cr2   1.901200 S    
C12   C16   1.406196 A    
Cr1   O13   1.978014 S    
O1    C3    1.262532 A    
C50   C51   1.415843 A    
C46   C48   1.406109 A    
C61   H18   1.112275 S    
O20   C60   1.265572 A    
O19   C57   1.272128 A    
C55   O16   1.267836 A    
C17   C55   1.434645 S    
C9    C10   1.376720 A    
C51   C52   1.391967 A    
O12   Cr3   1.943920 S    
C53   C54   1.379392 A    
C5    C34   1.434555 S    
C18   H5    1.086684 S    
C49   C50   1.391613 A    
C42   H7    1.083977 S    
C13   C14   1.381599 A    
C15   C16   1.392110 A    
C17   C21   1.205997 T    
O7    Cr1   2.045063 S    
C43   H8    1.083331 S    
C2    C8    1.434757 S    
C40   C41   1.413249 A    
C7    C56   1.440594 S    
O12   C6    1.268668 A    
Cr5   O26   1.966882 S    
C29   C33   1.205577 T    
O17   C56   1.261037 A    
O18   Cr6   2.058022 S    
O23   Cr5   1.909572 S    
C37   H9    1.084396 S    
O16   Cr5   2.028234 S    
C48   H26   1.083168 S    
Cr2   O13   1.984975 S    
C59   O24   1.266783 A    
C47   H25   1.083773 S    
C63   H28   1.109152 S    
C1    O3    1.272541 A    
O17   Cr5   1.945617 S    
C31   C32   1.441483 S    
C35   C42   1.399421 A    
N4    H31   1.031908 S    
C24   C27   1.445392 S    
C25   C26   1.444997 S    
O9    Cr2   2.049763 S    
O2    Cr1   1.925008 S    
C37   C41   1.394997 A    
C50   C54   1.397604 A    
C35   C43   1.406792 A    
C64   H33   1.110832 S    
O6    Cr3   1.907601 S    
O20   Cr4   2.041777 S    
C53   H12   1.083170 S    
N2    C62   1.446324 S    
O8    C4    1.277860 A    
C2    O5    1.254345 A    
C26   C28   1.205764 T    
C3    C22   1.434402 S    
C24   N1    1.431744 S    
C62   H23   1.110327 S    
C30   C33   1.441073 S    
C11   H35   1.083448 S    
O2    C1    1.280230 A    
O5    Cr3   2.063351 S    
C64   H32   1.111382 S    
C52   H11   1.084635 S    
C46   C49   1.409927 A    
C19   C20   1.441798 S    
C31   H6    1.087067 S    
O7    C6    1.278796 A    
O25   C60   1.281727 A    
C62   H22   1.110687 S    
C4    C46   1.461634 S    
O21   C58   1.308973 A    
C25   H36   1.086830 S    
C41   C42   1.399024 A    
O3    Cr2   2.018733 S    
C24   C25   1.351752 D    
C10   H3    1.084001 S    
C4    O9    1.272266 A    
O21   Cr4   1.921061 S    
C43   C44   1.387852 A    
C35   C58   1.465262 S    
O22   Cr5   2.061521 S    
C11   C12   1.393408 A    
C63   H29   1.110045 S    
C47   C51   1.397348 A    
O10   C5    1.270199 A    
O14   C57   1.270886 A    
C56   O18   1.274199 A    
C61   H16   1.102572 S    
C45   C52   1.398514 A    
O15   Cr4   1.924011 S    
C23   C27   1.204211 T    
C7    C15   1.407277 A    
N4    C64   1.445417 S    
