data_mof_unit_10637.cif
_audit_creation_date              2013-03-05T15:55:53-0500
_audit_creation_method            fapswitch 2.2
_symmetry_space_group_name_H-M    P1
_symmetry_Int_Tables_number       1
_space_group_crystal_system       triclinic
_cell_length_a                    12.324436
_cell_length_b                    13.246417
_cell_length_c                    15.845648
_cell_angle_alpha                 77.905023
_cell_angle_beta                  101.093438
_cell_angle_gamma                 116.362422
_cell_volume                      2251.7717

loop_
_atom_site_label
_atom_site_type_symbol
_atom_site_description
_atom_site_fract_x
_atom_site_fract_y
_atom_site_fract_z
_atom_type_partial_charge
O1    O     O_R   0.972510 0.318130 0.524770 -0.536696
O2    O     O_R   0.806530 0.359650 0.491510 -0.610051
C1    C     C_R   0.854850 0.287000 0.510951 0.770726
O3    O     O_R   0.082970 0.479240 0.637550 -0.500631
O4    O     O_R   0.916990 0.520750 0.604290 -0.612420
C2    C     C_R   0.999439 0.499750 0.659949 0.832533
Cu1   Cu    Cu3+1 0.098270 0.475420 0.519690 1.053672
Cu2   Cu    Cu3+1 0.901730 0.524580 0.480310 0.951272
O5    O     O_R   0.193470 0.640350 0.508490 -0.530184
O6    O     O_R   0.027490 0.681870 0.475230 -0.602148
O7    O     O_R   0.083010 0.479250 0.395710 -0.583324
O8    O     O_R   0.917030 0.520760 0.362450 -0.579702
C3    C     C_R   0.145193 0.713032 0.491581 0.828416
C4    C     C_R   0.000460 0.500110 0.340056 0.805564
C5    C     C_3   0.982112 0.398139 0.042798 0.688477
C6    C     C_3   0.891127 0.422328 0.969498 -0.220187
H1    H     H_    0.802564 0.357854 0.943887 0.161234
H2    H     H_    0.836873 0.548740 0.019995 0.173332
C7    C     C_1   0.998625 0.499679 0.749617 -0.131493
C8    C     C_1   0.001097 0.500048 0.250369 -0.134567
C9    C     C_3   0.089615 0.473526 0.989404 -0.197655
C10   C     C_3   0.998958 0.499571 0.917047 0.082994
C11   C     C_3   0.108106 0.577686 0.030078 -0.230971
C12   C     C_3   0.000562 0.500670 0.082802 0.067592
C13   C     C_3   0.017696 0.603807 0.956091 -0.119316
C14   C     C_3   0.910119 0.526619 0.010230 -0.222975
C15   C     C_1   0.998495 0.499591 0.825241 -0.006051
C16   C     C_1   0.001073 0.500217 0.174702 0.020872
H3    H     H_    0.032366 0.688854 0.918793 0.157019
H4    H     H_    0.196835 0.641555 0.056076 0.168969
H5    H     H_    0.162461 0.450642 0.979990 0.172962
C17   C     C_R   0.274369 0.021433 0.403605 -0.120155
H6    H     H_    0.096818 0.885847 0.399544 0.175546
H7    H     H_    0.242134 0.074418 0.353809 0.206087
C18   C     C_R   0.228330 0.834585 0.485022 -0.137898
C19   C     C_R   0.808709 0.105600 0.606320 -0.170048
C20   C     C_R   0.722287 0.012967 0.651567 -0.154886
C21   C     C_R   0.599220 0.978347 0.621825 -0.074118
C22   C     C_R   0.560061 0.026931 0.540227 0.090927
C23   C     C_R   0.647768 0.125421 0.496792 0.013778
C24   C     C_R   0.435970 0.984643 0.502527 -0.078285
C25   C     C_R   0.398291 0.056735 0.435358 -0.012151
C26   C     C_R   0.486351 0.158200 0.396221 0.328394
C27   C     C_R   0.609194 0.183787 0.421075 -0.244686
C28   C     C_R   0.350197 0.870790 0.524605 0.295792
C29   C     C_R   0.190174 0.912407 0.429599 -0.259734
C30   C     C_R   0.771806 0.167376 0.532773 -0.078321
H8    H     H_    0.902965 0.136569 0.634751 0.205908
H9    H     H_    0.536361 0.916782 0.665781 0.183428
H10   H     H_    0.750265 0.972157 0.712908 0.160947
H11   H     H_    0.674403 0.254305 0.382828 0.198828
C31   C     C_R   0.346197 0.327993 0.636520 -0.345784
H12   H     H_    0.546092 0.294312 0.664304 0.154440
H13   H     H_    0.345335 0.261323 0.689786 0.170211
N1    N     N_R   0.246280 0.438200 0.549540 -0.232926
C32   C     C_R   0.759770 0.645284 0.383729 0.100521
C33   C     C_R   0.663048 0.676447 0.358070 -0.231975
C34   C     C_R   0.559229 0.621270 0.401480 -0.124748
C35   C     C_R   0.551004 0.533786 0.471647 0.048402
C36   C     C_R   0.652736 0.504913 0.495679 0.292850
C37   C     C_R   0.446522 0.474374 0.519073 -0.004338
C38   C     C_R   0.446117 0.387393 0.588702 0.080321
C39   C     C_R   0.545744 0.360511 0.610875 -0.230231
C40   C     C_R   0.646948 0.418493 0.565912 -0.165648
C41   C     C_R   0.341785 0.497257 0.501083 0.009277
C42   C     C_R   0.246710 0.354954 0.615911 0.810346
N2    N     N_R   0.754330 0.561180 0.450980 -0.209829
H14   H     H_    0.334039 0.561615 0.449248 0.151465
H15   H     H_    0.839974 0.688549 0.349649 0.128959
H16   H     H_    0.487155 0.648852 0.378859 0.144839
H17   H     H_    0.668557 0.743594 0.304338 0.157324
H18   H     H_    0.719071 0.392834 0.589247 0.199653
N3    N     N_R   0.389007 0.787803 0.577347 0.102166
O9    O     O_R   0.341775 0.733026 0.649209 -0.374606
O10   O     O_R   0.465122 0.761248 0.550470 -0.373188
F1    F     F_    0.150035 0.297617 0.662279 -0.667957
F2    F     F_    0.963822 0.292121 0.089056 -0.643851
N4    N     N_R   0.453233 0.234498 0.329191 0.116871
O11   O     O_R   0.512536 0.279730 0.261316 -0.344400
O12   O     O_R   0.382457 0.276538 0.344164 -0.364784

loop_
_geom_bond_atom_site_label_1
_geom_bond_atom_site_label_2
_geom_bond_distance
_ccdc_geom_bond_type
C23   C30   1.419060 A    
N3    O9    1.302199 A    
H2    C14   1.110121 S    
Cu1   N1    2.040406 S    
Cu1   Cu2   2.707323 S    
C22   C24   1.427383 A    
C21   H9    1.076513 S    
C26   N4    1.437309 S    
Cu1   O7    1.929222 S    
C2    C7    1.422609 S    
C9    H5    1.110115 S    
C20   C21   1.389482 A    
O4    C2    1.300426 A    
C19   C20   1.385159 A    
C12   C14   1.537642 S    
C3    C18   1.469314 S    
C21   C22   1.416292 A    
O7    C4    1.300549 A    
N4    O12   1.301405 A    
C5    C6    1.539830 S    
C32   C33   1.391711 A    
C19   C30   1.400558 A    
C28   N3    1.436585 S    
C24   C25   1.427611 A    
O5    C3    1.300778 A    
C36   N2    1.384255 A    
C6    H1    1.110120 S    
C10   C13   1.537004 S    
C11   C12   1.537390 S    
C7    C15   1.198386 T    
C11   C13   1.550949 S    
C35   C36   1.429819 A    
C9    C10   1.538027 S    
C13   H3    1.110113 S    
H6    C29   1.083623 S    
N3    O10   1.301787 A    
O3    Cu1   1.926011 S    
N1    C41   1.365764 A    
C31   H13   1.084056 S    
C6    C14   1.551829 S    
C35   C37   1.437628 A    
C11   H4    1.110116 S    
C4    C8    1.422850 S    
O3    C2    1.299623 A    
C22   C23   1.414838 A    
N4    O11   1.301344 A    
C34   H16   1.077874 S    
C8    C16   1.198470 T    
C13   C14   1.550923 S    
O1    C1    1.305890 A    
C17   H7    1.080719 S    
C26   C27   1.390269 A    
C38   C39   1.388418 A    
C23   C27   1.407641 A    
Cu2   O8    1.926011 S    
C41   H14   1.076655 S    
C42   F1    1.354845 S    
C24   C28   1.421167 A    
C33   H17   1.082557 S    
C27   H11   1.081297 S    
C5    C12   1.526162 S    
O8    C4    1.299555 A    
C10   C15   1.453579 S    
C9    C11   1.551747 S    
C25   C26   1.408245 A    
C18   C28   1.415298 A    
N1    C42   1.356134 A    
C31   C42   1.386902 A    
Cu1   O5    1.955077 S    
C6    C10   1.537816 S    
O1    Cu1   1.964594 S    
C17   C29   1.384340 A    
O2    Cu2   1.955077 S    
C12   C16   1.453784 S    
O6    C3    1.307758 A    
O4    Cu2   1.929221 S    
C32   N2    1.358260 A    
C36   C40   1.406495 A    
O2    C1    1.299924 A    
C34   C35   1.410138 A    
C31   C38   1.399445 A    
C20   H10   1.082714 S    
H12   C39   1.084687 S    
C33   C34   1.393539 A    
C5    F2    1.382517 S    
C1    C30   1.464329 S    
C19   H8    1.083293 S    
C40   H18   1.063717 S    
C37   C38   1.417442 A    
C39   C40   1.383868 A    
C37   C41   1.417411 A    
C5    C9    1.539721 S    
Cu2   N2    2.028303 S    
Cu2   O6    1.964594 S    
C32   H15   1.081554 S    
C17   C25   1.404646 A    
C18   C29   1.395448 A    
