data_mof_unit_7988.cif
_audit_creation_date              2012-12-10T17:42:47-0500
_audit_creation_method            fapswitch 2.2
_symmetry_space_group_name_H-M    P1
_symmetry_Int_Tables_number       1
_space_group_crystal_system       triclinic
_cell_length_a                    15.009941
_cell_length_b                    13.782746
_cell_length_c                    15.928121
_cell_angle_alpha                 89.363805
_cell_angle_beta                  89.523129
_cell_angle_gamma                 88.556701
_cell_volume                      3293.82594484

loop_
_atom_site_label
_atom_site_type_symbol
_atom_type_description
_atom_site_fract_x
_atom_site_fract_y
_atom_site_fract_z
_atom_type_partial_charge
C1    C     C_R   0.328909 0.501071 0.497974 0.815452
C2    C     C_3   0.596147 0.485154 0.947992 -0.588846
C3    C     C_3   0.603929 0.497359 0.045828 -0.065056
C4    C     C_1   0.498667 0.498871 0.824239 0.177928
C5    C     C_1   0.503967 0.501856 0.176127 0.101169
C6    C     C_1   0.502162 0.501396 0.251339 -0.081456
C7    C     C_R   0.813679 0.459310 0.430848 -0.191826
C8    C     C_R   0.767161 0.498445 0.498848 -0.085775
C9    C     C_R   0.811336 0.546552 0.561781 -0.181343
C10   C     C_R   0.903671 0.556206 0.557832 -0.040820
C11   C     C_R   0.952060 0.513818 0.490345 -0.035790
C12   C     C_R   0.500417 0.500449 0.340465 0.788630
C13   C     C_R   0.906378 0.467199 0.425362 0.023673
C14   C     C_R   0.948198 0.607618 0.619970 0.399861
C15   C     C_R   0.041436 0.608793 0.619706 0.390469
C16   C     C_R   0.091033 0.558772 0.556485 -0.170637
C17   C     C_R   0.045730 0.516000 0.488820 -0.083020
C18   C     C_R   0.093654 0.473898 0.420370 -0.017725
C19   C     C_R   0.045808 0.446522 0.347735 -0.095978
C20   C     C_R   0.953057 0.433861 0.354006 0.437611
C21   C     C_R   0.184638 0.550136 0.559386 0.450346
C22   C     C_R   0.231854 0.504189 0.494122 -0.218378
C23   C     C_R   0.670968 0.499076 0.499876 0.801292
C24   C     C_R   0.187502 0.461498 0.426844 -0.120833
C25   C     C_R   0.428237 0.796276 0.531737 0.688459
C26   C     C_R   0.437801 0.208606 0.547125 0.677577
C27   C     C_R   0.570846 0.792289 0.467282 -0.024533
C28   C     C_R   0.565452 0.204956 0.458615 -0.028695
C29   C     C_R   0.573470 0.895320 0.467739 -0.177577
C30   C     C_R   0.571384 0.102194 0.464114 -0.173443
C31   C     C_R   0.502770 0.948763 0.505717 -0.042893
C32   C     C_R   0.501900 0.052063 0.504456 -0.040778
C33   C     C_R   0.432102 0.898671 0.543524 -0.058429
C34   C     C_R   0.430900 0.105535 0.542235 -0.056631
C35   C     C_R   0.645580 0.945782 0.431672 0.441837
C36   C     C_R   0.644532 0.048535 0.429805 0.446326
C37   C     C_R   0.357986 0.054764 0.577462 -0.098860
C38   C     C_R   0.363319 0.952417 0.585906 -0.090659
C39   C     C_R   0.499800 0.499540 0.659646 0.811625
C40   C     C_3   0.451339 0.593927 0.048688 -0.344920
C41   C     C_3   0.451927 0.410888 0.053618 -0.331664
C42   C     C_3   0.440730 0.412558 0.954011 -0.047788
C43   C     C_3   0.462289 0.603383 0.949893 -0.120983
C44   C     C_1   0.499306 0.498649 0.748934 -0.084243
C45   C     C_3   0.505317 0.501602 0.083675 0.179644
C46   C     C_3   0.497825 0.500062 0.916851 0.163469
Cu1   Cu    Cu3+1 0.499990 0.597420 0.500010 1.024249
Cu2   Cu    Cu3+1 0.499990 0.402580 0.500010 0.992412
H1    H     H_    0.624666 0.750618 0.438626 0.204675
H2    H     H_    0.614433 0.244814 0.423161 0.189380
H3    H     H_    0.380365 0.578089 0.062494 0.095974
H4    H     H_    0.384338 0.419518 0.082351 0.079819
H5    H     H_    0.641077 0.534903 0.913412 0.178988
H6    H     H_    0.621536 0.412649 0.928467 0.230040
H7    H     H_    0.776608 0.425774 0.381272 0.189003
H8    H     H_    0.772776 0.575523 0.613916 0.170352
N1    N     N_R   0.499930 0.743810 0.499960 -0.247025
N2    N     N_R   0.499930 0.256190 0.499960 -0.240612
O1    O     O_R   0.370250 0.582280 0.500020 -0.517344
O2    O     O_R   0.370250 0.417720 0.500020 -0.536063
O3    O     O_R   0.499990 0.582310 0.379440 -0.565388
O4    O     O_R   0.499990 0.417690 0.379440 -0.588025
O5    O     O_R   0.629730 0.582260 0.499990 -0.595054
O6    O     O_R   0.629730 0.417740 0.499990 -0.596540
O7    O     O_R   0.499980 0.582240 0.620570 -0.523707
O8    O     O_R   0.499980 0.417760 0.620570 -0.572666
C47   C     C_2   0.372646 0.635380 0.912148 0.382585
H9    H     H_    0.313388 0.643096 0.951257 0.051043
O9    O     O_2   0.365515 0.654067 0.837315 -0.461112
C48   C     C_2   0.342408 0.428337 0.932415 0.231322
H10   H     H_    0.295040 0.456889 0.978271 0.099976
O10   O     O_2   0.315241 0.412730 0.861854 -0.581402
O11   O     O_3   0.082977 0.653123 0.685825 -0.514924
C49   C     C_3   0.101598 0.749622 0.662573 -0.134106
H11   H     H_    0.140827 0.753748 0.603173 0.149564
H12   H     H_    0.142001 0.781506 0.712761 0.213125
H13   H     H_    0.039638 0.794603 0.656931 0.112609
O12   O     O_3   0.231343 0.585504 0.626641 -0.531412
C50   C     C_3   0.243049 0.510110 0.686493 -0.072562
H14   H     H_    0.275926 0.540137 0.742032 0.243380
H15   H     H_    0.286941 0.450558 0.661977 0.137835
H16   H     H_    0.178187 0.480706 0.707897 0.166054
C51   C     C_2   0.239638 0.396132 0.369871 0.410481
H17   H     H_    0.304636 0.416926 0.346576 0.029632
O13   O     O_2   0.211663 0.316805 0.351311 -0.501175
C52   C     C_2   0.089431 0.445721 0.263158 0.502396
H18   H     H_    0.149363 0.486579 0.252315 0.005517
O14   O     O_2   0.058990 0.401313 0.204507 -0.490364
O15   O     O_3   0.906358 0.399349 0.286426 -0.536676
C53   C     C_3   0.903156 0.297437 0.294095 -0.151160
H19   H     H_    0.866201 0.269296 0.239869 0.215870
H20   H     H_    0.867011 0.275469 0.352146 0.118171
H21   H     H_    0.971118 0.263190 0.293142 0.181501
O16   O     O_3   0.348206 0.751100 0.543654 -0.503778
C54   C     C_3   0.294627 0.770429 0.472284 -0.303967
H22   H     H_    0.329039 0.747669 0.413176 0.161872
H23   H     H_    0.273890 0.848283 0.467780 0.131993
H24   H     H_    0.233054 0.728109 0.477902 0.178413
O17   O     O_3   0.385661 0.262089 0.602663 -0.545255
C55   C     C_3   0.416733 0.244513 0.685230 -0.251022
H25   H     H_    0.386252 0.300092 0.727109 0.219784
H26   H     H_    0.490478 0.249912 0.689833 0.182874
H27   H     H_    0.396504 0.172472 0.709392 0.136975
O18   O     O_3   0.714454 0.895402 0.391807 -0.525274
C56   C     C_3   0.779013 0.867052 0.451805 -0.300178
H28   H     H_    0.749598 0.829402 0.507258 0.124707
H29   H     H_    0.817058 0.930314 0.472531 0.164425
H30   H     H_    0.827087 0.815261 0.422060 0.200625
O19   O     O_3   0.715363 0.095112 0.392200 -0.540422
C57   C     C_3   0.772755 0.129264 0.454847 -0.329440
H31   H     H_    0.769203 0.088857 0.515863 0.132436
H32   H     H_    0.758738 0.207451 0.466240 0.167838
H33   H     H_    0.842430 0.121793 0.431627 0.191380
C58   C     C_2   0.273289 0.106563 0.600877 0.405437
H34   H     H_    0.239088 0.089339 0.659197 0.041364
O20   O     O_2   0.239730 0.167204 0.553549 -0.474366
C59   C     C_2   0.298503 0.903346 0.642277 0.422933
H35   H     H_    0.228357 0.924074 0.641273 -0.002183
O21   O     O_2   0.323873 0.840961 0.692270 -0.449600
C60   C     C_2   0.482822 0.315061 0.094451 0.361920
H36   H     H_    0.452484 0.292886 0.153521 0.097455
O22   O     O_2   0.542355 0.263743 0.064811 -0.523949
C61   C     C_2   0.459166 0.690203 0.094004 0.324411
H37   H     H_    0.416548 0.750937 0.074371 0.077738
O23   O     O_2   0.510632 0.701756 0.151666 -0.475239
C62   C     C_2   0.465271 0.313294 0.916220 0.506989
H38   H     H_    0.427753 0.250531 0.936038 0.089274
O24   O     O_2   0.523923 0.301682 0.863467 -0.589671
C63   C     C_2   0.527180 0.683379 0.924531 0.391076
H39   H     H_    0.555589 0.730746 0.970392 0.078359
O25   O     O_2   0.547341 0.697287 0.850968 -0.500296
C64   C     C_2   0.654920 0.588608 0.065229 0.446782
H40   H     H_    0.679135 0.635482 0.015413 0.052061
O26   O     O_2   0.672952 0.609076 0.137485 -0.445435
C65   C     C_2   0.661539 0.413942 0.081469 0.494736
H41   H     H_    0.698213 0.364943 0.040105 0.094190
O27   O     O_2   0.671336 0.402861 0.157085 -0.503525
O28   O     O_3   0.901968 0.652421 0.685166 -0.537115
C66   C     C_3   0.864116 0.742039 0.656998 -0.300531
H42   H     H_    0.791557 0.734816 0.647068 0.172356
H43   H     H_    0.894907 0.771870 0.598434 0.105804
H44   H     H_    0.872236 0.796510 0.706928 0.200622

loop_
_geom_bond_atom_site_label_1
_geom_bond_atom_site_label_2
_ccdc_geom_bond_type
C30   C32   A    
C16   C21   A    
C27   C29   A    
C34   C37   A    
C11   C13   A    
C41   C42   S    
C19   C20   A    
C7    H7    S    
C19   C52   S    
C58   H34   S    
C54   H24   S    
C61   H37   S    
C4    C46   S    
C2    C46   S    
C56   H29   S    
C62   H38   S    
C49   H12   S    
C51   H17   S    
C18   C24   A    
C24   C51   S    
C1    O1    A    
Cu1   O5    S    
C5    C6    T    
C66   H44   S    
C52   O14   D    
C61   O23   D    
C15   C16   A    
C42   C48   S    
C8    C23   S    
C18   C19   A    
O11   C49   S    
C57   H31   S    
C38   C59   S    
Cu2   O4    S    
C26   C34   A    
C40   C43   S    
C35   C36   A    
C8    C9    A    
C49   H13   S    
C21   O12   S    
C31   C33   A    
C48   H10   S    
C65   H41   S    
C9    C10   A    
C41   H4    S    
C26   O17   S    
C23   O5    A    
C1    C22   S    
C2    H6    S    
C21   C22   A    
C39   O7    A    
C25   N1    A    
O18   C56   S    
C60   O22   D    
Cu2   O2    S    
C40   C45   S    
C56   H30   S    
C49   H11   S    
C47   H9    S    
C14   O28   S    
C43   C63   S    
C35   O18   S    
C10   C14   A    
C1    O2    A    
C50   H15   S    
C7    C8    A    
C28   H2    S    
C52   H18   S    
C16   C17   A    
C37   C58   S    
C4    C44   T    
C5    C45   S    
C3    C45   S    
C55   H27   S    
C3    C64   S    
C47   O9    D    
C32   C34   A    
C37   C38   A    
Cu1   N1    S    
C12   O4    A    
C53   H20   S    
Cu1   Cu2   S    
C7    C13   A    
C55   H26   S    
C17   C18   A    
C9    H8    S    
C27   N1    A    
C26   N2    A    
C57   H33   S    
C64   O26   D    
C23   O6    A    
C51   O13   D    
C10   C11   A    
C42   C46   S    
C39   O8    A    
C22   C24   A    
C60   H36   S    
C53   H21   S    
C63   H39   S    
C56   H28   S    
C65   O27   D    
C40   C61   S    
C11   C17   A    
C62   O24   D    
C13   C20   A    
C15   O11   S    
O12   C50   S    
C31   C32   A    
C2    H5    S    
Cu1   O3    S    
C50   H16   S    
C58   O20   D    
C66   H42   S    
C54   H23   S    
Cu2   N2    S    
C39   C44   S    
C28   N2    A    
C40   H3    S    
C20   O15   S    
C29   C35   A    
C33   C38   A    
O17   C55   S    
C30   C36   A    
C59   O21   D    
C2    C3    S    
C54   H22   S    
C29   C31   A    
C59   H35   S    
C6    C12   S    
C12   O3    A    
C66   H43   S    
C53   H19   S    
C28   C30   A    
C55   H25   S    
C64   H40   S    
C3    C65   S    
C41   C60   S    
O16   C54   S    
C43   C46   S    
C57   H32   S    
Cu2   O6    S    
O28   C66   S    
C42   C62   S    
Cu1   O1    S    
C50   H14   S    
C25   O16   S    
C43   C47   S    
C36   O19   S    
C41   C45   S    
C14   C15   A    
C48   O10   D    
Cu2   O8    S    
O15   C53   S    
O19   C57   S    
Cu1   O7    S    
C27   H1    S    
C25   C33   A    
C63   O25   D    
