data_mof_unit_21632.cif
_audit_creation_date              2012-12-11T15:13:49-0500
_audit_creation_method            fapswitch 2.2
_symmetry_space_group_name_H-M    P1
_symmetry_Int_Tables_number       1
_space_group_crystal_system       triclinic
_cell_length_a                    6.957356
_cell_length_b                    13.830549
_cell_length_c                    19.940709
_cell_angle_alpha                 103.868834
_cell_angle_beta                  91.348244
_cell_angle_gamma                 90.129237
_cell_volume                      1862.26044273

loop_
_atom_site_label
_atom_site_type_symbol
_atom_type_description
_atom_site_fract_x
_atom_site_fract_y
_atom_site_fract_z
_atom_type_partial_charge
O1    O     O_R   0.506780 0.600060 0.449950 -0.534122
O2    O     O_R   0.179840 0.597110 0.589410 -0.529134
O3    O     O_R   0.004570 0.399940 0.550050 -0.542048
C1    C     C_R   0.349794 0.618417 0.616970 0.780700
O4    O     O_R   0.177380 0.612160 0.452890 -0.549827
O5    O     O_R   0.002100 0.415100 0.412560 -0.563280
C2    C     C_R   0.345674 0.639550 0.437239 0.819184
O6    O     O_R   0.509250 0.584900 0.587440 -0.520499
O7    O     O_3   0.337570 0.435330 0.486930 -0.408662
V1    V     V_3+5 0.064650 0.512000 0.502430 1.515056
O8    O     O_R   0.672090 0.402890 0.410590 -0.541114
C3    C     C_R   0.838168 0.381452 0.382902 0.772372
O9    O     O_R   0.674540 0.387840 0.547110 -0.561745
C4    C     C_R   0.845190 0.361014 0.563105 0.804598
V2    V     V_3+5 0.564040 0.488000 0.497570 1.493677
O10   O     O_3   0.840990 0.564670 0.513070 -0.355128
C5    C     C_R   0.967864 0.119078 0.608255 0.586967
C6    C     C_R   0.862554 0.282664 0.600820 -0.261840
C7    C     C_R   0.820054 0.311591 0.931310 -0.352403
C8    C     C_R   0.808262 0.386404 0.895983 0.707003
C9    C     C_R   0.823915 0.364320 0.824369 0.545976
C10   C     C_R   0.845204 0.264102 0.785661 -0.156299
C11   C     C_R   0.866937 0.188074 0.822795 -0.215028
C12   C     C_R   0.857560 0.237433 0.711982 -0.011440
C13   C     C_R   0.920043 0.140484 0.678473 -0.303335
C14   C     C_R   0.936873 0.067144 0.715722 0.600819
C15   C     C_R   0.905197 0.089326 0.786073 0.558791
C16   C     C_R   0.809577 0.303239 0.669925 -0.182033
C17   C     C_R   0.956513 0.193462 0.571636 0.304489
C18   C     C_R   0.852895 0.213380 0.895873 -0.153867
H1    H     H_    0.733611 0.371598 0.689519 0.211440
H2    H     H_    0.808239 0.330720 0.987048 0.185252
C19   C     C_3   0.698149 0.185628 0.237733 -0.354260
C20   C     C_3   0.841461 0.195131 0.299692 0.334487
H3    H     H_    0.571097 0.135555 0.225623 0.175706
C21   C     C_3   0.840723 0.309343 0.312946 -0.230518
C22   C     C_3   0.700516 0.300542 0.250699 0.671727
C23   C     C_3   0.869400 0.296341 0.201419 -0.161514
C24   C     C_3   0.010480 0.305293 0.263996 -0.319939
C25   C     C_3   0.011994 0.191260 0.251917 0.481080
C26   C     C_3   0.871463 0.181702 0.189413 -0.204356
H4    H     H_    0.879980 0.339225 0.161160 0.182552
H5    H     H_    0.144672 0.346840 0.275459 0.159703
C27   C     C_3   0.533851 0.745233 0.725778 0.616171
C28   C     C_3   0.411241 0.839172 0.745752 0.398921
C29   C     C_3   0.354435 0.810935 0.812595 -0.178643
C30   C     C_3   0.477914 0.715799 0.792774 -0.220165
C31   C     C_3   0.299893 0.658136 0.754123 -0.176160
C32   C     C_3   0.176758 0.753869 0.774841 -0.017051
C33   C     C_3   0.233519 0.783139 0.707356 -0.183725
C34   C     C_3   0.358114 0.688221 0.687538 -0.240608
H6    H     H_    0.578084 0.688118 0.827996 0.203332
H7    H     H_    0.253883 0.582368 0.757038 0.192484
H8    H     H_    0.029752 0.757505 0.795729 0.211017
H9    H     H_    0.133126 0.807749 0.670930 0.251818
C35   C     C_R   0.408006 0.887556 0.394385 0.347965
H10   H     H_    0.514636 0.998494 0.308575 0.162028
C36   C     C_R   0.352308 0.714977 0.396652 -0.339467
C37   C     C_R   0.270635 0.693389 0.067648 0.487487
C38   C     C_R   0.195475 0.630088 0.105088 0.564174
C39   C     C_R   0.208829 0.655338 0.176988 0.464499
C40   C     C_R   0.318232 0.739051 0.212825 -0.044351
C41   C     C_R   0.378533 0.808106 0.175053 -0.103346
C42   C     C_R   0.351076 0.761487 0.285943 0.051576
C43   C     C_R   0.402021 0.859752 0.321402 -0.125690
C44   C     C_R   0.456769 0.927128 0.283066 -0.109696
C45   C     C_R   0.451365 0.901209 0.211302 -0.076674
C46   C     C_R   0.353046 0.687135 0.323562 0.356582
C47   C     C_R   0.367283 0.815339 0.431321 0.506039
C48   C     C_R   0.353362 0.784668 0.102222 -0.307596
H11   H     H_    0.500295 0.955789 0.184566 0.102454
O11   O     O_R   0.203580 0.914920 0.912610 -0.519916
O12   O     O_R   0.535710 0.887810 0.047120 -0.551540
O13   O     O_R   0.710730 0.084950 0.087430 -0.554330
C49   C     C_R   0.367443 0.861863 0.063747 0.818459
O14   O     O_R   0.533010 0.902850 0.910600 -0.532228
O15   O     O_R   0.708010 0.100090 0.949930 -0.538978
C50   C     C_R   0.363039 0.881312 0.883070 0.825554
O16   O     O_R   0.206300 0.899780 0.050100 -0.544600
O17   O     O_3   0.375170 0.064580 0.013100 -0.390088
V3    V     V_3+5 0.648200 0.988020 0.997570 1.566242
O18   O     O_R   0.038030 0.112330 0.952840 -0.533232
C51   C     C_R   0.867538 0.138757 0.936717 0.873209
O19   O     O_R   0.040730 0.097300 0.089360 -0.540367
C52   C     C_R   0.875078 0.114203 0.118255 0.708589
V4    V     V_3+5 0.148780 0.012220 0.002360 1.583303
O20   O     O_3   0.871930 0.935430 0.986900 -0.365635
O21   O     O_3   0.032772 0.177893 0.506546 -0.536775
C53   C     C_3   0.234499 0.189583 0.514645 -0.081522
H12   H     H_    0.299138 0.135283 0.541472 0.163133
H13   H     H_    0.275180 0.266556 0.543109 0.109035
H14   H     H_    0.298924 0.175797 0.463130 0.156052
F1    F     F_    0.540574 0.357717 0.247895 -0.706976
O22   O     O_3   0.182976 0.138645 0.257528 -0.561521
C54   C     C_3   0.281913 0.187414 0.319630 -0.251490
H15   H     H_    0.185372 0.213981 0.363800 0.159519
H16   H     H_    0.366637 0.251373 0.312007 0.188265
H17   H     H_    0.383325 0.136700 0.336018 0.170140
O23   O     O_3   0.470551 0.936781 0.745554 -0.541438
C55   C     C_3   0.489238 0.944815 0.676889 -0.057447
H18   H     H_    0.349244 0.932853 0.648068 0.210588
H19   H     H_    0.598718 0.892518 0.649363 0.203871
H20   H     H_    0.537484 0.021558 0.677713 0.120407
F2    F     F_    0.717589 0.741252 0.700348 -0.659097
F3    F     F_    0.980084 0.971958 0.683807 -0.623321
F4    F     F_    0.353145 0.841610 0.501164 -0.675620
O24   O     O_3   0.438552 0.986805 0.427899 -0.559454
C56   C     C_3   0.593146 0.997062 0.476466 -0.121638
H21   H     H_    0.707731 0.940444 0.460781 0.151317
H22   H     H_    0.539876 0.995017 0.528117 0.190411
H23   H     H_    0.660248 0.071345 0.481585 0.159754
O25   O     O_3   0.410943 0.593026 0.289295 -0.530279
C57   C     C_3   0.278992 0.519671 0.296623 0.042756
H24   H     H_    0.135221 0.547901 0.315672 0.115747
H25   H     H_    0.341868 0.476010 0.331586 0.124839
H26   H     H_    0.256330 0.470480 0.244347 0.227023
F5    F     F_    0.243559 0.670974 0.997905 -0.603734
F6    F     F_    0.086783 0.608511 0.210705 -0.664292
F7    F     F_    0.093313 0.548206 0.071842 -0.568998
F8    F     F_    0.036777 0.028438 0.575848 -0.614577
F9    F     F_    0.834819 0.443349 0.795458 -0.667729
F10   F     F_    0.786755 0.482199 0.931855 -0.566273
F11   F     F_    0.918856 0.012785 0.817662 -0.651588
O26   O     O_3   0.820755 0.145088 0.353217 -0.553845
C58   C     C_3   0.889086 0.046613 0.332145 -0.122717
H27   H     H_    0.045791 0.044229 0.342690 0.194253
H28   H     H_    0.854673 0.011025 0.276857 0.103161
H29   H     H_    0.821228 0.000730 0.363554 0.153058

loop_
_geom_bond_atom_site_label_1
_geom_bond_atom_site_label_2
_ccdc_geom_bond_type
C5    C17   A    
C4    C6    S    
C54   H15   S    
H10   C44   S    
C1    O6    A    
C27   F2    S    
C54   H17   S    
C28   C29   S    
C29   C32   S    
C14   C15   A    
C40   C41   A    
C20   C25   S    
C42   C46   A    
C21   C22   S    
O14   C50   A    
C23   H4    S    
O5    C3    A    
C23   C24   S    
O15   C51   A    
C35   C43   A    
C56   H21   S    
C38   F7    S    
C46   O25   S    
C18   C51   S    
C17   O21   S    
O11   C50   A    
C5    F8    S    
O8    V2    S    
C31   C34   S    
C7    C8    A    
C58   H29   S    
C40   C42   A    
O24   C56   S    
O1    V2    S    
C11   C15   A    
C53   H13   S    
O7    V1    S    
C2    C36   S    
C8    F10   S    
C27   C30   S    
C57   H26   S    
O21   C53   S    
C44   C45   A    
C37   C38   A    
C37   F5    S    
C32   H8    S    
O9    C4    A    
O12   C49   A    
O22   C54   S    
C7    H2    S    
C14   F3    S    
O12   V3    S    
O25   C57   S    
C33   C34   S    
C21   C24   S    
C31   H7    S    
C41   C45   A    
C1    C34   S    
C11   C18   A    
C6    C16   A    
C12   C13   A    
C23   C26   S    
C28   O23   S    
C24   C25   S    
C29   C50   S    
C15   F11   S    
V4    O20   S    
C24   H5    S    
C13   C14   A    
O18   V4    S    
O18   C51   A    
C55   H20   S    
C19   C22   S    
C38   C39   A    
O2    C1    A    
C35   O24   S    
C22   C23   S    
O23   C55   S    
C41   C48   A    
O15   V3    S    
C47   F4    S    
C55   H19   S    
C19   C20   S    
C22   F1    S    
C6    C17   A    
O19   C52   A    
C53   H14   S    
V3    O20   S    
O3    C4    A    
C27   C34   S    
C36   C46   A    
C31   C32   S    
C32   C33   S    
O6    V2    S    
O9    V2    S    
C58   H27   S    
C10   C12   A    
C3    C21   S    
O13   V3    S    
O2    V1    S    
C27   C28   S    
O4    C2    A    
C57   H24   S    
C29   C30   S    
C25   C26   S    
C20   O26   S    
C39   F6    S    
O1    C2    A    
C16   H1    S    
C12   C16   A    
C25   O22   S    
O17   V3    S    
C30   C31   S    
O14   V3    S    
O5    V1    S    
O11   V4    S    
O8    C3    A    
C54   H16   S    
C36   C47   A    
C30   H6    S    
C26   C52   S    
O17   V4    S    
C33   H9    S    
C56   H23   S    
C19   C26   S    
C42   C43   A    
O7    V2    S    
C5    C13   A    
O4    V1    S    
O3    V1    S    
V1    O10   S    
C28   C33   S    
C55   H18   S    
C19   H3    S    
C20   C21   S    
C56   H22   S    
C45   H11   S    
C43   C44   A    
O13   C52   A    
C9    F9    S    
C39   C40   A    
C37   C48   A    
C8    C9    A    
C35   C47   A    
C48   C49   S    
C58   H28   S    
C10   C11   A    
O19   V4    S    
C53   H12   S    
C9    C10   A    
C7    C18   A    
C49   O16   A    
O16   V4    S    
V2    O10   S    
O26   C58   S    
C57   H25   S    
