data_mof_unit_15377.cif
_audit_creation_date              2012-12-10T19:44:35-0500
_audit_creation_method            fapswitch 2.2
_symmetry_space_group_name_H-M    P1
_symmetry_Int_Tables_number       1
_space_group_crystal_system       triclinic
_cell_length_a                    8.564461
_cell_length_b                    15.061272
_cell_length_c                    14.206797
_cell_angle_alpha                 90.765378
_cell_angle_beta                  99.02875
_cell_angle_gamma                 90.45117
_cell_volume                      1809.59893049

loop_
_atom_site_label
_atom_site_type_symbol
_atom_type_description
_atom_site_fract_x
_atom_site_fract_y
_atom_site_fract_z
_atom_type_partial_charge
C1    C     C_R   0.500150 0.328598 0.499384 0.890561
C2    C     C_R   0.493501 0.672865 0.500134 0.866116
C3    C     C_R   0.409300 0.438049 0.095868 -0.308189
C4    C     C_R   0.620800 0.541133 0.907255 -0.296128
C5    C     C_R   0.409379 0.439616 0.194852 0.136106
C6    C     C_R   0.618435 0.542029 0.808192 0.147458
C7    C     C_R   0.589154 0.560716 0.214048 0.024514
C8    C     C_R   0.379423 0.459467 0.783032 0.005787
C9    C     C_R   0.587653 0.563424 0.115065 -0.256363
C10   C     C_R   0.374623 0.460079 0.881581 -0.268745
C11   C     C_R   0.497996 0.500864 0.053356 0.132755
C12   C     C_R   0.497519 0.500589 0.946461 0.135804
C13   C     C_R   0.200978 0.499581 0.474929 0.973017
C14   C     C_R   0.799012 0.499758 0.525059 0.979081
C15   C     C_2   0.035544 0.499028 0.461526 -0.357553
C16   C     C_2   0.964433 0.499261 0.538459 -0.354108
C17   C     C_R   0.361432 0.098419 0.523754 -0.189152
C18   C     C_R   0.466145 0.908681 0.415606 -0.221103
C19   C     C_R   0.366607 0.189737 0.526227 -0.017996
C20   C     C_R   0.463670 0.817278 0.413753 -0.016802
C21   C     C_R   0.495815 0.233599 0.497266 -0.120200
C22   C     C_R   0.477941 0.770244 0.500676 -0.153923
C23   C     C_R   0.619405 0.186529 0.465223 -0.080898
C24   C     C_R   0.475081 0.818408 0.587782 -0.073035
C25   C     C_R   0.616700 0.093640 0.466276 -0.029405
C26   C     C_R   0.474407 0.911442 0.587752 -0.042239
C27   C     C_R   0.487177 0.050739 0.497558 0.038211
C28   C     C_R   0.478225 0.955117 0.501341 0.048628
H1    H     H_    0.972831 0.498731 0.388716 0.181548
H2    H     H_    0.027129 0.499393 0.611269 0.179785
H3    H     H_    0.260343 0.063886 0.543939 0.153367
H4    H     H_    0.458273 0.944731 0.349324 0.146631
H5    H     H_    0.340658 0.387087 0.053300 0.133074
H6    H     H_    0.720055 0.572065 0.952634 0.134263
H7    H     H_    0.660034 0.608405 0.260228 0.137746
H8    H     H_    0.285021 0.427324 0.734715 0.142136
H9    H     H_    0.655320 0.615413 0.088104 0.139967
H10   H     H_    0.273433 0.429746 0.905586 0.136646
N1    N     N_R   0.500000 0.499980 0.252470 -0.115372
N2    N     N_R   0.500000 0.500020 0.747530 -0.114447
O1    O     O_R   0.500010 0.369070 0.579480 -0.621908
O2    O     O_R   0.499990 0.630930 0.420520 -0.619437
O3    O     O_R   0.500010 0.369060 0.420520 -0.615880
O4    O     O_R   0.499990 0.630940 0.579480 -0.611421
O5    O     O_R   0.271750 0.500000 0.560890 -0.625019
O6    O     O_R   0.728250 0.500000 0.439110 -0.621331
O7    O     O_R   0.271750 0.499990 0.401930 -0.623583
O8    O     O_R   0.728250 0.500010 0.598070 -0.625745
Zn1   Zn    Zn3+2 0.500000 0.500010 0.606140 0.965939
Zn2   Zn    Zn3+2 0.500000 0.499990 0.393860 0.966612
C29   C     C_1   0.237545 0.237041 0.558044 0.188079
N3    N     N_1   0.134732 0.274922 0.583869 -0.211249
C30   C     C_1   0.440911 0.775800 0.320145 0.191230
N4    N     N_1   0.421589 0.743580 0.244762 -0.212547
C31   C     C_1   0.751166 0.233566 0.434839 0.183929
N5    N     N_1   0.855737 0.271126 0.410268 -0.180893
C32   C     C_1   0.471146 0.775008 0.678077 0.228439
N6    N     N_1   0.467087 0.741307 0.750411 -0.198210
C33   C     C_R   0.747449 0.042312 0.434277 0.125163
C34   C     C_R   0.852827 0.993671 0.499442 -0.130436
C35   C     C_R   0.976709 0.947018 0.468858 -0.147785
C36   C     C_R   0.996566 0.948656 0.373176 -0.102390
C37   C     C_R   0.892104 0.996655 0.307802 -0.125137
C38   C     C_R   0.767967 0.043311 0.338080 -0.150765
H11   H     H_    0.840405 0.992356 0.573793 0.114373
H12   H     H_    0.057815 0.909863 0.519367 0.128040
H13   H     H_    0.092866 0.912759 0.349735 0.134036
H14   H     H_    0.907426 0.997816 0.233647 0.131641
H15   H     H_    0.687811 0.080266 0.286719 0.128672
C39   C     C_R   0.463954 0.962851 0.677021 0.114197
C40   C     C_R   0.591156 0.015759 0.721070 -0.125704
C41   C     C_R   0.577316 0.066184 0.802636 -0.129849
C42   C     C_R   0.436712 0.064053 0.840926 -0.107459
C43   C     C_R   0.309778 0.011320 0.797814 -0.123742
C44   C     C_R   0.323148 0.960842 0.716236 -0.161048
H16   H     H_    0.700479 0.018353 0.692415 0.113813
H17   H     H_    0.675573 0.107062 0.836072 0.129325
H18   H     H_    0.426128 0.103263 0.903974 0.124418
H19   H     H_    0.200798 0.009788 0.827401 0.128992
H20   H     H_    0.223420 0.920880 0.683013 0.120510
C45   C     C_1   0.310702 0.377134 0.234562 0.209247
N7    N     N_1   0.230709 0.326776 0.265941 -0.204068
C46   C     C_1   0.740758 0.590804 0.771977 0.219953
N8    N     N_1   0.839419 0.630721 0.743811 -0.218547

loop_
_geom_bond_atom_site_label_1
_geom_bond_atom_site_label_2
_ccdc_geom_bond_type
O4    Zn1   S    
C31   N5    T    
C1    C21   S    
C42   C43   A    
C45   N7    T    
C14   O6    A    
C30   N4    T    
C33   C38   A    
C41   H17   S    
C36   H13   S    
C19   C21   A    
C24   C26   A    
C40   H16   S    
C3    H5    S    
C16   H2    S    
N2    Zn1   S    
C8    H8    S    
C35   H12   S    
C1    O3    A    
C2    O4    A    
C24   C32   S    
C2    C22   S    
C42   H18   S    
C39   C40   A    
C14   C16   S    
C4    C12   A    
C44   H20   S    
C33   C34   A    
O1    Zn1   S    
C15   H1    S    
O7    Zn2   S    
C4    H6    S    
C43   C44   A    
C29   N3    T    
C17   C27   A    
C6    N2    A    
C18   C28   A    
C4    C6    A    
C13   O7    A    
C41   C42   A    
C14   O8    A    
C34   C35   A    
C36   C37   A    
C5    C45   S    
C46   N8    T    
O5    Zn1   S    
C9    H9    S    
C38   H15   S    
C9    C11   A    
C10   C12   A    
O2    Zn2   S    
C1    O1    A    
O8    Zn1   S    
C20   C22   A    
C34   H11   S    
C43   H19   S    
C13   C15   S    
C26   C39   S    
C22   C24   A    
C18   H4    S    
C27   C28   S    
C7    C9    A    
C5    N1    A    
C37   H14   S    
C6    C46   S    
C7    H7    S    
C20   C30   S    
C3    C5    A    
C11   C12   S    
O3    Zn2   S    
C23   C31   S    
C25   C27   A    
C25   C33   S    
O6    Zn2   S    
C26   C28   A    
C10   H10   S    
C21   C23   A    
C40   C41   A    
C13   O5    A    
C32   N6    T    
C2    O2    A    
C17   H3    S    
C17   C19   A    
C18   C20   A    
C23   C25   A    
C35   C36   A    
C3    C11   A    
C37   C38   A    
C19   C29   S    
N1    Zn2   S    
C8    C10   A    
C39   C44   A    
C7    N1    A    
C8    N2    A    
C15   C16   D    
