data_mof_unit_30317.cif
_audit_creation_date              2012-12-11T16:45:47-0500
_audit_creation_method            fapswitch 2.2
_symmetry_space_group_name_H-M    P1
_symmetry_Int_Tables_number       1
_space_group_crystal_system       monoclinic
_cell_length_a                    19.830829
_cell_length_b                    17.239587
_cell_length_c                    15.546001
_cell_angle_alpha                 90.0
_cell_angle_beta                  53.193476
_cell_angle_gamma                 90.0
_cell_volume                      4255.35957405

loop_
_atom_site_label
_atom_site_type_symbol
_atom_type_description
_atom_site_fract_x
_atom_site_fract_y
_atom_site_fract_z
_atom_type_partial_charge
Br1   Br    Br    0.490532 0.719622 0.627188 -0.393056
Br2   Br    Br    0.134920 0.426198 0.217700 -0.387521
Br3   Br    Br    0.365079 0.926198 0.782300 -0.387522
Br4   Br    Br    0.634920 0.926198 0.217700 -0.387522
Br5   Br    Br    0.509468 0.719622 0.372811 -0.393057
Br6   Br    Br    0.990532 0.219622 0.627188 -0.393056
Br7   Br    Br    0.009468 0.219622 0.372811 -0.393057
Br8   Br    Br    0.942982 0.202197 0.139770 -0.467841
Br9   Br    Br    0.057018 0.202197 0.860230 -0.467840
Br10  Br    Br    0.442982 0.702197 0.139770 -0.467840
Br11  Br    Br    0.557017 0.702197 0.860230 -0.467840
Br12  Br    Br    0.865079 0.426198 0.782300 -0.387521
C1    C     C_R   0.845204 0.677177 0.036436 -0.101648
C2    C     C_R   0.156196 0.313192 0.062441 -0.103426
C3    C     C_R   0.343803 0.813192 0.937559 -0.103426
C4    C     C_R   0.656196 0.813192 0.062441 -0.103426
C5    C     C_R   0.822437 0.651254 0.320138 0.032768
C6    C     C_R   0.177563 0.651254 0.679863 0.032768
C7    C     C_R   0.322436 0.151254 0.320137 0.032768
C8    C     C_R   0.677564 0.151254 0.679863 0.032768
C9    C     C_R   0.699563 0.654740 0.507038 0.059126
C10   C     C_R   0.300437 0.654740 0.492962 0.059126
C11   C     C_R   0.199563 0.154740 0.507038 0.059126
C12   C     C_R   0.154795 0.677177 0.963564 -0.101648
C13   C     C_R   0.800437 0.154740 0.492962 0.059127
C14   C     C_R   0.765873 0.692894 0.415904 0.092749
C15   C     C_R   0.234127 0.692893 0.584096 0.092749
C16   C     C_R   0.265873 0.192893 0.415904 0.092749
C17   C     C_R   0.734127 0.192893 0.584096 0.092749
C18   C     C_R   0.286109 0.269257 0.421873 -0.152585
C19   C     C_R   0.713891 0.269257 0.578127 -0.152585
C20   C     C_R   0.786109 0.769257 0.421874 -0.152584
C21   C     C_R   0.213891 0.769257 0.578127 -0.152585
C22   C     C_R   0.233701 0.309807 0.516023 -0.105388
C23   C     C_R   0.345204 0.177177 0.036436 -0.101648
C24   C     C_R   0.766299 0.309807 0.483977 -0.105388
C25   C     C_R   0.733701 0.809807 0.516023 -0.105389
C26   C     C_R   0.266298 0.809807 0.483977 -0.105388
C27   C     C_R   0.160522 0.274244 0.603480 0.163090
C28   C     C_R   0.839478 0.274244 0.396520 0.163090
C29   C     C_R   0.660522 0.774244 0.603480 0.163090
C30   C     C_R   0.339478 0.774244 0.396520 0.163090
C31   C     C_R   0.646540 0.695453 0.600726 0.109049
C32   C     C_R   0.353460 0.695453 0.399274 0.109049
C33   C     C_R   0.146540 0.195453 0.600726 0.109049
C34   C     C_R   0.654795 0.177177 0.963564 -0.101648
C35   C     C_R   0.853460 0.195453 0.399274 0.109049
C36   C     C_3   0.570292 0.653479 0.626628 0.222542
C37   C     C_3   0.429708 0.653479 0.373372 0.222542
C38   C     C_3   0.070292 0.153479 0.626628 0.222542
C39   C     C_3   0.929708 0.153479 0.373371 0.222542
C40   C     C_R   0.903800 0.302011 0.206604 0.367273
C41   C     C_R   0.096200 0.302011 0.793396 0.367273
C42   C     C_R   0.403800 0.802011 0.206604 0.367273
C43   C     C_R   0.596200 0.802011 0.793396 0.367272
C44   C     C_3   0.629100 0.609263 0.522070 -0.559021
C45   C     C_R   0.891571 0.318553 0.301199 -0.164082
C46   C     C_3   0.370900 0.609262 0.477930 -0.559021
C47   C     C_3   0.129100 0.109262 0.522070 -0.559020
C48   C     C_3   0.870900 0.109262 0.477930 -0.559021
C49   C     C_2   0.783214 0.186083 0.957579 -0.115335
C50   C     C_2   0.216786 0.186083 0.042421 -0.115335
C51   C     C_2   0.283214 0.686083 0.957579 -0.115335
C52   C     C_2   0.716785 0.686083 0.042421 -0.115335
C53   C     C_2   0.300326 0.757964 0.916836 -0.043971
C54   C     C_2   0.699674 0.757964 0.083164 -0.043969
C55   C     C_2   0.800326 0.257964 0.916836 -0.043970
C56   C     C_R   0.108429 0.318553 0.698801 -0.164082
C57   C     C_2   0.199674 0.257964 0.083164 -0.043970
C58   C     C_R   0.866780 0.387292 0.896414 0.277941
C59   C     C_R   0.133219 0.387292 0.103586 0.277941
C60   C     C_R   0.366780 0.887292 0.896414 0.277942
C61   C     C_R   0.633220 0.887292 0.103586 0.277942
C62   C     C_R   0.864537 0.586185 0.314625 -0.070992
C63   C     C_R   0.135463 0.586185 0.685375 -0.070993
C64   C     C_R   0.364537 0.086185 0.314625 -0.070993
C65   C     C_R   0.635463 0.086185 0.685375 -0.070993
C66   C     C_R   0.864564 0.303205 0.006768 0.493125
C67   C     C_R   0.391571 0.818553 0.301199 -0.164082
C68   C     C_R   0.135436 0.303205 0.993232 0.493125
C69   C     C_R   0.364564 0.803205 0.006768 0.493125
C70   C     C_R   0.635435 0.803205 0.993232 0.493125
C71   C     C_R   0.861625 0.680980 0.218926 -0.122131
C72   C     C_R   0.138375 0.680980 0.781074 -0.122131
C73   C     C_R   0.361625 0.180980 0.218926 -0.122131
C74   C     C_R   0.638375 0.180980 0.781074 -0.122131
C75   C     C_R   0.906813 0.395360 0.302513 0.392021
C76   C     C_R   0.093187 0.395360 0.697487 0.392021
C77   C     C_R   0.406813 0.895360 0.302513 0.392021
C78   C     C_R   0.608429 0.818553 0.698801 -0.164082
C79   C     C_R   0.593187 0.895360 0.697487 0.392021
C80   C     C_R   0.829991 0.581954 0.951281 -0.047915
C81   C     C_R   0.170009 0.581954 0.048719 -0.047915
C82   C     C_R   0.329991 0.081954 0.951281 -0.047915
C83   C     C_R   0.670009 0.081954 0.048719 -0.047915
C84   C     C_R   0.791931 0.647355 0.015758 0.088145
C85   C     C_R   0.208069 0.647355 0.984242 0.088145
C86   C     C_R   0.291931 0.147355 0.015758 0.088145
C87   C     C_R   0.708069 0.147355 0.984242 0.088145
C88   C     C_R   0.843803 0.313192 0.937559 -0.103426
Cl1   Cl    Cl    0.792920 0.259077 0.132859 -0.619102
Cl2   Cl    Cl    0.207080 0.259077 0.867141 -0.619102
Cl3   Cl    Cl    0.292920 0.759077 0.132859 -0.619102
Cl4   Cl    Cl    0.707080 0.759077 0.867141 -0.619102
Cl5   Cl    Cl    0.926378 0.435888 0.389394 -0.511200
Cl6   Cl    Cl    0.073622 0.435888 0.610606 -0.511200
Cl7   Cl    Cl    0.426378 0.935888 0.389394 -0.511200
Cl8   Cl    Cl    0.573622 0.935889 0.610606 -0.511199
H1    H     H_    0.842155 0.732360 0.070391 0.099442
H2    H     H_    0.458792 0.616021 0.301128 0.133331
H3    H     H_    0.041208 0.116021 0.698871 0.133330
H4    H     H_    0.958792 0.116021 0.301128 0.133331
H5    H     H_    0.633651 0.546536 0.534474 0.187767
H6    H     H_    0.366349 0.546536 0.465525 0.187767
H7    H     H_    0.133650 0.046536 0.534475 0.187767
H8    H     H_    0.866349 0.046536 0.465525 0.187767
H9    H     H_    0.620164 0.622180 0.459392 0.254835
H10   H     H_    0.379836 0.622180 0.540607 0.254835
H11   H     H_    0.120164 0.122180 0.459392 0.254835
H12   H     H_    0.157845 0.732360 0.929609 0.099443
H13   H     H_    0.879836 0.122180 0.540607 0.254835
H14   H     H_    0.815948 0.160771 0.986969 0.200046
H15   H     H_    0.184052 0.160771 0.013030 0.200046
H16   H     H_    0.315948 0.660771 0.986970 0.200046
H17   H     H_    0.684052 0.660771 0.013031 0.200046
H18   H     H_    0.273901 0.780923 0.878246 0.160992
H19   H     H_    0.726099 0.780923 0.121754 0.160992
H20   H     H_    0.773901 0.280923 0.878246 0.160992
H21   H     H_    0.226099 0.280923 0.121754 0.160992
H22   H     H_    0.852071 0.553671 0.381564 0.171868
H23   H     H_    0.342155 0.232361 0.070391 0.099442
H24   H     H_    0.147929 0.553671 0.618436 0.171868
H25   H     H_    0.352071 0.053671 0.381564 0.171868
H26   H     H_    0.647929 0.053671 0.618436 0.171868
H27   H     H_    0.850972 0.737136 0.198678 0.116599
H28   H     H_    0.149028 0.737136 0.801322 0.116599
H29   H     H_    0.350972 0.237136 0.198678 0.116599
H30   H     H_    0.649028 0.237136 0.801322 0.116599
H31   H     H_    0.805785 0.547909 0.917470 0.162811
H32   H     H_    0.194215 0.547909 0.082530 0.162811
H33   H     H_    0.305785 0.047909 0.917470 0.162811
H34   H     H_    0.657845 0.232360 0.929609 0.099443
H35   H     H_    0.694215 0.047909 0.082530 0.162811
H36   H     H_    0.341830 0.297496 0.353961 0.140328
H37   H     H_    0.658171 0.297497 0.646039 0.140328
H38   H     H_    0.841830 0.797497 0.353962 0.140328
H39   H     H_    0.158171 0.797497 0.646039 0.140328
H40   H     H_    0.249472 0.369288 0.519864 0.134938
H41   H     H_    0.750528 0.369288 0.480137 0.134938
H42   H     H_    0.749472 0.869288 0.519864 0.134938
H43   H     H_    0.250528 0.869288 0.480136 0.134938
H44   H     H_    0.541208 0.616021 0.698871 0.133330
N1    N     N_R   0.908660 0.628630 0.995840 -0.057320
N2    N     N_R   0.096530 0.421430 0.063580 -0.116809
N3    N     N_R   0.403470 0.921430 0.936420 -0.116809
N4    N     N_R   0.596530 0.921430 0.063580 -0.116809
N5    N     N_R   0.927500 0.575670 0.211370 -0.038424
N6    N     N_R   0.072500 0.575670 0.788630 -0.038424
N7    N     N_R   0.427500 0.075670 0.211370 -0.038424
N8    N     N_R   0.572500 0.075670 0.788630 -0.038424
N9    N     N_R   0.908660 0.365680 0.995820 -0.112638
N10   N     N_R   0.091340 0.365680 0.004180 -0.112638
N11   N     N_R   0.408660 0.865680 0.995820 -0.112638
N12   N     N_R   0.091340 0.628630 0.004160 -0.057320
N13   N     N_R   0.591340 0.865680 0.004180 -0.112638
N14   N     N_R   0.922310 0.631420 0.151980 -0.052018
N15   N     N_R   0.077690 0.631420 0.848020 -0.052018
N16   N     N_R   0.422310 0.131420 0.151980 -0.052018
N17   N     N_R   0.577690 0.131420 0.848020 -0.052018
N18   N     N_R   0.927500 0.426330 0.211360 -0.123308
N19   N     N_R   0.072500 0.426330 0.788640 -0.123308
N20   N     N_R   0.427500 0.926330 0.211360 -0.123308
N21   N     N_R   0.572500 0.926330 0.788640 -0.123308
N22   N     N_R   0.903470 0.570760 0.936440 -0.045632
N23   N     N_R   0.408660 0.128630 0.995840 -0.057320
N24   N     N_R   0.096530 0.570760 0.063560 -0.045632
N25   N     N_R   0.403470 0.070760 0.936440 -0.045632
N26   N     N_R   0.596530 0.070760 0.063560 -0.045632
N27   N     N_R   0.591340 0.128630 0.004160 -0.057320
N28   N     N_R   0.922310 0.368460 0.151950 -0.105795
N29   N     N_R   0.077690 0.368460 0.848050 -0.105795
N30   N     N_R   0.422310 0.868460 0.151950 -0.105795
N31   N     N_R   0.577690 0.868460 0.848050 -0.105795
N32   N     N_R   0.903470 0.421430 0.936420 -0.116809
Ni1   Ni    Ni4+2 1.000000 0.630300 0.000000 0.221200
Ni2   Ni    Ni4+2 0.500000 0.130300 0.000000 0.221200
Ni3   Ni    Ni4+2 1.000000 0.369700 0.000000 0.292197
Ni4   Ni    Ni4+2 0.500000 0.869700 0.000000 0.292197
Ni5   Ni    Ni4+2 0.988090 0.497570 0.863760 0.299672
Ni6   Ni    Ni4+2 0.011910 0.497570 0.136240 0.299672
Ni7   Ni    Ni4+2 0.488090 0.997570 0.863760 0.299672
Ni8   Ni    Ni4+2 0.511910 0.997570 0.136240 0.299672

loop_
_geom_bond_atom_site_label_1
_geom_bond_atom_site_label_2
_ccdc_geom_bond_type
C32   C37   S    
C28   C35   A    
C9    C14   A    
C51   C53   D    
C64   N7    A    
C83   H35   S    
C6    C63   A    
N25   Ni7   S    
C81   C85   A    
N14   Ni1   S    
C29   C31   A    
C2    C59   A    
C46   H10   S    
C25   H42   S    
C34   C87   A    
C51   H16   S    
N29   Ni3   S    
N23   N25   A    
N27   Ni2   S    
C12   N12   A    
N20   Ni8   S    
C11   C47   S    
C3    C60   A    
N19   Ni5   S    
C39   H4    S    
C8    C65   A    
C11   C33   A    
C5    C14   S    
N4    N13   A    
C7    C64   A    
N17   Ni2   S    
C26   C30   A    
C43   C78   A    
N10   Ni3   S    
C83   C87   A    
C24   H41   S    
C20   H38   S    
C82   C86   A    
C3    C53   S    
C80   C84   A    
C18   H36   S    
C54   H19   S    
C79   N21   A    
C44   H9    S    
C41   C56   A    
N5    Ni6   S    
C1    H1    S    
C21   H39   S    
C50   C86   S    
C22   H40   S    
C10   C32   A    
C70   Cl4   S    
C8    C74   A    
C6    C72   A    
C44   H5    S    
C42   N30   A    
C79   Cl8   S    
C13   C48   S    
C2    C68   A    
C23   C86   A    
C31   C36   S    
C13   C35   A    
C71   H27   S    
C27   C33   A    
C29   C78   S    
N2    Ni6   S    
C30   C67   S    
C76   N19   A    
C9    C31   A    
C66   Cl1   S    
C17   C19   A    
C69   N11   A    
Br5   C37   S    
C49   C87   S    
C30   C32   A    
C34   N27   A    
C50   H15   S    
C58   C88   A    
N6    N15   A    
N26   N27   A    
C8    C17   S    
C13   C17   A    
C71   N14   A    
C12   H12   S    
N13   Ni4   S    
N16   Ni2   S    
C18   C22   A    
C1    C84   A    
C4    C61   A    
C24   C28   A    
N8    Ni7   S    
C3    C69   A    
N12   Ni1   S    
N6    Ni5   S    
C81   H32   S    
C14   C20   A    
C74   N17   A    
C35   C39   S    
C65   N8    A    
N3    N11   A    
C20   C25   A    
C75   N18   A    
N1    N22   A    
N21   Ni7   S    
C15   C21   A    
C37   C46   S    
C22   C27   A    
C50   C57   D    
N18   N28   A    
C49   H14   S    
C5    C71   A    
C82   N25   A    
C52   C54   D    
N5    N14   A    
C40   N28   A    
C27   C56   S    
N28   Ni3   S    
C41   N29   A    
C76   Cl6   S    
C49   C55   D    
C83   N26   A    
N24   Ni6   S    
C75   Cl5   S    
N8    N17   A    
C1    N1    A    
C77   Cl7   S    
C4    C70   A    
N30   Ni4   S    
C11   C16   A    
Br6   C38   S    
C7    C16   S    
C68   N10   A    
Br4   C61   S    
N3    Ni7   S    
C55   C88   S    
N4    Ni8   S    
C63   N6    A    
C58   N32   A    
N7    N16   A    
C10   C15   A    
C36   H44   S    
C66   C88   A    
C5    C62   A    
C56   C76   A    
C2    C57   S    
C48   H8    S    
C4    C54   S    
C65   H26   S    
C38   C47   S    
Br2   C59   S    
C73   H29   S    
C26   H43   S    
Br11  C43   S    
C63   H24   S    
C82   H33   S    
C46   H6    S    
C42   C67   A    
C69   Cl3   S    
C36   C44   S    
N20   N30   A    
Br8   C40   S    
C72   H28   S    
C47   H11   S    
C28   C45   S    
C62   N5    A    
N32   Ni5   S    
C73   N16   A    
N7    Ni8   S    
N19   N29   A    
C6    C15   S    
C51   C85   S    
C77   N20   A    
C7    C73   A    
Br12  C58   S    
N2    N10   A    
C10   C46   S    
C9    C44   S    
C64   H25   S    
Br1   C36   S    
N18   Ni6   S    
C81   N24   A    
C21   C26   A    
C80   N22   A    
C53   H18   S    
N9    N32   A    
C62   H22   S    
Br3   C60   S    
C23   H23   S    
C23   N23   A    
N9    Ni3   S    
C72   N15   A    
N31   Ni4   S    
N23   Ni2   S    
C59   N2    A    
C78   C79   A    
N1    Ni1   S    
C33   C38   S    
C57   H21   S    
C61   N4    A    
C16   C18   A    
C38   H3    S    
C34   H34   S    
N12   N24   A    
C52   C84   S    
N26   Ni8   S    
C12   C85   A    
C25   C29   A    
C48   H13   S    
Br10  C42   S    
C67   C77   A    
C40   C45   A    
C74   H30   S    
N22   Ni5   S    
Br7   C39   S    
C19   H37   S    
C45   C75   A    
Br9   C41   S    
N21   N31   A    
C66   N9    A    
C47   H7    S    
C52   H17   S    
C68   Cl2   S    
C60   N3    A    
C43   N31   A    
C19   C24   A    
N11   Ni4   S    
C39   C48   S    
C55   H20   S    
C80   H31   S    
C37   H2    S    
C70   N13   A    
N15   Ni1   S    
