data_mof_unit_67073.cif
_audit_creation_date              2013-03-05T15:58:16-0500
_audit_creation_method            fapswitch 2.2
_symmetry_space_group_name_H-M    P1
_symmetry_Int_Tables_number       1
_space_group_crystal_system       triclinic
_cell_length_a                    8.279506
_cell_length_b                    12.85611
_cell_length_c                    14.322046
_cell_angle_alpha                 93.913219
_cell_angle_beta                  91.138372
_cell_angle_gamma                 98.230531
_cell_volume                      1504.57293598

loop_
_atom_site_label
_atom_site_type_symbol
_atom_site_description
_atom_site_fract_x
_atom_site_fract_y
_atom_site_fract_z
_atom_type_partial_charge
P1    P     P_3+3 0.054400 0.427280 0.286870 0.464925
O1    O     O_2   0.887370 0.460630 0.272300 -0.380057
O2    O     O_3   0.129410 0.451380 0.388510 -0.394835
O3    O     O_3   0.670210 0.653170 0.329170 -0.407347
O4    O     O_2   0.800638 0.596745 0.166649 -0.444858
O5    O     O_3   0.996344 0.291952 0.263838 -0.570455
O6    O     O_3   0.669244 0.771009 0.168845 -0.460511
H1    H     H_    0.804332 0.863735 0.274841 0.096134
C1    C     C_3   0.627003 0.948532 0.213887 -0.902414
H2    H     H_    0.630344 0.007139 0.274783 0.202903
H3    H     H_    0.708913 0.981191 0.159426 0.251333
P2    P     P_3+3 0.668300 0.742890 0.573060 0.497593
P3    P     P_3+3 0.135102 0.841826 0.374451 0.514948
O7    O     O_2   0.845380 0.761330 0.544970 -0.353647
O8    O     O_3   0.088930 0.704860 0.376040 -0.324021
O9    O     O_2   0.006486 0.888616 0.434829 -0.383660
O10   O     O_3   0.696524 0.766872 0.695014 -0.567911
O11   O     O_3   0.101392 0.882215 0.261102 -0.634543
C2    C     C_3   0.098460 0.799097 0.191327 0.773576
H4    H     H_    0.019532 0.728542 0.211946 0.098128
C3    C     C_3   0.027674 0.830736 0.099190 -0.916257
H5    H     H_    0.913062 0.863406 0.110125 0.263817
H6    H     H_    0.114429 0.892118 0.068309 0.264958
C4    C     C_3   0.091752 0.770934 0.714424 0.842105
H7    H     H_    0.969269 0.727087 0.700154 -0.007961
C5    C     C_3   0.077206 0.858817 0.790047 -0.932428
H8    H     H_    0.200498 0.896606 0.816160 0.293282
H9    H     H_    0.008140 0.918580 0.760731 0.237533
H10   H     H_    0.011260 0.827326 0.851734 0.212554
Ba1   Ba    Ba6+2 0.855630 0.555280 0.454520 1.596710
C6    C     C_3   0.983611 0.237940 0.345680 0.319713
H11   H     H_    0.860003 0.238775 0.372512 0.056726
H12   H     H_    0.074195 0.271643 0.401309 0.135045
C7    C     C_3   0.011853 0.124313 0.321675 -0.469769
H13   H     H_    0.897264 0.076337 0.294131 0.199804
H14   H     H_    0.046047 0.090321 0.387194 0.184437
C8    C     C_3   0.659175 0.671322 0.736514 0.304924
H15   H     H_    0.737371 0.613436 0.709560 -0.003326
H16   H     H_    0.532943 0.640739 0.718627 0.172492
C9    C     C_3   0.677587 0.685803 0.843488 -0.170535
H17   H     H_    0.808419 0.702883 0.864941 0.082694
H18   H     H_    0.628987 0.609963 0.872404 0.065801
P4    P     P_3+3 0.135310 0.572810 0.713130 0.495874
O12   O     O_2   0.302330 0.539400 0.727760 -0.376527
O13   O     O_3   0.060300 0.548700 0.611500 -0.361102
O14   O     O_3   0.519500 0.346920 0.670840 -0.392824
O15   O     O_3   0.201416 0.706695 0.745083 -0.569869
P5    P     P_3+3 0.064112 0.157624 0.624822 0.493765
O16   O     O_3   0.614310 0.373510 0.452640 -0.400521
O17   O     O_3   0.100780 0.295230 0.623970 -0.370592
O18   O     O_2   0.195667 0.115012 0.564279 -0.350172
O19   O     O_3   0.111259 0.125691 0.738193 -0.477645
Ba2   Ba    Ba6+2 0.334200 0.444810 0.545490 1.606194
P6    P     P_3+3 0.652385 0.642948 0.207142 0.493637
C10   C     C_3   0.678268 0.846945 0.245606 0.483628
H19   H     H_    0.598172 0.822042 0.302943 0.102013
H20   H     H_    0.500348 0.934727 0.184665 0.308556
O20   O     O_3   0.575400 0.626570 0.547370 -0.398507
C11   C     C_3   0.523297 0.304555 0.260054 0.361948
H21   H     H_    0.411529 0.339817 0.276002 0.053885
H22   H     H_    0.630570 0.362101 0.282641 0.159689
C12   C     C_3   0.531258 0.281104 0.154788 -0.922300
H23   H     H_    0.424720 0.223365 0.128682 0.290599
H24   H     H_    0.530254 0.354689 0.118746 0.208353
H25   H     H_    0.645354 0.248385 0.137998 0.262427
P7    P     P_3+3 0.527863 0.240249 0.426374 0.404285
O21   O     O_2   0.344320 0.238700 0.455090 -0.388697
O22   O     O_3   0.522329 0.210888 0.305035 -0.594277
H26   H     H_    0.003228 0.760920 0.047916 0.239754
C13   C     C_3   0.986251 0.151388 0.796532 0.269378
H27   H     H_    0.975408 0.236763 0.796577 0.089432
H28   H     H_    0.869907 0.102895 0.772354 -0.017974
C14   C     C_3   0.019108 0.124703 0.896829 -0.095762
H29   H     H_    0.923470 0.150459 0.942741 0.065146
H30   H     H_    0.011854 0.038078 0.899376 0.130189
P8    P     P_3+3 0.537996 0.349856 0.791869 0.503001
C15   C     C_3   0.537771 0.153348 0.749922 0.430263
H31   H     H_    0.662305 0.182542 0.726825 -0.024653
O23   O     O_2   0.401997 0.407757 0.833262 -0.346179
O24   O     O_3   0.487979 0.220318 0.821989 -0.441435
H32   H     H_    0.450625 0.146147 0.689011 0.163866
H33   H     H_    0.577374 0.990890 0.728802 0.220994
C16   C     C_3   0.538717 0.044991 0.785034 -0.735405
H34   H     H_    0.414430 0.014005 0.805755 0.294542
H35   H     H_    0.622974 0.049379 0.846970 0.235402
C17   C     C_R   0.984611 0.443784 0.059483 -0.108284
C18   C     C_R   0.186901 0.485117 0.193828 0.227632
C19   C     C_R   0.347177 0.524359 0.222962 -0.429916
C20   C     C_R   0.460862 0.566382 0.160465 0.332385
C21   C     C_R   0.416797 0.568817 0.066254 -0.179850
C22   C     C_R   0.256236 0.532807 0.033891 0.091048
C23   C     C_R   0.140492 0.486348 0.096624 -0.012462
H36   H     H_    0.382881 0.526306 0.296278 0.166665
C24   C     C_R   0.056201 0.500622 0.901972 0.005099
C25   C     C_R   0.942285 0.450258 0.964086 0.100653
C26   C     C_R   0.010441 0.501769 0.804381 0.196076
C27   C     C_R   0.856101 0.450849 0.773598 -0.495917
C28   C     C_R   0.742402 0.408069 0.836102 0.211408
C29   C     C_R   0.785303 0.406794 0.930457 -0.320261
C30   C     C_R   0.211321 0.544359 0.939724 -0.066745
H37   H     H_    0.505883 0.604303 0.019482 0.167617
H38   H     H_    0.696470 0.370422 0.977254 0.164426
H39   H     H_    0.821299 0.447781 0.700130 0.169059
H40   H     H_    0.895167 0.403925 0.103789 0.158068
H41   H     H_    0.300255 0.585791 0.896152 0.169625
C31   C     C_R   0.765891 0.175036 0.538694 -0.513921
C32   C     C_R   0.435888 0.815060 0.459726 -0.315480
C33   C     C_R   0.404763 0.994683 0.435246 -0.240007
C34   C     C_R   0.343498 0.887852 0.425305 0.347576
C35   C     C_R   0.579301 0.847621 0.513624 0.236860
C36   C     C_R   0.643773 0.957577 0.523963 -0.064906
C37   C     C_R   0.555434 0.031432 0.482281 -0.042228
C38   C     C_R   0.618852 0.140555 0.489912 0.264939
C39   C     C_R   0.857250 0.104282 0.576212 0.177492
C40   C     C_R   0.794739 0.996428 0.571695 -0.192550
H42   H     H_    0.331362 0.048438 0.407636 0.167510
H43   H     H_    0.866650 0.944483 0.604156 0.188669
H44   H     H_    0.814338 0.258061 0.542919 0.166407
H45   H     H_    0.390872 0.731751 0.448658 0.189956
C41   C     C_3   0.148786 0.119029 0.250990 -0.105384
C42   C     C_3   0.086572 0.104459 0.149209 -0.785698
H46   H     H_    0.977803 0.043563 0.139981 0.241630
H47   H     H_    0.055508 0.179244 0.124260 0.275753
H48   H     H_    0.184247 0.078775 0.105508 0.264713
H49   H     H_    0.235031 0.192272 0.259436 0.206218
H50   H     H_    0.221160 0.056139 0.265173 0.209363
N1    N     N_R   0.590462 0.768865 0.884288 0.279673
O25   O     O_R   0.495637 0.815900 0.832953 -0.355295
O26   O     O_R   0.603519 0.793859 0.974263 -0.328286
N2    N     N_R   0.178928 0.176285 0.931895 0.293800
O27   O     O_R   0.292491 0.120169 0.951071 -0.376868
O28   O     O_R   0.203389 0.277364 0.953088 -0.382006
N3    N     N_R   0.262434 0.773815 0.177320 0.193928
O29   O     O_R   0.331348 0.780416 0.096596 -0.376483
O30   O     O_R   0.338004 0.738868 0.245939 -0.510539
N4    N     N_R   0.152775 0.813014 0.628510 0.227282
O31   O     O_R   0.226453 0.909481 0.626646 -0.422241
O32   O     O_R   0.166288 0.745403 0.558692 -0.376186

loop_
_geom_bond_atom_site_label_1
_geom_bond_atom_site_label_2
_geom_bond_distance
_ccdc_geom_bond_type
P1    C18   1.868649 S    
P7    O22   1.751279 S    
C18   C19   1.395402 A    
P7    C38   1.856522 S    
C32   C34   1.398888 A    
C14   H29   1.111325 S    
Ba1   O13   2.801619 S    
C2    H4    1.100696 S    
P8    O23   1.542637 D    
O6    C10   1.413011 S    
C10   H19   1.101514 S    
C17   H40   1.080772 S    
O14   P8    1.734458 S    
C39   C40   1.405570 A    
C15   H31   1.110462 S    
C30   H41   1.080123 S    
C8    H15   1.109353 S    
P3    O11   1.766761 S    
C31   C39   1.391346 A    
C2    C3    1.536567 S    
C4    C5    1.530086 S    
C7    H13   1.104775 S    
C8    C9    1.532600 S    
C41   H50   1.100153 S    
C15   C16   1.513971 S    
C25   C29   1.401410 A    
P8    C28   1.831834 S    
C33   C34   1.390987 A    
P1    O1    1.519989 D    
C35   C36   1.434362 A    
C42   H48   1.105946 S    
P3    C34   1.859191 S    
C19   H36   1.082836 S    
O12   Ba2   2.837071 S    
P4    Ba2   3.402620 S    
P5    O18   1.543332 D    
C36   C37   1.432373 A    
C40   H43   1.077873 S    
P2    O10   1.757854 S    
C12   H24   1.109149 S    
C6    H12   1.105025 S    
C13   H27   1.113954 S    
C1    C10   1.524542 S    
C24   C30   1.407883 A    
C22   C30   1.415085 A    
C1    H2    1.110187 S    
C1    H20   1.107001 S    
P2    Ba1   3.423760 S    
C4    N4    1.448895 S    
P5    O17   1.752505 S    
O5    C6    1.400795 S    
O13   Ba2   2.932648 S    
C11   H21   1.108333 S    
C3    H5    1.101112 S    
C31   H44   1.082350 S    
C14   H30   1.109810 S    
O7    Ba1   2.881476 S    
H1    C10   1.103228 S    
C32   H45   1.082270 S    
C37   C38   1.421853 A    
C27   C28   1.393732 A    
C7    C41   1.540484 S    
Ba1   Ba2   4.590546 S    
C11   H22   1.099368 S    
O17   Ba2   2.830827 S    
O16   P7    1.771768 S    
C31   C38   1.391460 A    
P1    O5    1.744320 S    
O4    P6    1.544626 D    
C4    H7    1.095576 S    
P6    C20   1.830704 S    
N4    O32   1.296743 A    
C22   C23   1.423345 A    
C41   H49   1.095294 S    
O11   C2    1.409591 S    
C9    N1    1.467738 S    
C33   C37   1.409834 A    
C3    H26   1.112629 S    
P1    O2    1.564660 S    
O2    Ba1   2.931878 S    
N2    O28   1.300064 A    
P4    O12   1.520354 D    
N1    O26   1.305177 A    
C21   H37   1.079762 S    
C12   H23   1.109244 S    
C11   O22   1.403025 S    
P4    O13   1.564539 S    
C16   H34   1.102992 S    
C15   H32   1.111318 S    
C26   C27   1.398055 A    
C13   C14   1.527600 S    
P4    C26   1.886058 S    
C5    H8    1.111736 S    
C6    C7    1.529465 S    
O10   C8    1.398582 S    
C24   C26   1.442472 A    
C1    H3    1.108503 S    
C42   H46   1.104831 S    
C27   H39   1.082009 S    
C9    H17   1.107004 S    
C16   H35   1.110858 S    
Ba1   O16   2.847125 S    
P2    O7    1.518073 D    
C28   C29   1.392202 A    
P3    O8    1.749377 S    
N3    O29   1.301977 A    
C32   C35   1.399347 A    
N1    O25   1.302408 A    
C41   C42   1.526636 S    
O8    Ba1   2.830237 S    
P5    C39   1.854603 S    
C15   O24   1.404922 S    
C14   N2    1.455959 S    
C11   C12   1.521766 S    
C12   H25   1.111814 S    
O3    P6    1.745374 S    
C4    O15   1.395567 S    
C6    H11   1.101533 S    
P8    O24   1.743190 S    
N4    O31   1.303637 A    
C13   H28   1.105360 S    
Ba2   O20   2.846453 S    
C2    N3    1.455086 S    
C5    H9    1.119764 S    
O1    Ba1   2.836541 S    
C33   H42   1.072979 S    
C3    H6    1.110067 S    
N2    O27   1.300368 A    
P2    O20   1.596124 S    
C8    H16   1.081886 S    
C17   C23   1.406723 A    
O2    Ba2   2.802187 S    
C21   C22   1.402288 A    
O16   Ba2   2.924379 S    
P2    C35   1.869773 S    
Ba1   O20   2.925169 S    
O14   Ba2   2.812873 S    
C9    H18   1.110612 S    
P1    Ba1   3.402154 S    
P7    O21   1.579923 D    
C7    H14   1.110184 S    
C24   C25   1.427338 A    
Ba2   O21   2.881704 S    
C42   H47   1.110062 S    
O19   C13   1.404663 S    
C17   C25   1.414676 A    
P5    O19   1.751848 S    
C29   H38   1.082915 S    
C19   C20   1.390285 A    
C5    H10   1.116812 S    
H33   C16   1.110106 S    
P3    O9    1.546803 D    
N3    O30   1.294397 A    
C36   C40   1.421208 A    
O6    P6    1.758221 S    
C20   C21   1.394327 A    
C18   C23   1.438576 A    
P4    O15   1.756267 S    
O3    Ba1   2.813466 S    
