data_mof_unit_64402.cif
_audit_creation_date              2012-12-10T17:05:06-0500
_audit_creation_method            fapswitch 2.2
_symmetry_space_group_name_H-M    P1
_symmetry_Int_Tables_number       1
_space_group_crystal_system       triclinic
_cell_length_a                    15.073023
_cell_length_b                    15.130755
_cell_length_c                    19.449296
_cell_angle_alpha                 88.871978
_cell_angle_beta                  90.837446
_cell_angle_gamma                 90.078172
_cell_volume                      4434.39147537

loop_
_atom_site_label
_atom_site_type_symbol
_atom_type_description
_atom_site_fract_x
_atom_site_fract_y
_atom_site_fract_z
_atom_type_partial_charge
C1    C     C_R   0.485708 0.259977 0.510097 0.517027
C2    C     C_2   0.538528 0.502431 0.019949 0.086975
C3    C     C_2   0.465607 0.521724 0.981665 0.035013
C4    C     C_R   0.514424 0.739304 0.489440 0.521803
C5    C     C_R   0.483062 0.514862 0.763018 0.002103
C6    C     C_R   0.482453 0.163595 0.516241 -0.007367
C7    C     C_R   0.518258 0.834997 0.485071 0.002477
C8    C     C_R   0.550366 0.967180 0.418554 0.128101
C9    C     C_R   0.550570 0.875730 0.425170 0.013678
C10   C     C_R   0.485196 0.885159 0.539095 0.019830
C11   C     C_R   0.483455 0.978316 0.532441 -0.011256
C12   C     C_R   0.536843 0.501266 0.095190 0.046212
C13   C     C_R   0.516769 0.019151 0.471361 -0.015239
C14   C     C_R   0.515841 0.111470 0.463929 0.124623
C15   C     C_R   0.448388 0.123694 0.575577 -0.136017
C16   C     C_R   0.259878 0.513887 0.489273 0.514648
C17   C     C_R   0.448911 0.032402 0.584166 0.114535
C18   C     C_R   0.163424 0.523158 0.487972 0.019618
C19   C     C_R   0.835051 0.478421 0.516531 0.014861
C20   C     C_R   0.967061 0.390938 0.539024 0.111138
C21   C     C_R   0.874930 0.398839 0.539080 0.014422
C22   C     C_R   0.886690 0.549781 0.493994 0.081787
C23   C     C_R   0.564389 0.425518 0.132040 -0.096251
C24   C     C_R   0.978843 0.541399 0.492052 -0.007647
C25   C     C_R   0.019322 0.461566 0.515093 -0.005690
C26   C     C_R   0.111418 0.453551 0.513387 -0.129429
C27   C     C_R   0.122933 0.601827 0.464100 0.108708
C28   C     C_R   0.739321 0.485810 0.511892 0.526289
C29   C     C_R   0.031200 0.610912 0.466584 -0.096045
C30   C     C_R   0.489778 0.510659 0.687653 0.523046
C31   C     C_R   0.510444 0.490409 0.312590 0.507303
C32   C     C_R   0.520617 0.493517 0.237978 0.039267
C33   C     C_R   0.496754 0.570628 0.201010 -0.112057
C34   C     C_R   0.556357 0.421584 0.203358 -0.118486
C35   C     C_R   0.506029 0.574894 0.130165 -0.112191
C36   C     C_R   0.413966 0.465234 0.869210 0.134274
C37   C     C_R   0.420266 0.461991 0.798068 0.105029
C38   C     C_R   0.538587 0.571511 0.800991 0.090544
C39   C     C_R   0.531895 0.574225 0.872209 -0.122781
C40   C     C_R   0.470107 0.520837 0.906523 -0.009173
Cl1   Cl    Cl    0.593197 0.813076 0.357461 -0.035936
Cl2   Cl    Cl    0.443438 0.828386 0.612614 -0.012666
Cl3   Cl    Cl    0.810791 0.308518 0.568575 -0.027081
Cl4   Cl    Cl    0.360612 0.540108 0.018557 -0.050979
F1    F     F_    0.546050 0.150999 0.405360 -0.143507
F2    F     F_    0.614624 0.476784 0.989135 -0.172406
F3    F     F_    0.582837 0.004643 0.360010 -0.150071
F4    F     F_    0.415734 0.999061 0.643687 -0.159778
F5    F     F_    0.171991 0.670963 0.440340 -0.155899
F6    F     F_    0.005296 0.314074 0.561341 -0.165447
F7    F     F_    0.365177 0.406188 0.764037 -0.143025
F8    F     F_    0.846715 0.625762 0.471424 -0.169800
F9    F     F_    0.599521 0.624173 0.769753 -0.147969
F10   F     F_    0.354911 0.411757 0.901858 -0.152275
H1    H     H_    0.471380 0.627885 0.226874 0.146918
H2    H     H_    0.575112 0.617950 0.900809 0.150168
H3    H     H_    0.422642 0.163546 0.616436 0.162191
H4    H     H_    0.142940 0.392813 0.531315 0.164361
H5    H     H_    0.001402 0.672398 0.448558 0.154358
H6    H     H_    0.589595 0.368748 0.105457 0.139651
H7    H     H_    0.576306 0.361983 0.231173 0.147340
H8    H     H_    0.487536 0.635003 0.102386 0.125816
O1    O     O_3   0.500000 0.500000 0.500000 -0.466475
O2    O     O_R   0.437070 0.459640 0.654640 -0.521602
O3    O     O_R   0.556790 0.436390 0.349710 -0.537625
O4    O     O_R   0.547170 0.557950 0.655150 -0.514805
O5    O     O_R   0.458970 0.546010 0.340500 -0.544592
O6    O     O_R   0.306870 0.560460 0.447950 -0.513598
O7    O     O_R   0.697260 0.434930 0.470830 -0.534857
O8    O     O_R   0.434240 0.306870 0.546470 -0.547961
O9    O     O_R   0.561630 0.697750 0.534750 -0.524349
O10   O     O_R   0.542340 0.296600 0.470110 -0.511932
O11   O     O_R   0.461800 0.698790 0.448670 -0.532548
O12   O     O_R   0.296600 0.461110 0.533510 -0.545590
O13   O     O_R   0.699270 0.543500 0.547710 -0.520819
Zn1   Zn    Zn3+2 0.433070 0.575010 0.435400 0.969218
Zn2   Zn    Zn3+2 0.418400 0.433070 0.557650 0.962856
Zn3   Zn    Zn3+2 0.575700 0.573520 0.558390 0.985549
Zn4   Zn    Zn3+2 0.572830 0.418400 0.448560 0.971486

loop_
_geom_bond_atom_site_label_1
_geom_bond_atom_site_label_2
_ccdc_geom_bond_type
C33   H1    S    
C7    C10   A    
C8    C13   A    
O3    Zn4   S    
C30   O2    A    
C27   C29   A    
O2    Zn2   S    
C28   O7    A    
C18   C26   A    
C17   F4    S    
C2    C12   S    
O1    Zn4   S    
C2    F2    S    
C31   O5    A    
C12   C23   A    
C16   O12   A    
C36   C37   A    
C19   C21   A    
O10   Zn4   S    
C5    C37   A    
C38   C39   A    
C37   F7    S    
C10   Cl2   S    
C20   C25   A    
C31   O3    A    
C24   C29   A    
C20   F6    S    
C6    C15   A    
C21   Cl3   S    
C29   H5    S    
C8    C9    A    
O12   Zn2   S    
C16   O6    A    
C5    C38   A    
O8    Zn2   S    
C15   H3    S    
C4    C7    S    
C14   F1    S    
C23   H6    S    
O4    Zn3   S    
C3    Cl4   S    
C1    O10   A    
C1    C6    S    
C36   C40   A    
C19   C22   A    
C24   C25   A    
C39   C40   A    
C25   C26   A    
C34   H7    S    
C32   C34   A    
C6    C14   A    
C31   C32   S    
C23   C34   A    
C39   H2    S    
C12   C35   A    
C19   C28   S    
C26   H4    S    
C4    O11   A    
C30   O4    A    
C3    C40   S    
O11   Zn1   S    
C22   C24   A    
O7    Zn4   S    
C22   F8    S    
C5    C30   S    
O1    Zn2   S    
C15   C17   A    
C11   C17   A    
C18   C27   A    
O6    Zn1   S    
C9    Cl1   S    
C1    O8    A    
C32   C33   A    
C2    C3    D    
C8    F3    S    
C11   C13   A    
C38   F9    S    
C33   C35   A    
C35   H8    S    
O9    Zn3   S    
O13   Zn3   S    
C36   F10   S    
C10   C11   A    
C7    C9    A    
C20   C21   A    
C16   C18   S    
O1    Zn1   S    
O5    Zn1   S    
C13   C14   A    
C28   O13   A    
C4    O9    A    
C27   F5    S    
O1    Zn3   S    
