data_mof_unit_54244.cif
_audit_creation_date              2013-03-05T15:52:29-0500
_audit_creation_method            fapswitch 2.2
_symmetry_space_group_name_H-M    P1
_symmetry_Int_Tables_number       1
_space_group_crystal_system       triclinic
_cell_length_a                    27.80659
_cell_length_b                    10.822472
_cell_length_c                    9.571125
_cell_angle_alpha                 90.563067
_cell_angle_beta                  90.08967
_cell_angle_gamma                 92.4691
_cell_volume                      2877.47775143

loop_
_atom_site_label
_atom_site_type_symbol
_atom_site_description
_atom_site_fract_x
_atom_site_fract_y
_atom_site_fract_z
_atom_type_partial_charge
O1    O     O_R   0.500000 0.319640 0.618810 -0.549290
O2    O     O_R   0.500000 0.319660 0.381240 -0.588173
C1    C     C_R   0.504995 0.263534 0.499926 0.853648
O3    O     O_R   0.430260 0.500010 0.618770 -0.590019
O4    O     O_R   0.430270 0.500030 0.381200 -0.581932
C2    C     C_R   0.407481 0.499485 0.499892 0.798093
Cu1   Cu    Cu3+1 0.500000 0.499990 0.640660 0.961290
Cu2   Cu    Cu3+1 0.500000 0.500010 0.359340 0.940336
O5    O     O_R   0.500000 0.680340 0.618760 -0.616925
O6    O     O_R   0.500000 0.680360 0.381190 -0.602285
O7    O     O_R   0.569730 0.499970 0.618800 -0.563398
O8    O     O_R   0.569740 0.499990 0.381230 -0.603877
C3    C     C_R   0.497514 0.737939 0.501538 0.778964
C4    C     C_R   0.592517 0.501179 0.500145 0.815784
C5    C     C_R   0.176301 0.386902 0.508006 0.550095
O9    O     O_2   0.200033 0.280869 0.510570 -0.495807
N1    N     N_R   0.202098 0.496957 0.500346 -0.475951
C6    C     C_R   0.180038 0.606918 0.493926 0.531896
C7    C     C_R   0.278698 0.486938 0.625877 -0.118285
C8    C     C_R   0.328855 0.487998 0.626022 -0.212553
C9    C     C_R   0.328973 0.508387 0.373628 -0.215685
C10   C     C_R   0.278805 0.507893 0.373924 -0.101131
C11   C     C_R   0.253606 0.497121 0.499970 0.363465
C12   C     C_R   0.101955 0.497470 0.503575 -0.109094
C13   C     C_R   0.125457 0.384327 0.511883 -0.122031
C14   C     C_R   0.097663 0.272715 0.522999 0.490973
C15   C     C_R   0.129702 0.609315 0.494694 0.006644
C16   C     C_R   0.354485 0.498694 0.499808 -0.037941
H1    H     H_    0.347718 0.516759 0.274821 0.156987
H2    H     H_    0.259454 0.515697 0.276328 0.134028
C17   C     C_R   0.645503 0.503584 0.500569 -0.037204
C18   C     C_R   0.972111 0.388956 0.522003 0.070094
C19   C     C_R   0.976789 0.614295 0.483435 0.040053
C20   C     C_R   0.949195 0.502266 0.502504 0.068862
C21   C     C_R   0.942993 0.281575 0.550289 -0.207711
C22   C     C_R   0.893115 0.284317 0.552044 -0.144742
C23   C     C_R   0.870213 0.394181 0.526766 -0.025184
C24   C     C_R   0.898082 0.503550 0.502318 -0.047087
C25   C     C_R   0.874716 0.614206 0.477850 -0.018708
C26   C     C_R   0.824191 0.613276 0.477503 0.533904
N2    N     N_R   0.797937 0.505926 0.501760 -0.469990
C27   C     C_R   0.819804 0.397482 0.526396 0.541381
C28   C     C_R   0.721383 0.513741 0.374989 -0.096330
C29   C     C_R   0.671206 0.511906 0.374347 -0.219268
C30   C     C_R   0.670932 0.497972 0.627309 -0.163055
C31   C     C_R   0.721086 0.499167 0.627534 -0.103261
C32   C     C_R   0.746422 0.506861 0.501458 0.353016
O10   O     O_2   0.792806 0.293067 0.549513 -0.518676
C33   C     C_R   0.023131 0.386781 0.515066 -0.017848
C34   C     C_R   0.050815 0.499266 0.503701 0.066178
C35   C     C_R   0.027866 0.613616 0.490862 0.062933
C36   C     C_R   0.047443 0.275023 0.517618 -0.307872
H3    H     H_    0.652619 0.516937 0.275170 0.169630
H4    H     H_    0.740855 0.519562 0.277216 0.143054
H5    H     H_    0.872527 0.199421 0.573787 0.190602
H6    H     H_    0.957608 0.193896 0.575235 0.136710
H7    H     H_    0.028445 0.186287 0.511894 0.144395
O11   O     O_2   0.206852 0.713668 0.486948 -0.533056
C37   C     C_R   0.106834 0.721410 0.487791 -0.153278
H8    H     H_    0.347490 0.480103 0.724798 0.154356
H9    H     H_    0.259264 0.478606 0.723557 0.128771
H10   H     H_    0.127453 0.808511 0.483081 0.188979
C38   C     C_R   0.952097 0.723324 0.456452 -0.211157
C39   C     C_R   0.902131 0.723001 0.453844 -0.144924
O12   O     O_2   0.801456 0.718825 0.454104 -0.532342
C40   C     C_R   0.057016 0.723858 0.486475 -0.213589
H11   H     H_    0.970260 0.810686 0.433914 0.138460
H12   H     H_    0.652142 0.492088 0.726214 0.189990
H13   H     H_    0.885047 0.809018 0.432889 0.187136
H14   H     H_    0.740332 0.494035 0.725611 0.143320
H15   H     H_    0.042554 0.814511 0.484318 0.135537
H16   H     H_    0.499696 0.109770 0.277576 0.162645
C41   C     C_R   0.539559 0.120302 0.750303 0.394381
C42   C     C_R   0.531740 0.064874 0.879912 -0.176921
H17   H     H_    0.547210 0.106632 0.973912 0.171110
C43   C     C_R   0.504335 0.954872 0.888696 -0.221898
H18   H     H_    0.496555 0.914570 0.989704 0.158676
C44   C     C_R   0.489624 0.892443 0.766899 -0.163837
H19   H     H_    0.468127 0.807929 0.779591 0.177136
C45   C     C_R   0.501033 0.941850 0.633834 0.049075
C46   C     C_R   0.518038 0.066181 0.627998 0.017724
C47   C     C_R   0.511654 0.130172 0.500977 -0.087044
C48   C     C_R   0.503072 0.063489 0.376762 -0.203912
H20   H     H_    0.494011 0.886853 0.280011 0.162805
C49   C     C_R   0.498032 0.936029 0.378774 -0.203302
C50   C     C_R   0.496584 0.873342 0.506183 -0.086565
H21   H     H_    0.445877 0.359367 0.127614 0.136387
C51   C     C_R   0.564030 0.664629 0.146108 -0.167568
H22   H     H_    0.567339 0.672493 0.256223 0.201846
C52   C     C_R   0.595190 0.745043 0.074576 -0.215008
H23   H     H_    0.619559 0.808016 0.131570 0.170199
C53   C     C_R   0.595204 0.744777 0.930676 -0.185412
H24   H     H_    0.619468 0.807788 0.874988 0.172370
C54   C     C_R   0.563982 0.664279 0.857489 -0.144893
H25   H     H_    0.566858 0.672409 0.747513 0.197453
C55   C     C_R   0.531437 0.580898 0.926043 0.212819
C56   C     C_R   0.531438 0.580942 0.075803 0.211586
N3    N     N_R   0.500460 0.501210 0.147910 -0.197213
C57   C     C_R   0.470242 0.422682 0.072980 -0.071232
H26   H     H_    0.445919 0.359367 0.868588 0.134712
C58   C     C_R   0.470261 0.422706 0.924899 -0.042090
N4    N     N_R   0.500480 0.501290 0.852040 -0.189250
Cl1   Cl    Cl    0.584705 0.239554 0.743261 -0.624866
O13   O     O_3   0.119481 0.159747 0.525622 -0.562194
C59   C     C_3   0.110490 0.099288 0.654409 0.066500
H27   H     H_    0.114297 0.998677 0.636275 0.164738
H28   H     H_    0.073251 0.109499 0.694391 0.112118
C60   C     C_3   0.147340 0.143325 0.765421 -0.319142
H29   H     H_    0.184235 0.125963 0.727687 0.263692
H30   H     H_    0.144618 0.244275 0.784213 0.206868
C61   C     C_3   0.138959 0.075791 0.903031 -0.891287
H31   H     H_    0.102586 0.093691 0.944427 0.257850
H32   H     H_    0.166242 0.109358 0.980961 0.269374
H33   H     H_    0.142279 0.974641 0.887621 0.261665

loop_
_geom_bond_atom_site_label_1
_geom_bond_atom_site_label_2
_geom_bond_distance
_ccdc_geom_bond_type
C58   N4    1.366596 A    
C55   N4    1.381000 A    
N2    C27   1.367198 A    
C7    C8    1.394266 A    
C12   C15   1.410478 A    
C4    C17   1.472458 S    
C46   C47   1.419713 A    
Cu1   Cu2   2.692551 S    
C49   C50   1.401064 A    
Cu1   O7    1.950544 S    
C25   C39   1.395997 A    
C59   H28   1.114059 S    
N1    C11   1.432202 S    
C42   C43   1.388902 A    
C22   C23   1.395780 A    
C43   C44   1.393543 A    
C37   C40   1.386689 A    
O4    C2    1.301607 A    
O7    C4    1.301242 A    
C44   C45   1.417250 A    
C5    C13   1.413411 A    
C5    O9    1.348580 S    
C60   H29   1.111176 S    
N1    C6    1.364001 A    
C41   C42   1.396495 A    
C23   C27   1.403712 A    
O5    C3    1.292028 A    
H26   C58   1.081731 S    
C45   C50   1.425321 A    
C14   O13   1.388490 S    
C29   H3    1.083076 S    
C6    O11   1.350026 S    
C2    C16   1.473304 S    
C21   C22   1.388664 A    
C60   H30   1.111305 S    
Cu1   N4    2.023075 S    
C3    C50   1.466974 S    
C8    H8    1.083264 S    
C51   C56   1.417676 A    
Cu2   O8    1.950197 S    
C54   C55   1.416661 A    
C20   C24   1.421932 A    
C9    C10   1.394791 A    
C30   H12   1.083073 S    
O3    Cu1   1.950203 S    
C41   C46   1.423234 A    
O13   C59   1.418715 S    
C56   N3    1.382904 A    
H21   C57   1.081731 S    
C43   H18   1.082817 S    
C12   C34   1.423001 A    
C59   C60   1.533159 S    
C38   H11   1.076457 S    
C17   C29   1.406305 A    
C18   C21   1.416052 A    
C12   C13   1.415447 A    
O3    C2    1.301194 A    
C42   H17   1.082945 S    
C25   C26   1.404526 A    
C44   H19   1.078881 S    
C8    C16   1.406742 A    
C13   C14   1.410682 A    
C30   C31   1.394104 A    
C9    H1    1.083233 S    
C47   C48   1.399506 A    
O1    C1    1.294946 A    
C35   C40   1.414225 A    
C18   C20   1.419907 A    
C7    C11   1.399192 A    
C28   C29   1.394540 A    
C23   C24   1.408293 A    
C14   C36   1.398637 A    
C28   H4    1.082895 S    
C52   C53   1.377259 A    
C40   H15   1.076597 S    
C19   C38   1.416214 A    
C33   C36   1.411195 A    
C55   C56   1.433358 A    
C1    C47   1.463157 S    
C53   C54   1.387187 A    
C34   C35   1.422895 A    
N2    C32   1.432907 S    
C61   H32   1.110400 S    
C27   O10   1.349761 S    
C39   H13   1.083518 S    
H20   C49   1.083479 S    
Cu2   N3    2.023849 S    
C26   N2    1.367248 A    
C48   C49   1.380846 A    
C9    C16   1.406760 A    
C51   C52   1.387606 A    
N3    C57   1.366469 A    
C26   O12   1.349615 S    
Cu1   O5    1.965102 S    
C31   C32   1.399629 A    
C37   H10   1.083370 S    
C10   H2    1.083102 S    
C61   H31   1.110901 S    
C57   C58   1.417309 A    
C21   H6    1.077006 S    
O1    Cu1   1.960960 S    
O2    Cu2   1.965103 S    
C6    C15   1.401045 A    
O8    C4    1.301325 A    
C45   C46   1.408553 A    
O6    C3    1.307573 A    
O4    Cu2   1.950547 S    
C5    N1    1.366326 A    
C19   C35   1.422266 A    
C59   H27   1.110501 S    
C60   C61   1.525907 S    
O2    C1    1.303450 A    
C22   H5    1.083510 S    
C15   C37   1.395836 A    
C52   H23   1.083027 S    
C24   C25   1.408282 A    
C7    H9    1.083162 S    
C53   H24   1.083042 S    
C19   C20   1.420098 A    
C61   H33   1.110940 S    
C54   H25   1.059986 S    
C18   C33   1.421534 A    
C31   H14   1.082895 S    
H16   C48   1.083519 S    
C36   H7    1.076802 S    
C38   C39   1.389422 A    
C41   Cl1   1.763086 S    
C51   H22   1.060058 S    
Cu2   O6    1.960960 S    
C33   C34   1.417226 A    
C17   C30   1.406282 A    
C10   C11   1.399404 A    
C28   C32   1.399682 A    
