data_mof_unit_47873.cif
_audit_creation_date              2012-12-11T15:30:36-0500
_audit_creation_method            fapswitch 2.2
_symmetry_space_group_name_H-M    P1
_symmetry_Int_Tables_number       1
_space_group_crystal_system       triclinic
_cell_length_a                    6.965168
_cell_length_b                    20.48284
_cell_length_c                    24.425599
_cell_angle_alpha                 89.672344
_cell_angle_beta                  90.563558
_cell_angle_gamma                 89.259781
_cell_volume                      3484.19390081

loop_
_atom_site_label
_atom_site_type_symbol
_atom_type_description
_atom_site_fract_x
_atom_site_fract_y
_atom_site_fract_z
_atom_type_partial_charge
O1    O     O_R   0.507310 0.423620 0.460450 -0.532514
O2    O     O_R   0.170760 0.556060 0.437190 -0.537903
O3    O     O_R   0.004040 0.576380 0.539550 -0.536789
C1    C     C_R   0.338323 0.576237 0.421322 0.720523
O4    O     O_R   0.177350 0.422870 0.454070 -0.537596
O5    O     O_R   0.010680 0.442240 0.556560 -0.535220
C2    C     C_R   0.346619 0.399169 0.443159 0.720909
O6    O     O_R   0.500670 0.557760 0.443440 -0.536465
O7    O     O_3   0.340380 0.506510 0.533610 -0.368474
V1    V     V_3+5 0.064130 0.498790 0.493770 1.431607
O8    O     O_R   0.681170 0.443940 0.562810 -0.536126
C3    C     C_R   0.851139 0.423829 0.578569 0.732520
O9    O     O_R   0.674570 0.577130 0.545930 -0.539172
C4    C     C_R   0.842436 0.601155 0.556228 0.692930
V2    V     V_3+5 0.564560 0.501210 0.506230 1.434915
O10   O     O_3   0.838170 0.493490 0.466390 -0.368251
C5    C     C_R   0.971858 0.840051 0.909157 -0.061401
C6    C     C_R   0.846106 0.662021 0.587842 -0.043479
C7    C     C_R   0.971822 0.722085 0.906648 -0.157544
C8    C     C_R   0.968191 0.779833 0.936132 -0.221229
C9    C     C_R   0.972584 0.842474 0.850885 -0.059022
C10   C     C_R   0.945433 0.783347 0.820486 0.003007
C11   C     C_R   0.962373 0.723226 0.849372 0.146655
C12   C     C_R   0.900475 0.780988 0.762889 0.043101
C13   C     C_R   0.914938 0.720458 0.733859 0.073979
C14   C     C_R   0.954167 0.663035 0.764308 -0.187181
C15   C     C_R   0.969611 0.664318 0.821014 -0.195076
C16   C     C_R   0.822432 0.835620 0.734759 -0.208999
C17   C     C_R   0.782738 0.833930 0.679051 -0.188541
C18   C     C_R   0.811591 0.776900 0.649268 0.133830
C19   C     C_R   0.877619 0.718938 0.675953 0.084443
C20   C     C_R   0.765898 0.776888 0.593205 -0.149155
C21   C     C_R   0.780676 0.719754 0.562990 -0.162011
C22   C     C_R   0.897484 0.661649 0.643634 -0.219242
H1    H     H_    0.988424 0.618484 0.842969 0.115126
H2    H     H_    0.948604 0.615865 0.660573 0.094715
H3    H     H_    0.738873 0.720363 0.520136 0.114315
H4    H     H_    0.724098 0.877453 0.659317 0.138229
H5    H     H_    0.979102 0.676127 0.928844 0.110680
H6    H     H_    0.970901 0.777517 0.980478 0.105226
H7    H     H_    0.962119 0.615467 0.745866 0.117806
H8    H     H_    0.779954 0.879580 0.755767 0.149809
H9    H     H_    0.713783 0.820964 0.572927 0.131481
C23   C     C_3   0.729956 0.240694 0.790145 -0.338702
C24   C     C_3   0.086153 0.259225 0.794427 -0.323874
C25   C     C_3   0.064659 0.309647 0.746821 -0.300432
H10   H     H_    0.680713 0.339827 0.758074 0.143071
H11   H     H_    0.708498 0.266816 0.829482 0.139639
H12   H     H_    0.231313 0.235959 0.793047 0.154163
H13   H     H_    0.075078 0.284978 0.834289 0.131467
H14   H     H_    0.035844 0.358907 0.764153 0.127295
H15   H     H_    0.202058 0.313051 0.724317 0.173942
C26   C     C_1   0.864389 0.377992 0.623989 -0.173230
C27   C     C_3   0.929718 0.206148 0.790409 0.248048
C28   C     C_3   0.711285 0.290192 0.741738 -0.358128
C29   C     C_3   0.897921 0.290860 0.707432 0.234492
C30   C     C_3   0.932545 0.219824 0.685926 -0.120181
C31   C     C_3   0.954045 0.170557 0.734957 -0.299699
C32   C     C_1   0.878299 0.339068 0.661603 -0.095013
C33   C     C_1   0.947098 0.159225 0.837109 -0.086870
C34   C     C_1   0.960039 0.121229 0.875418 -0.150394
H16   H     H_    0.843197 0.132160 0.730950 0.139852
H17   H     H_    0.095701 0.144788 0.734626 0.177770
H18   H     H_    0.802704 0.205781 0.661966 0.109956
H19   H     H_    0.614684 0.203772 0.786667 0.156622
H20   H     H_    0.586869 0.276936 0.715319 0.187047
C35   C     C_3   0.593676 0.703529 0.269568 -0.296453
C36   C     C_3   0.245011 0.696407 0.244585 -0.341664
C37   C     C_3   0.277195 0.745445 0.196740 -0.328270
H21   H     H_    0.660358 0.725962 0.184450 0.074460
H22   H     H_    0.617983 0.653370 0.253508 0.113133
H23   H     H_    0.094836 0.700838 0.259238 0.175112
H24   H     H_    0.264491 0.645639 0.229432 0.134045
H25   H     H_    0.317123 0.717756 0.159372 0.125560
H26   H     H_    0.141336 0.771592 0.186680 0.170320
C38   C     C_1   0.477334 0.879015 0.125085 -0.146922
C39   C     C_3   0.387085 0.709048 0.292368 0.239426
C40   C     C_3   0.625124 0.754094 0.222003 -0.150953
C41   C     C_3   0.437532 0.795003 0.210802 0.205636
C42   C     C_3   0.385363 0.831093 0.265575 -0.129558
C43   C     C_3   0.352701 0.780015 0.312492 -0.371583
C44   C     C_1   0.462830 0.841350 0.163581 -0.050763
C45   C     C_1   0.361198 0.661041 0.338030 -0.077331
C46   C     C_1   0.346756 0.622161 0.375679 -0.186822
H27   H     H_    0.452440 0.790303 0.347183 0.159046
H28   H     H_    0.204699 0.784253 0.328985 0.177890
H29   H     H_    0.509884 0.861172 0.277998 0.139798
H30   H     H_    0.698474 0.709082 0.303774 0.182673
C47   C     C_R   0.470340 0.161301 0.089519 -0.041630
C48   C     C_R   0.355230 0.338173 0.411303 -0.118731
C49   C     C_R   0.526521 0.277295 0.095091 -0.165106
C50   C     C_R   0.520690 0.220082 0.064721 -0.174323
C51   C     C_R   0.425109 0.160137 0.145613 -0.206532
C52   C     C_R   0.430261 0.218119 0.177779 0.088557
C53   C     C_R   0.483887 0.276775 0.151139 0.145267
C54   C     C_R   0.389443 0.219842 0.235442 0.022433
C55   C     C_R   0.407646 0.279438 0.265311 0.091066
C56   C     C_R   0.463905 0.335892 0.236484 -0.184623
C57   C     C_R   0.498694 0.334559 0.180644 -0.209445
C58   C     C_R   0.323959 0.164552 0.263660 -0.178460
C59   C     C_R   0.293637 0.164704 0.320254 -0.027283
C60   C     C_R   0.340339 0.220539 0.351559 -0.092374
C61   C     C_R   0.374850 0.280390 0.323305 0.052419
C62   C     C_R   0.351004 0.219729 0.410099 0.423463
C63   C     C_R   0.350223 0.278621 0.438740 -0.195636
C64   C     C_R   0.373771 0.339159 0.354255 -0.209733
H31   H     H_    0.541760 0.379264 0.160481 0.118862
H32   H     H_    0.381068 0.386635 0.335210 0.099702
H33   H     H_    0.350521 0.278138 0.483129 0.161011
H34   H     H_    0.567495 0.322123 0.074782 0.108849
H35   H     H_    0.557481 0.221525 0.021732 0.100821
H36   H     H_    0.393644 0.113075 0.163066 0.111080
H37   H     H_    0.487131 0.382060 0.256165 0.119705
H38   H     H_    0.284884 0.121115 0.241781 0.161387
O11   O     O_R   0.323590 0.942280 0.056590 -0.532385
O12   O     O_R   0.647030 0.077140 0.045940 -0.540149
O13   O     O_R   0.813570 0.057750 0.943430 -0.536403
C65   C     C_R   0.477834 0.100767 0.057005 0.689093
O14   O     O_R   0.653510 0.943950 0.062820 -0.541034
O15   O     O_R   0.820100 0.923600 0.960440 -0.536855
C66   C     C_R   0.485913 0.923958 0.078802 0.718301
O16   O     O_R   0.317060 0.076430 0.039590 -0.540470
O17   O     O_3   0.483830 0.993520 0.966410 -0.365701
V3    V     V_3+5 0.760140 0.001200 0.006230 1.461100
O18   O     O_R   0.149560 0.922820 0.954030 -0.537704
C67   C     C_R   0.981251 0.899125 0.943341 0.780366
O19   O     O_R   0.143080 0.056020 0.937150 -0.534039
C68   C     C_R   0.973140 0.076226 0.921447 0.788948
V4    V     V_3+5 0.259690 0.998730 0.993720 1.469227
O20   O     O_3   0.986120 0.006480 0.033580 -0.371479
C69   C     C_2   0.099279 0.214800 0.646789 0.367815
H39   H     H_    0.071106 0.213284 0.603034 0.093320
O21   O     O_2   0.265345 0.214198 0.663320 -0.539744
C70   C     C_2   0.793218 0.798399 0.232356 0.314615
H40   H     H_    0.850029 0.826004 0.198333 0.102975
O22   O     O_2   0.860590 0.806020 0.278167 -0.542478
C71   C     C_2   0.220239 0.879857 0.262008 0.452761
H41   H     H_    0.168525 0.902271 0.299323 0.115868
O23   O     O_2   0.146725 0.896194 0.218404 -0.531960
C72   C     C_2   0.182161 0.110053 0.343502 0.543530
H42   H     H_    0.088540 0.118509 0.377936 0.107142
O24   O     O_2   0.189991 0.055503 0.323623 -0.515935
S1    S     S_3+6 0.406109 0.148851 0.449842 -0.004235
O25   O     O_2   0.224519 0.121005 0.472463 -0.337987
O26   O     O_2   0.508537 0.098314 0.416140 -0.313097
O27   O     O_3   0.549614 0.169703 0.502559 -0.500370
H43   H     H_    0.568733 0.128972 0.524097 0.376796
C73   C     C_2   0.033144 0.903384 0.822739 0.298025
H44   H     H_    0.114500 0.900173 0.785155 0.078027
O28   O     O_2   0.990120 0.957291 0.840126 -0.544670

loop_
_geom_bond_atom_site_label_1
_geom_bond_atom_site_label_2
_ccdc_geom_bond_type
C31   H16   S    
S1    O27   S    
C28   C29   S    
C13   C19   A    
C51   C52   A    
O11   C66   A    
H21   C40   S    
C4    C6    S    
O2    C1    A    
C7    C8    A    
C35   C39   S    
C1    O6    A    
C55   C56   A    
C26   C32   T    
O17   V3    S    
C27   C33   S    
C24   C25   S    
C71   O23   D    
C35   H30   S    
C59   C60   A    
C38   C66   S    
C49   H34   S    
C16   C17   A    
O13   V3    S    
C73   O28   D    
O27   H43   S    
C42   H29   S    
O5    C3    A    
C18   C19   A    
C8    H6    S    
C53   C57   A    
C5    C67   S    
C39   C45   S    
S1    O25   D    
C25   H15   S    
C31   H17   S    
C5    C8    A    
C29   C30   S    
C65   O16   A    
O11   V4    S    
O8    V2    S    
C36   C37   S    
C17   H4    S    
O1    V2    S    
C11   C15   A    
C61   C64   A    
O7    V1    S    
O16   V4    S    
C22   H2    S    
C3    C26   S    
C23   C27   S    
O9    C4    A    
O17   V4    S    
C47   C51   A    
C23   H19   S    
C52   C53   A    
C35   C40   S    
C62   C63   A    
O13   C68   A    
C59   C72   S    
O14   C66   A    
C19   C22   A    
C9    C73   S    
C58   H38   S    
C12   C13   A    
C48   C64   A    
C38   C44   T    
C49   C50   A    
O4    C2    A    
C40   C41   S    
C56   H37   S    
C70   O22   D    
C15   H1    S    
C36   H24   S    
O14   V3    S    
C2    C48   S    
C25   H14   S    
C21   H3    S    
O15   V3    S    
C33   C34   T    
C7    C11   A    
O19   V4    S    
C17   C18   A    
O18   V4    S    
C40   C70   S    
C42   C71   S    
C45   C46   T    
C1    C46   S    
C39   C43   S    
C36   H23   S    
C54   C55   A    
C24   H12   S    
C14   C15   A    
C62   S1    S    
V3    O20   S    
C37   H25   S    
C72   H42   S    
C47   C50   A    
C52   C54   A    
C6    C22   A    
C55   C61   A    
O15   C67   A    
C7    H5    S    
C24   C27   S    
O6    V2    S    
O9    V2    S    
O18   C67   A    
C10   C12   A    
C37   C41   S    
O19   C68   A    
O2    V1    S    
C28   H20   S    
C30   H18   S    
H10   C28   S    
V4    O20   S    
C27   C31   S    
C36   C39   S    
S1    O26   D    
C63   H33   S    
O12   V3    S    
O1    C2    A    
C30   C69   S    
C12   C16   A    
C48   C63   A    
C72   O24   D    
C42   C43   S    
C69   O21   D    
O5    V1    S    
C41   C44   S    
O8    C3    A    
C50   H35   S    
C70   H40   S    
O3    C4    A    
C57   H31   S    
C71   H41   S    
C29   C32   S    
C60   C62   A    
C43   H28   S    
C20   C21   A    
C13   C14   A    
O4    V1    S    
O3    V1    S    
V1    O10   S    
C69   H39   S    
C18   C20   A    
C23   C28   S    
C30   C31   S    
C64   H32   S    
C24   H13   S    
C54   C58   A    
C16   H8    S    
C58   C59   A    
C20   H9    S    
O12   C65   A    
C37   H26   S    
C34   C68   S    
C35   H22   S    
C73   H44   S    
O7    V2    S    
C60   C61   A    
C6    C21   A    
C5    C9    A    
C51   H36   S    
C49   C53   A    
C41   C42   S    
C23   H11   S    
C47   C65   S    
C56   C57   A    
C25   C29   S    
C10   C11   A    
C9    C10   A    
C43   H27   S    
V2    O10   S    
C14   H7    S    
