data_mof_unit_60605.cif
_audit_creation_date              2012-12-10T16:55:18-0500
_audit_creation_method            fapswitch 2.2
_symmetry_space_group_name_H-M    P1
_symmetry_Int_Tables_number       1
_space_group_crystal_system       triclinic
_cell_length_a                    21.730121
_cell_length_b                    21.768079
_cell_length_c                    22.219347
_cell_angle_alpha                 119.695551
_cell_angle_beta                  119.311007
_cell_angle_gamma                 89.965871
_cell_volume                      7544.12025872

loop_
_atom_site_label
_atom_site_type_symbol
_atom_type_description
_atom_site_fract_x
_atom_site_fract_y
_atom_site_fract_z
_atom_type_partial_charge
C1    C     C_R   0.999477 0.380767 0.499740 0.744336
C2    C     C_1   0.836407 0.337204 0.173988 0.075268
C3    C     C_1   0.125653 0.625448 0.750976 -0.205269
C4    C     C_1   0.874351 0.374389 0.248929 -0.221415
C5    C     C_2   0.056032 0.251323 0.566615 -0.253738
C6    C     C_2   0.063047 0.804365 0.539959 -0.244903
C7    C     C_2   0.023782 0.181271 0.497704 0.446518
C8    C     C_2   0.998157 0.811719 0.494546 0.457168
C9    C     C_2   0.058314 0.314114 0.559010 -0.214928
C10   C     C_2   0.064554 0.733649 0.531913 -0.267628
C11   C     C_2   0.996774 0.314706 0.500282 0.403379
C12   C     C_R   0.003572 0.622507 0.507487 0.808821
C13   C     C_2   0.014383 0.699236 0.533138 0.388239
C14   C     C_R   0.617518 0.998255 0.497074 0.976410
C15   C     C_R   0.382869 0.002087 0.503678 0.969094
C16   C     C_R   0.081154 0.581332 0.662263 0.878066
C17   C     C_R   0.918837 0.418683 0.337707 0.896033
C18   C     C_R   0.418905 0.918692 0.337774 0.893547
C19   C     C_R   0.581230 0.081342 0.662291 0.899546
C20   C     C_R   0.880759 0.002710 0.500153 0.974273
C21   C     C_R   0.119183 0.997460 0.499748 0.957878
C22   C     C_R   0.005628 0.118769 0.500006 0.817087
C23   C     C_3   0.244459 0.833240 0.050201 0.190842
C24   C     C_R   0.999566 0.880415 0.499191 0.761533
C25   C     C_2   0.750615 0.996799 0.434111 -0.292535
C26   C     C_2   0.248517 0.000962 0.564134 -0.318385
C27   C     C_2   0.815824 0.012325 0.501875 -0.389589
C28   C     C_2   0.183643 0.987108 0.497345 -0.404603
C29   C     C_2   0.684687 0.005153 0.437903 0.533852
C30   C     C_2   0.312878 0.989379 0.558051 0.529802
C31   C     C_2   0.678696 0.991337 0.487691 -0.429782
C32   C     C_2   0.322005 0.009105 0.513724 -0.423496
C33   C     C_3   0.295006 0.714512 0.953410 0.281377
C34   C     C_3   0.693400 0.165800 0.950126 0.184646
C35   C     C_3   0.735760 0.332007 0.049046 0.297673
C36   C     C_3   0.184160 0.672450 0.952176 0.197686
C37   C     C_3   0.840502 0.273844 0.047919 0.188267
C38   C     C_3   0.241422 0.715712 0.049424 0.243419
C39   C     C_3   0.792279 0.228432 0.950255 0.277676
C40   C     C_1   0.375492 0.873974 0.249058 -0.201431
C41   C     C_1   0.625267 0.126134 0.751142 -0.174935
C42   C     C_3   0.209945 0.707262 0.917139 -0.165041
C43   C     C_3   0.789836 0.292063 0.082590 -0.131509
C44   C     C_3   0.345334 0.774828 0.049717 0.327385
C45   C     C_3   0.198561 0.786331 0.952196 0.247621
C46   C     C_3   0.687503 0.282870 0.951256 0.340427
C47   C     C_3   0.293895 0.790497 0.082659 -0.100315
C48   C     C_3   0.708178 0.209878 0.917743 -0.114100
C49   C     C_3   0.466313 0.769360 0.097397 -0.315539
C50   C     C_3   0.644781 0.359440 0.905265 -0.328409
C51   C     C_3   0.324231 0.772002 0.898281 -0.196167
C52   C     C_3   0.704231 0.419267 0.136834 -0.278493
C53   C     C_3   0.064811 0.150803 0.413347 -0.352399
C54   C     C_3   0.870374 0.767172 0.425210 -0.228137
C55   C     C_3   0.883958 0.240000 0.371346 0.153097
C56   C     C_3   0.741385 0.214770 0.048447 0.320669
C57   C     C_3   0.823185 0.166306 0.318501 -0.807298
C58   C     C_3   0.008486 0.771321 0.645668 0.085065
C59   C     C_3   0.963143 0.814793 0.675092 -0.835199
C60   C     C_3   0.613509 0.995810 0.312573 0.074588
C61   C     C_3   0.538379 0.000712 0.259029 -0.784880
C62   C     C_3   0.341099 0.926240 0.623076 0.115224
C63   C     C_3   0.397118 0.888816 0.652140 -0.829423
C64   C     C_3   0.200168 0.551932 0.885543 -0.216547
C65   C     C_3   0.897907 0.398647 0.099830 -0.190995
C66   C     C_3   0.259345 0.641534 0.100628 -0.236651
C67   C     C_1   0.338916 0.836424 0.174173 0.132133
C68   C     C_3   0.858596 0.244352 0.899542 -0.230109
C69   C     C_3   0.161111 0.850004 0.887230 0.145302
C70   C     C_3   0.188365 0.895809 0.865955 -0.875827
C71   C     C_3   0.715902 0.204279 0.134761 0.144943
C72   C     C_3   0.669134 0.223862 0.170728 -0.792709
C73   C     C_3   0.267786 0.962296 0.127868 -0.266498
C74   C     C_3   0.590490 0.071306 0.892083 -0.220493
C75   C     C_1   0.662448 0.163785 0.826107 0.126524
C76   C     C_1   0.163548 0.662370 0.825861 0.115969
H1    H     H_    0.371545 0.828383 0.064170 0.127685
H2    H     H_    0.254130 0.019791 0.622409 0.173699
H3    H     H_    0.823190 0.036757 0.562018 0.155375
H4    H     H_    0.176086 0.962703 0.437083 0.154477
H5    H     H_    0.300525 0.662857 0.949689 0.175706
H6    H     H_    0.768445 0.385800 0.070161 0.085341
H7    H     H_    0.715447 0.965893 0.515488 0.113643
H8    H     H_    0.286499 0.036848 0.488639 0.117640
H9    H     H_    0.133239 0.687307 0.945652 0.080467
H10   H     H_    0.863819 0.233122 0.061148 0.078746
H11   H     H_    0.209287 0.732032 0.078845 0.032850
H12   H     H_    0.627596 0.265073 0.927857 0.168340
H13   H     H_    0.802800 0.173455 0.925513 0.012096
H14   H     H_    0.138385 0.776705 0.929334 0.002646
H15   H     H_    0.779834 0.184435 0.068237 -0.051707
H16   H     H_    0.492750 0.830952 0.139809 0.148559
H17   H     H_    0.455737 0.747849 0.035096 0.195055
H18   H     H_    0.506279 0.744698 0.125357 0.192923
H19   H     H_    0.643850 0.395998 0.961518 0.155688
H20   H     H_    0.588691 0.318038 0.851086 0.172932
H21   H     H_    0.659159 0.395217 0.888859 0.200770
H22   H     H_    0.343207 0.827036 0.956592 0.188937
H23   H     H_    0.203617 0.837649 0.067917 0.019633
H24   H     H_    0.269406 0.761122 0.844492 0.211174
H25   H     H_    0.364879 0.774720 0.882523 0.147782
H26   H     H_    0.693108 0.451547 0.108576 0.136104
H27   H     H_    0.762925 0.443697 0.191913 0.160293
H28   H     H_    0.667768 0.424101 0.159484 0.197639
H29   H     H_    0.074027 0.100078 0.412337 0.161699
H30   H     H_    0.116999 0.199181 0.464165 0.165155
H31   H     H_    0.050420 0.139612 0.352804 0.192269
H32   H     H_    0.849725 0.792554 0.389210 0.157601
H33   H     H_    0.880058 0.804550 0.488039 0.155828
H34   H     H_    0.712653 0.116123 0.928696 0.022904
H35   H     H_    0.825763 0.714879 0.390544 0.186229
H36   H     H_    0.917247 0.231958 0.344078 0.134306
H37   H     H_    0.856706 0.282313 0.367367 0.140179
H38   H     H_    0.786725 0.173028 0.341530 0.249798
H39   H     H_    0.788909 0.147873 0.252052 0.180243
H40   H     H_    0.848400 0.122832 0.322078 0.284820
H41   H     H_    0.064151 0.811343 0.680179 0.142235
H42   H     H_    0.015496 0.729358 0.661340 0.130862
H43   H     H_    0.907396 0.776371 0.642487 0.259826
H44   H     H_    0.992236 0.842709 0.743737 0.197300
H45   H     H_    0.076772 0.262944 0.627903 0.134905
H46   H     H_    0.956198 0.857855 0.661318 0.250283
H47   H     H_    0.609573 0.935682 0.281556 0.117444
H48   H     H_    0.656413 0.027089 0.315422 0.150279
H49   H     H_    0.540008 0.059929 0.287327 0.259957
H50   H     H_    0.524717 0.976296 0.194974 0.192815
H51   H     H_    0.494198 0.969315 0.254425 0.264073
H52   H     H_    0.286805 0.881790 0.567604 0.138169
H53   H     H_    0.335354 0.964092 0.675326 0.134736
H54   H     H_    0.451850 0.931597 0.708046 0.248920
H55   H     H_    0.377158 0.856650 0.668885 0.198462
H56   H     H_    0.115399 0.848833 0.579695 0.106307
H57   H     H_    0.404035 0.850129 0.601234 0.257370
H58   H     H_    0.255080 0.565879 0.940966 0.203682
H59   H     H_    0.205298 0.555843 0.840274 0.149085
H60   H     H_    0.171379 0.492182 0.852763 0.167489
H61   H     H_    0.851412 0.391365 0.041982 0.219532
H62   H     H_    0.949134 0.431441 0.116143 0.168044
H63   H     H_    0.893118 0.432397 0.153604 0.134124
H64   H     H_    0.199297 0.607881 0.054073 0.177545
H65   H     H_    0.269395 0.686094 0.161734 0.147821
H66   H     H_    0.291058 0.603827 0.110778 0.177301
H67   H     H_    0.109126 0.361554 0.604450 0.112457
H68   H     H_    0.832319 0.186189 0.842565 0.135213
H69   H     H_    0.910306 0.248999 0.952222 0.176059
H70   H     H_    0.874516 0.281045 0.884936 0.180635
H71   H     H_    0.144992 0.885883 0.930401 0.137370
H72   H     H_    0.111623 0.801523 0.828213 0.115288
H73   H     H_    0.202580 0.860686 0.820685 0.236450
H74   H     H_    0.144117 0.917095 0.837540 0.208417
H75   H     H_    0.238545 0.943963 0.923760 0.271872
H76   H     H_    0.775558 0.234619 0.187748 0.113124
H77   H     H_    0.706372 0.143110 0.101886 0.107675
H78   H     H_    0.103847 0.708175 0.520137 0.140916
H79   H     H_    0.609183 0.193570 0.119440 0.257057
H80   H     H_    0.685220 0.207787 0.215364 0.194438
H81   H     H_    0.678238 0.284881 0.204438 0.263824
H82   H     H_    0.275565 0.964842 0.182494 0.150142
H83   H     H_    0.208926 0.955632 0.084815 0.140572
H84   H     H_    0.303229 0.016126 0.151890 0.185554
H85   H     H_    0.623890 0.064645 0.944327 0.140942
H86   H     H_    0.591269 0.030327 0.836876 0.140115
H87   H     H_    0.531998 0.059193 0.873242 0.181884
H88   H     H_    0.746408 0.978904 0.376759 0.158126
O1    O     O_R   0.051090 0.409550 0.500010 -0.631245
O2    O     O_R   0.051070 0.590460 0.499970 -0.650638
O3    O     O_R   0.112510 0.561440 0.622850 -0.611551
O4    O     O_R   0.887490 0.438560 0.377150 -0.619097
O5    O     O_R   0.010350 0.561430 0.622870 -0.616614
O6    O     O_R   0.989650 0.438570 0.377130 -0.600595
O7    O     O_R   0.590290 0.948920 0.499990 -0.640057
O8    O     O_R   0.409710 0.051080 0.500010 -0.640440
O9    O     O_R   0.590320 0.051050 0.499970 -0.563133
O10   O     O_R   0.409680 0.948950 0.500030 -0.573066
O11   O     O_R   0.438380 0.887500 0.377150 -0.616930
O12   O     O_R   0.948910 0.590450 0.499990 -0.586454
O13   O     O_R   0.561620 0.112500 0.622850 -0.612721
O14   O     O_R   0.438400 0.989630 0.377130 -0.615905
O15   O     O_R   0.561600 0.010370 0.622870 -0.617238
O16   O     O_R   0.944190 0.034670 0.569380 -0.618445
O17   O     O_R   0.055810 0.965330 0.430620 -0.631555
O18   O     O_3   0.400412 0.748593 0.090336 -0.552163
O19   O     O_3   0.698650 0.323125 0.921005 -0.572812
O20   O     O_3   0.322913 0.711889 0.906217 -0.634454
O21   O     O_3   0.687281 0.343123 0.076655 -0.543718
O22   O     O_3   0.005467 0.166786 0.421661 -0.581160
O23   O     O_R   0.874830 0.965310 0.430660 -0.623133
O24   O     O_3   0.934573 0.749001 0.430703 -0.581888
O25   O     O_3   0.928334 0.261586 0.455361 -0.580331
O26   O     O_3   0.970807 0.736025 0.558367 -0.573035
O27   O     O_3   0.630334 0.028000 0.393960 -0.580661
O28   O     O_3   0.367770 0.967399 0.602879 -0.588748
O29   O     O_3   0.155913 0.593129 0.907377 -0.576116
O30   O     O_3   0.907054 0.330750 0.089436 -0.575409
O31   O     O_3   0.284995 0.672528 0.071161 -0.533796
O32   O     O_3   0.807685 0.267666 0.921179 -0.517767
O33   O     O_3   0.218700 0.825103 0.925398 -0.569426
O34   O     O_R   0.125170 0.034690 0.569340 -0.617184
O35   O     O_3   0.694541 0.224994 0.078051 -0.475507
O36   O     O_3   0.290183 0.904269 0.085509 -0.553417
O37   O     O_3   0.616183 0.144688 0.917115 -0.537361
O38   O     O_R   0.034670 0.125130 0.569340 -0.651401
O39   O     O_R   0.965330 0.874870 0.430660 -0.606581
O40   O     O_R   0.965310 0.055770 0.430620 -0.592662
O41   O     O_R   0.034690 0.944230 0.569380 -0.640004
O42   O     O_R   0.948930 0.409540 0.500030 -0.604901
Zn1   Zn    Zn3+2 0.068220 0.500010 0.499990 0.955517
Zn2   Zn    Zn3+2 0.931780 0.499990 0.500010 0.973976
Zn3   Zn    Zn3+2 0.499800 0.931810 0.500010 0.974820
Zn4   Zn    Zn3+2 0.500200 0.068190 0.499990 0.989037
Zn5   Zn    Zn3+2 0.046310 0.046310 0.592620 0.939624
Zn6   Zn    Zn3+2 0.953690 0.953690 0.407380 0.952120

loop_
_geom_bond_atom_site_label_1
_geom_bond_atom_site_label_2
_ccdc_geom_bond_type
O15   Zn3   S    
C46   O19   S    
C23   H23   S    
C64   H60   S    
C24   O39   A    
C34   C56   S    
C59   H44   S    
C23   C45   S    
C3    C16   S    
C44   O18   S    
C55   H36   S    
C60   H47   S    
O10   Zn3   S    
C7    O22   S    
C36   C42   S    
O9    Zn4   S    
C70   H74   S    
C21   O34   A    
C10   H78   S    
O5    Zn2   S    
C66   O31   S    
C9    H67   S    
C15   C32   S    
C20   O16   A    
C66   H65   S    
C8    O24   S    
C21   O17   A    
C73   H84   S    
C52   H26   S    
C26   H2    S    
O17   Zn6   S    
C72   H80   S    
C33   C42   S    
C55   O25   S    
C44   H1    S    
C14   O9    A    
C27   H3    S    
C12   O2    A    
C74   H87   S    
O7    Zn3   S    
C52   H27   S    
O42   Zn2   S    
C50   H19   S    
O41   Zn5   S    
C16   O3    A    
C45   O33   S    
C71   H77   S    
C73   O36   S    
C5    H45   S    
C24   O41   A    
C58   H42   S    
C31   H7    S    
C38   O31   S    
O14   Zn4   S    
C48   C75   S    
C63   H54   S    
C34   O37   S    
C60   H48   S    
C14   C31   S    
C18   C40   S    
C36   O29   S    
C53   H30   S    
C63   H57   S    
C56   H15   S    
C50   O19   S    
C40   C67   T    
C1    C11   S    
C58   O26   S    
O4    Zn2   S    
C61   H50   S    
C63   H55   S    
C49   H18   S    
C30   C32   D    
C35   C43   S    
O38   Zn5   S    
C44   C47   S    
C12   O12   A    
C56   O35   S    
C65   H61   S    
C18   O11   A    
C59   H46   S    
C64   H59   S    
C72   H79   S    
C54   O24   S    
C69   O33   S    
C62   H53   S    
C70   H73   S    
C16   O5    A    
C47   C67   S    
C35   H6    S    
C57   H40   S    
C46   H12   S    
C25   C29   S    
C32   H8    S    
C64   H58   S    
C23   C47   S    
C22   O38   A    
C37   H10   S    
C57   H39   S    
C51   O20   S    
C5    C7    D    
C17   O6    A    
C62   O28   S    
C55   H37   S    
C58   C59   S    
C73   H82   S    
C10   C13   D    
C58   H41   S    
C72   H81   S    
C54   H33   S    
C60   C61   S    
C11   O25   S    
C42   C45   S    
O3    Zn1   S    
O13   Zn4   S    
C37   C43   S    
O16   Zn5   S    
C2    C4    T    
C53   O22   S    
C5    C9    S    
C62   C63   S    
C1    O42   A    
C41   C75   T    
C9    C11   D    
C53   H31   S    
C71   H76   S    
C1    O1    A    
C2    C43   S    
C35   O21   S    
C64   O29   S    
O40   Zn6   S    
C33   O20   S    
C29   O27   S    
C68   O32   S    
O23   Zn6   S    
C3    C76   T    
O1    Zn1   S    
C38   C47   S    
C74   O37   S    
C65   H62   S    
C6    H56   S    
C20   C27   S    
C21   C28   S    
C26   C30   S    
C30   O28   S    
C55   C57   S    
O8    Zn4   S    
C69   H71   S    
O39   Zn6   S    
C51   H25   S    
O2    Zn1   S    
C4    C17   S    
C49   H16   S    
C19   O15   A    
C68   H70   S    
C74   H86   S    
C65   O30   S    
C51   H24   S    
C19   O13   A    
C52   H28   S    
C50   H21   S    
C59   H43   S    
C15   O10   A    
C33   C44   S    
C42   C76   S    
C70   H75   S    
C14   O7    A    
C17   O4    A    
C6    C10   S    
C74   H85   S    
C6    C8    D    
C54   H35   S    
C71   O35   S    
C57   H38   S    
C66   H66   S    
C61   H51   S    
C22   O40   A    
C36   H9    S    
C25   C27   D    
C7    C22   S    
C39   O32   S    
C73   H83   S    
C34   C48   S    
C26   C28   D    
C54   H32   S    
C38   H11   S    
C37   O30   S    
O12   Zn2   S    
C36   C38   S    
C71   C72   S    
C37   C39   S    
O34   Zn5   S    
C20   O23   A    
C62   H52   S    
C50   H20   S    
C51   H22   S    
C60   O27   S    
C34   H34   S    
C23   O36   S    
C8    C24   S    
C15   O8    A    
C68   H68   S    
O11   Zn3   S    
C69   C70   S    
C28   H4    S    
C13   O26   S    
C49   O18   S    
C65   H63   S    
C46   C48   S    
C53   H29   S    
C43   C56   S    
O6    Zn1   S    
C66   H64   S    
C12   C13   S    
C18   O14   A    
C29   C31   D    
C52   O21   S    
C69   H72   S    
C61   H49   S    
C25   H88   S    
C49   H17   S    
C35   C46   S    
C33   H5    S    
C39   H13   S    
C45   H14   S    
C68   H69   S    
C19   C41   S    
C39   C48   S    
