data_mof_unit_62270.cif
_audit_creation_date              2012-12-10T19:56:29-0500
_audit_creation_method            fapswitch 2.2
_symmetry_space_group_name_H-M    P1
_symmetry_Int_Tables_number       1
_space_group_crystal_system       triclinic
_cell_length_a                    14.99782
_cell_length_b                    14.249578
_cell_length_c                    23.462716
_cell_angle_alpha                 90.206923
_cell_angle_beta                  91.303169
_cell_angle_gamma                 89.999734
_cell_volume                      5012.94854337

loop_
_atom_site_label
_atom_site_type_symbol
_atom_type_description
_atom_site_fract_x
_atom_site_fract_y
_atom_site_fract_z
_atom_type_partial_charge
C1    C     C_R   0.327869 0.499945 0.500117 1.063768
C2    C     C_R   0.672124 0.499941 0.499955 1.053985
C3    C     C_R   0.494636 0.415806 0.236692 -0.114640
C4    C     C_R   0.476732 0.580461 0.762633 -0.109242
C5    C     C_R   0.492852 0.414726 0.296005 0.608459
C6    C     C_R   0.475283 0.581412 0.703276 0.589037
C7    C     C_R   0.502110 0.499186 0.326954 -0.182932
C8    C     C_R   0.498655 0.500138 0.672853 -0.179419
C9    C     C_R   0.513758 0.584067 0.297909 -0.296799
C10   C     C_R   0.521350 0.417669 0.702247 -0.287135
C11   C     C_R   0.514363 0.585616 0.238725 0.038451
C12   C     C_R   0.521722 0.416004 0.761451 0.036739
C13   C     C_R   0.504718 0.501388 0.208057 0.141337
C14   C     C_R   0.499890 0.497661 0.791711 0.141743
C15   C     C_R   0.091986 0.570346 0.472916 0.627081
C16   C     C_R   0.905145 0.425601 0.472820 0.623662
C17   C     C_R   0.907757 0.570248 0.528499 0.630440
C18   C     C_R   0.095107 0.425841 0.528086 0.628189
C19   C     C_R   0.184046 0.571617 0.473139 0.494135
C20   C     C_R   0.812991 0.426295 0.472479 0.489141
C21   C     C_R   0.815683 0.571581 0.527850 0.484695
C22   C     C_R   0.187251 0.426473 0.528005 0.484475
C23   C     C_R   0.231886 0.499492 0.500510 -0.539161
C24   C     C_R   0.768106 0.499461 0.499965 -0.539844
C25   C     C_R   0.047899 0.497680 0.500495 -0.252212
C26   C     C_R   0.952104 0.497518 0.500841 -0.253029
C27   C     C_R   0.500312 0.499714 0.389294 0.927086
C28   C     C_R   0.499399 0.500169 0.610627 0.931750
C29   C     C_R   0.428020 0.105020 0.476471 0.573813
C30   C     C_R   0.534537 0.895375 0.546728 0.566513
C31   C     C_R   0.572087 0.105379 0.523607 0.574123
C32   C     C_R   0.465659 0.894882 0.453302 0.566941
C33   C     C_R   0.431951 0.203691 0.473595 -0.101975
C34   C     C_R   0.539223 0.796645 0.544271 -0.118845
C35   C     C_R   0.568049 0.204084 0.526467 -0.098826
C36   C     C_R   0.460740 0.796211 0.455780 -0.122236
C37   C     C_R   0.500094 0.053405 0.500026 -0.093899
C38   C     C_R   0.500143 0.946923 0.500011 -0.071575
C39   C     C_R   0.580647 0.504817 0.881351 0.529166
C40   C     C_R   0.424161 0.497093 0.118362 0.527214
C41   C     C_R   0.421755 0.488927 0.879876 0.528563
C42   C     C_R   0.583446 0.507782 0.119956 0.530936
C43   C     C_R   0.420645 0.490714 0.939331 -0.027080
C44   C     C_R   0.584490 0.507499 0.060471 -0.027086
C45   C     C_R   0.502210 0.498879 0.969956 -0.014585
C46   C     C_R   0.502847 0.500518 0.029817 -0.014658
C47   C     C_R   0.583124 0.505462 0.940864 -0.025903
C48   C     C_R   0.421834 0.495088 0.058880 -0.025826
C49   C     C_R   0.340347 0.484928 0.968681 -0.126342
C50   C     C_R   0.664765 0.513581 0.031107 -0.126658
C51   C     C_R   0.340911 0.487431 0.027988 -0.126493
C52   C     C_R   0.664065 0.512869 0.971769 -0.126713
H1    H     H_    0.276917 0.478778 0.945969 0.205542
H2    H     H_    0.728239 0.519081 0.053829 0.205188
H3    H     H_    0.277910 0.483019 0.049492 0.205266
H4    H     H_    0.727013 0.517925 0.950255 0.205058
H5    H     H_    0.522487 0.649360 0.321191 0.193593
H6    H     H_    0.539255 0.354599 0.679160 0.196414
N1    N     N_R   0.500848 0.496577 0.852484 -0.353767
N2    N     N_R   0.504117 0.502672 0.147288 -0.353524
N3    N     N_R   0.500000 0.252470 0.500000 -0.190100
N4    N     N_R   0.500000 0.747530 0.500000 -0.191248
O1    O     O_R   0.369060 0.579480 0.500000 -0.569181
O2    O     O_R   0.630940 0.420520 0.500000 -0.593100
O3    O     O_R   0.630940 0.579480 0.500000 -0.590296
O4    O     O_R   0.369060 0.420520 0.500000 -0.605722
O5    O     O_R   0.499970 0.579500 0.416160 -0.662069
O6    O     O_R   0.500030 0.420500 0.583840 -0.637646
O7    O     O_R   0.500030 0.579500 0.583840 -0.592569
O8    O     O_R   0.499970 0.420500 0.416160 -0.558299
O9    O     O_2   0.656993 0.512664 0.852368 -0.522062
O10   O     O_2   0.347473 0.493198 0.147286 -0.521596
O11   O     O_2   0.344714 0.479950 0.849473 -0.517453
O12   O     O_2   0.660747 0.512743 0.150419 -0.519292
Zn1   Zn    Zn3+2 0.500000 0.606140 0.500000 1.029663
Zn2   Zn    Zn3+2 0.500000 0.393860 0.500000 1.039963
C53   C     C_1   0.363791 0.252007 0.441057 0.527936
N5    N     N_1   0.308830 0.289867 0.414416 -0.120498
C54   C     C_1   0.588165 0.749067 0.588967 0.559325
N6    N     N_1   0.628263 0.712230 0.625205 -0.078075
C55   C     C_1   0.635981 0.252870 0.559159 0.453122
N7    N     N_1   0.690738 0.291123 0.585932 -0.151420
C56   C     C_1   0.410955 0.748329 0.411376 0.476102
N8    N     N_1   0.370044 0.711295 0.375422 -0.100058
C57   C     C_1   0.486075 0.328744 0.205312 0.353584
N9    N     N_1   0.479214 0.259060 0.180111 -0.126693
C58   C     C_1   0.454559 0.664792 0.793577 0.351215
N10   N     N_1   0.436811 0.732299 0.818427 -0.127226
F1    F     F_    0.481582 0.331421 0.323010 -0.629691
F2    F     F_    0.449417 0.660884 0.675595 -0.638243
C59   C     C_1   0.524165 0.674131 0.209828 0.272401
N11   N     N_1   0.532018 0.745060 0.186608 -0.132858
C60   C     C_1   0.544352 0.330096 0.790781 0.272704
N12   N     N_1   0.562494 0.261259 0.814352 -0.133055
F3    F     F_    0.045618 0.639085 0.445330 -0.539562
F4    F     F_    0.948717 0.356130 0.445071 -0.537702
F5    F     F_    0.953878 0.639082 0.556472 -0.537549
F6    F     F_    0.051790 0.356409 0.555736 -0.537765
F7    F     F_    0.226067 0.641865 0.445562 -0.576088
F8    F     F_    0.767844 0.357180 0.444117 -0.557702
F9    F     F_    0.773370 0.641899 0.555486 -0.585673
F10   F     F_    0.232636 0.357401 0.555940 -0.566831
F11   F     F_    0.352828 0.060655 0.457394 -0.560330
F12   F     F_    0.561895 0.939911 0.595371 -0.579645
F13   F     F_    0.647272 0.061319 0.542767 -0.562038
F14   F     F_    0.438271 0.938882 0.404679 -0.578780

loop_
_geom_bond_atom_site_label_1
_geom_bond_atom_site_label_2
_ccdc_geom_bond_type
C58   N10   T    
C60   N12   T    
C40   N2    A    
C3    C57   S    
C41   C43   A    
C28   O7    A    
C2    O3    A    
C55   N7    T    
C35   C55   S    
C13   N2    S    
C45   C46   A    
C15   C19   A    
C14   N1    S    
C30   C38   A    
C50   H2    S    
C17   C26   A    
C32   C36   A    
C28   O6    A    
C15   F3    S    
C15   C25   A    
C36   C56   S    
C29   C33   A    
C34   N4    A    
C7    C27   S    
C29   F11   S    
C40   C48   A    
C48   C51   A    
C20   C24   A    
C2    O2    A    
C49   C51   A    
C50   C52   A    
C32   C38   A    
C51   H3    S    
C3    C13   A    
C53   N5    T    
C21   F9    S    
O4    Zn2   S    
C32   F14   S    
C31   F13   S    
C18   C25   A    
C42   C44   A    
C36   N4    A    
C1    O1    A    
C44   C46   A    
C45   C47   A    
N3    Zn2   S    
C16   C26   A    
C46   C48   A    
C42   O12   S    
C16   F4    S    
C30   C34   A    
C41   N1    A    
C4    C6    A    
C42   N2    A    
C59   N11   T    
C5    C7    A    
C19   F7    S    
C43   C49   A    
C6    C8    A    
C25   C26   S    
C57   N9    T    
C17   C21   A    
C31   C37   A    
C4    C58   S    
C19   C23   A    
C37   C38   S    
C34   C54   S    
C43   C45   A    
C56   N8    T    
C20   F8    S    
C16   C20   A    
C39   N1    A    
C1    O4    A    
O2    Zn2   S    
C35   N3    A    
C9    C11   A    
C27   O8    A    
C10   C12   A    
C33   N3    A    
C12   C14   A    
C1    C23   S    
C2    C24   S    
C8    C28   S    
C31   C35   A    
N4    Zn1   S    
O5    Zn1   S    
C30   F12   S    
C39   C47   A    
C44   C50   A    
C7    C9    A    
C40   O10   S    
C10   H6    S    
C18   C22   A    
C3    C5    A    
C22   F10   S    
C47   C52   A    
O6    Zn2   S    
O3    Zn1   S    
C6    F2    S    
O8    Zn2   S    
C11   C13   A    
C33   C53   S    
O1    Zn1   S    
C49   H1    S    
O7    Zn1   S    
C9    H5    S    
C4    C14   A    
C12   C60   S    
C27   O5    A    
C41   O11   S    
C54   N6    T    
C11   C59   S    
C8    C10   A    
C21   C24   A    
C29   C37   A    
C39   O9    S    
C22   C23   A    
C18   F6    S    
C17   F5    S    
C5    F1    S    
C52   H4    S    
