data_mof_unit_7481.cif
_audit_creation_date              2012-12-11T14:29:43-0500
_audit_creation_method            fapswitch 2.2
_symmetry_space_group_name_H-M    P1
_symmetry_Int_Tables_number       1
_space_group_crystal_system       triclinic
_cell_length_a                    6.937446
_cell_length_b                    14.734678
_cell_length_c                    16.239762
_cell_angle_alpha                 90.441155
_cell_angle_beta                  89.841571
_cell_angle_gamma                 89.875795
_cell_volume                      1659.98571611

loop_
_atom_site_label
_atom_site_type_symbol
_atom_type_description
_atom_site_fract_x
_atom_site_fract_y
_atom_site_fract_z
_atom_type_partial_charge
O1    O     O_R   0.494400 0.416610 0.413880 -0.546904
O2    O     O_R   0.823920 0.406790 0.585520 -0.541493
O3    O     O_R   0.994250 0.583390 0.586120 -0.538179
C1    C     C_R   0.654636 0.385075 0.613554 0.741685
O4    O     O_R   0.824110 0.405730 0.414490 -0.510708
O5    O     O_R   0.994440 0.582310 0.413870 -0.541355
C2    C     C_R   0.656009 0.384337 0.385577 0.762266
O6    O     O_R   0.494210 0.417690 0.586130 -0.546617
O7    O     O_3   0.660810 0.557940 0.500000 -0.374751
V1    V     V_3+5 0.935650 0.489250 0.500000 1.434647
O8    O     O_R   0.324160 0.593210 0.414480 -0.545817
C3    C     C_R   0.155468 0.615018 0.386367 0.733444
O9    O     O_R   0.323970 0.594270 0.585510 -0.539248
C4    C     C_R   0.154904 0.616049 0.613976 0.694351
V2    V     V_3+5 0.435660 0.510750 0.500000 1.409649
O10   O     O_3   0.160630 0.442060 0.500000 -0.365364
C5    C     C_R   0.306669 0.577392 0.776078 -0.144128
C6    C     C_R   0.380060 0.556254 0.853355 -0.123189
C7    C     C_R   0.367858 0.618935 0.917483 -0.120140
C8    C     C_R   0.282360 0.703292 0.904824 -0.132943
C9    C     C_R   0.208765 0.727355 0.826708 0.066946
C10   C     C_R   0.220995 0.662964 0.760902 0.068353
C11   C     C_R   0.120291 0.813060 0.814090 -0.170136
C12   C     C_R   0.044178 0.834200 0.735394 0.070743
C13   C     C_R   0.056402 0.769861 0.669631 0.035577
C14   C     C_R   0.144480 0.684046 0.682327 -0.165641
C15   C     C_R   0.958635 0.919669 0.720180 -0.216235
C16   C     C_R   0.886078 0.941126 0.642833 -0.133633
C17   C     C_R   0.899485 0.878929 0.577712 0.348503
C18   C     C_R   0.983424 0.793873 0.591406 -0.207127
H1    H     H_    0.316768 0.525460 0.728854 0.108873
H2    H     H_    0.445388 0.490531 0.863669 0.114794
H3    H     H_    0.423625 0.601869 0.977617 0.111036
H4    H     H_    0.273313 0.748788 0.957262 0.106347
H5    H     H_    0.947347 0.971323 0.767616 0.127259
H6    H     H_    0.818639 0.006638 0.633883 0.129252
H7    H     H_    0.993609 0.747609 0.539546 0.107826
C19   C     C_2   0.985186 0.710436 0.283671 -0.140416
C20   C     C_2   0.150327 0.682843 0.319585 -0.314649
H8    H     H_    0.849110 0.682825 0.305083 0.133391
H9    H     H_    0.288036 0.709951 0.300363 0.129442
C21   C     C_2   0.972834 0.777963 0.215722 -0.132096
C22   C     C_2   0.126092 0.814640 0.177265 -0.311631
H10   H     H_    0.828811 0.797445 0.196539 0.133913
H11   H     H_    0.271222 0.795871 0.194689 0.128878
C23   C     C_2   0.779441 0.207366 0.780786 -0.139364
C24   C     C_2   0.614262 0.179482 0.816505 -0.311053
H12   H     H_    0.915526 0.179002 0.801363 0.135215
H13   H     H_    0.476228 0.206173 0.797303 0.127486
C25   C     C_2   0.791393 0.275783 0.713740 -0.134778
C26   C     C_2   0.638166 0.317620 0.680022 -0.310585
H14   H     H_    0.934986 0.291865 0.691465 0.134659
H15   H     H_    0.493312 0.302866 0.700785 0.126888
C27   C     C_2   0.779921 0.209997 0.211362 -0.205287
C28   C     C_2   0.613710 0.183449 0.175904 -0.353043
H16   H     H_    0.913795 0.179251 0.190147 0.145831
H17   H     H_    0.477315 0.213996 0.193312 0.129170
C29   C     C_2   0.798475 0.282198 0.276070 0.314862
C30   C     C_2   0.644253 0.315733 0.318430 -0.336786
H18   H     H_    0.500505 0.291426 0.305033 0.098122
O11   O     O_R   0.770210 0.079270 0.910680 -0.541556
O12   O     O_R   0.440150 0.091160 0.082270 -0.546459
O13   O     O_R   0.269970 0.914530 0.082860 -0.544403
C31   C     C_R   0.608448 0.113480 0.110279 0.764086
O14   O     O_R   0.440480 0.090100 0.911240 -0.545175
O15   O     O_R   0.270310 0.913460 0.910610 -0.536711
C32   C     C_R   0.609203 0.111685 0.883058 0.745512
O16   O     O_R   0.769870 0.080340 0.082930 -0.538842
O17   O     O_3   0.603660 0.938980 0.996790 -0.370133
V3    V     V_3+5 0.328750 0.007610 0.996740 1.401139
O18   O     O_R   0.940600 0.902510 0.911180 -0.538400
C33   C     C_R   0.109692 0.880906 0.882596 0.695544
O19   O     O_R   0.940270 0.903570 0.082200 -0.540515
C34   C     C_R   0.109474 0.881954 0.110437 0.735183
V4    V     V_3+5 0.828770 0.986010 0.996670 1.413522
O20   O     O_3   0.103730 0.054750 0.996710 -0.374271
N1    N     N_2   0.823730 0.900630 0.498768 -0.522169
H19   H     H_    0.805045 0.845510 0.460034 0.253128
C35   C     C_3   0.915739 0.976088 0.457969 -0.550115
H20   H     H_    0.844888 0.987989 0.397750 0.198134
H21   H     H_    0.070636 0.960728 0.446889 0.197537
H22   H     H_    0.902108 0.039155 0.495383 0.199810
N2    N     N_2   0.988294 0.313507 0.294131 -0.488755
H23   H     H_    0.091380 0.262978 0.291729 0.234969
C36   C     C_3   0.045965 0.392413 0.247735 -0.506893
H24   H     H_    0.189706 0.415636 0.269110 0.184051
H25   H     H_    0.941553 0.448875 0.257129 0.192216
H26   H     H_    0.055171 0.375332 0.181049 0.173455

loop_
_geom_bond_atom_site_label_1
_geom_bond_atom_site_label_2
_ccdc_geom_bond_type
O18   V4    S    
O19   C34   A    
C7    C8    A    
C12   C15   A    
C1    O6    A    
C24   H13   S    
N1    H19   S    
O11   V4    S    
O16   V4    S    
C31   O16   A    
C16   C17   A    
C19   C21   S    
O5    C3    A    
C19   C20   D    
O14   V3    S    
O12   V3    S    
C6    C7    A    
C2    C30   S    
O12   C31   A    
C27   C28   D    
O8    V2    S    
O15   C33   A    
O14   C32   A    
C25   H14   S    
C11   C12   A    
O1    V2    S    
O7    V1    S    
C8    H4    S    
C22   C34   S    
N1    C35   S    
C30   H18   S    
O9    C4    A    
O19   V4    S    
C21   H10   S    
C24   C32   S    
C25   C26   D    
C27   H16   S    
C36   H25   S    
C9    C11   A    
C23   H12   S    
C1    C26   S    
C12   C13   A    
C20   H9    S    
C7    H3    S    
C35   H21   S    
C15   H5    S    
C29   C30   D    
C36   H24   S    
C18   H7    S    
C26   H15   S    
O2    C1    A    
V4    O20   S    
C17   C18   A    
O11   C32   A    
N2    H23   S    
O13   V3    S    
C28   C31   S    
C5    C6    A    
C4    C14   S    
C22   H11   S    
O3    C4    A    
N2    C36   S    
O6    V2    S    
C28   H17   S    
V3    O20   S    
C5    H1    S    
C6    H2    S    
C21   C22   D    
O2    V1    S    
O4    C2    A    
C27   C29   S    
C36   H26   S    
C13   C18   A    
C23   C24   D    
O1    C2    A    
C11   C33   S    
O5    V1    S    
C35   H22   S    
O8    C3    A    
O13   C34   A    
C23   C25   S    
C5    C10   A    
C3    C20   S    
O9    V2    S    
C13   C14   A    
O18   C33   A    
O3    V1    S    
V1    O10   S    
C29   N2    S    
C19   H8    S    
O15   V3    S    
O17   V4    S    
O7    V2    S    
O17   V3    S    
C35   H20   S    
O4    V1    S    
C17   N1    S    
C8    C9    A    
C16   H6    S    
C10   C14   A    
C15   C16   A    
C9    C10   A    
V2    O10   S    
