data_mof_unit_16623.cif
_audit_creation_date              2012-12-11T14:29:40-0500
_audit_creation_method            fapswitch 2.2
_symmetry_space_group_name_H-M    P1
_symmetry_Int_Tables_number       1
_space_group_crystal_system       triclinic
_cell_length_a                    6.934592
_cell_length_b                    14.692173
_cell_length_c                    16.300001
_cell_angle_alpha                 90.370316
_cell_angle_beta                  90.409538
_cell_angle_gamma                 89.829111
_cell_volume                      1660.6287059

loop_
_atom_site_label
_atom_site_type_symbol
_atom_type_description
_atom_site_fract_x
_atom_site_fract_y
_atom_site_fract_z
_atom_type_partial_charge
O1    O     O_R   0.494400 0.416610 0.413880 -0.540324
O2    O     O_R   0.823920 0.406790 0.585520 -0.552248
O3    O     O_R   0.994250 0.583390 0.586120 -0.548580
C1    C     C_R   0.655170 0.385033 0.613545 0.715449
O4    O     O_R   0.824110 0.405730 0.414490 -0.526804
O5    O     O_R   0.994440 0.582310 0.413870 -0.499799
C2    C     C_R   0.654185 0.384665 0.385717 0.861853
O6    O     O_R   0.494210 0.417690 0.586130 -0.548593
O7    O     O_3   0.660810 0.557940 0.500000 -0.358701
V1    V     V_3+5 0.935650 0.489250 0.500000 1.532830
O8    O     O_R   0.324160 0.593210 0.414480 -0.524302
C3    C     C_R   0.154343 0.612700 0.384441 0.836045
O9    O     O_R   0.323970 0.594270 0.585510 -0.546805
C4    C     C_R   0.154519 0.617245 0.612903 0.661289
V2    V     V_3+5 0.435660 0.510750 0.500000 1.526782
O10   O     O_3   0.160630 0.442060 0.500000 -0.383748
H1    H     H_    0.208671 0.929762 0.511190 0.121666
C5    C     C_R   0.073992 0.559250 0.777659 -0.154223
C6    C     C_R   0.061209 0.526420 0.857162 -0.128272
C7    C     C_R   0.104136 0.583156 0.923086 -0.096388
C8    C     C_R   0.147926 0.674863 0.910387 -0.052750
C9    C     C_R   0.127019 0.713567 0.830918 0.020095
C10   C     C_R   0.111883 0.652291 0.762893 0.067627
C11   C     C_R   0.127036 0.809484 0.816661 -0.166527
C12   C     C_R   0.144037 0.841451 0.734867 0.062827
C13   C     C_R   0.157610 0.778577 0.668065 0.067163
C14   C     C_R   0.141455 0.683862 0.682073 -0.160384
C15   C     C_R   0.151542 0.935851 0.718183 -0.186143
C16   C     C_R   0.174990 0.967457 0.638261 0.017860
C17   C     C_R   0.190462 0.905735 0.573366 -0.151381
C18   C     C_R   0.181419 0.812448 0.587812 -0.149076
H2    H     H_    0.053953 0.510749 0.728153 0.111380
H3    H     H_    0.031664 0.455072 0.867374 0.141513
H4    H     H_    0.116647 0.553770 0.983761 0.148904
H5    H     H_    0.140501 0.985976 0.766955 0.099630
H6    H     H_    0.191908 0.767262 0.535313 0.094596
C19   C     C_2   0.999581 0.685634 0.260273 0.489455
C20   C     C_2   0.141248 0.682046 0.318680 -0.399989
H7    H     H_    0.250425 0.734694 0.321027 0.109006
C21   C     C_2   0.980633 0.763153 0.202004 -0.207857
C22   C     C_2   0.129611 0.813204 0.175940 -0.356596
H8    H     H_    0.839108 0.775015 0.175084 0.193317
H9    H     H_    0.274233 0.798988 0.198354 0.162842
C23   C     C_2   0.779241 0.208494 0.782498 -0.104249
C24   C     C_2   0.613436 0.179858 0.816702 -0.284331
H10   H     H_    0.915426 0.180762 0.804386 0.143148
H11   H     H_    0.475243 0.206158 0.796502 0.131916
C25   C     C_2   0.792260 0.277086 0.715667 -0.127754
C26   C     C_2   0.639086 0.317297 0.679729 -0.283339
H12   H     H_    0.936298 0.294653 0.695491 0.149322
H13   H     H_    0.493942 0.300958 0.698514 0.142343
C27   C     C_2   0.780145 0.232439 0.199025 0.424812
C28   C     C_2   0.621585 0.182367 0.177643 -0.372247
H14   H     H_    0.493242 0.186585 0.215005 0.152806
C29   C     C_2   0.789748 0.287864 0.275839 -0.184262
C30   C     C_2   0.635984 0.322030 0.314916 -0.346025
H15   H     H_    0.932388 0.305419 0.298765 0.199993
H16   H     H_    0.491536 0.309191 0.291785 0.169567
O11   O     O_R   0.770210 0.079270 0.910680 -0.538192
O12   O     O_R   0.440150 0.091160 0.082270 -0.510294
O13   O     O_R   0.269970 0.914530 0.082860 -0.533988
C31   C     C_R   0.610455 0.115549 0.108818 0.819272
O14   O     O_R   0.440480 0.090100 0.911240 -0.552231
O15   O     O_R   0.270310 0.913460 0.910610 -0.544470
C32   C     C_R   0.608710 0.111876 0.883157 0.738263
O16   O     O_R   0.769870 0.080340 0.082930 -0.499500
O17   O     O_3   0.603660 0.938980 0.996790 -0.382086
V3    V     V_3+5 0.328750 0.007610 0.996740 1.582784
O18   O     O_R   0.940600 0.902510 0.911180 -0.547221
C33   C     C_R   0.110913 0.876973 0.885670 0.671714
O19   O     O_R   0.940270 0.903570 0.082200 -0.549431
C34   C     C_R   0.110189 0.882706 0.111013 0.798920
V4    V     V_3+5 0.828770 0.986010 0.996670 1.555709
O20   O     O_3   0.103730 0.054750 0.996710 -0.326735
S1    S     S_3+6 0.993644 0.234394 0.139765 0.006678
O21   O     O_2   0.104378 0.148379 0.156034 -0.331029
O22   O     O_2   0.946488 0.240521 0.049766 -0.342395
O23   O     O_3   0.132678 0.323502 0.166738 -0.500526
H17   H     H_    0.065720 0.377414 0.143871 0.368879
C35   C     C_1   0.266937 0.716488 0.972713 0.277183
N1    N     N_1   0.369185 0.746597 0.022106 -0.316911
C36   C     C_1   0.184117 0.063841 0.623044 0.278625
N2    N     N_1   0.191522 0.141284 0.610949 -0.379795
S2    S     S_3+6 0.827239 0.597625 0.246928 -0.017520
O24   O     O_2   0.923371 0.506347 0.255518 -0.357991
O25   O     O_2   0.672796 0.607779 0.310524 -0.343281
O26   O     O_3   0.725733 0.604658 0.153120 -0.508829
H18   H     H_    0.627626 0.555787 0.151540 0.370059

loop_
_geom_bond_atom_site_label_1
_geom_bond_atom_site_label_2
_ccdc_geom_bond_type
O26   H18   S    
O14   C32   A    
V4    O20   S    
C6    C7    A    
S2    O26   S    
C1    O6    A    
C27   S1    S    
C11   C33   S    
C28   H14   S    
C23   C24   D    
C12   C15   A    
C13   C14   A    
C16   C17   A    
O15   V3    S    
C15   C16   A    
S2    O25   D    
C19   C21   S    
O5    C3    A    
C17   C18   A    
V3    O20   S    
V2    O10   S    
O12   C31   A    
C5    C6    A    
O8    V2    S    
C15   H5    S    
C26   H13   S    
C19   S2    S    
O18   V4    S    
O17   V4    S    
C10   C14   A    
C4    C14   S    
O7    V1    S    
O11   V4    S    
C27   C29   S    
C7    H4    S    
C21   H8    S    
C13   C18   A    
O9    C4    A    
H1    C17   S    
C22   H9    S    
C2    C30   S    
C23   H10   S    
C24   H11   S    
C31   O16   A    
O17   V3    S    
C11   C12   A    
C6    H3    S    
O4    C2    A    
O23   H17   S    
C12   C13   A    
O16   V4    S    
C5    C10   A    
O2    C1    A    
S1    O21   D    
C19   C20   D    
C28   C31   S    
C29   C30   D    
S2    O24   D    
S1    O22   D    
O3    C4    A    
C22   C34   S    
O1    V2    S    
O13   C34   A    
C25   C26   D    
O6    V2    S    
O15   C33   A    
C29   H15   S    
C24   C32   S    
C9    C11   A    
C5    H2    S    
O2    V1    S    
C27   C28   D    
O19   V4    S    
O14   V3    S    
C21   C22   D    
O1    C2    A    
C9    C10   A    
C35   N1    T    
O5    V1    S    
O8    C3    A    
C1    C26   S    
O9    V2    S    
O7    V2    S    
C16   C36   S    
O3    V1    S    
V1    O10   S    
O11   C32   A    
O13   V3    S    
C20   H7    S    
C8    C35   S    
C25   H12   S    
C30   H16   S    
C3    C20   S    
O18   C33   A    
S1    O23   S    
O4    V1    S    
O19   C34   A    
C7    C8    A    
O12   V3    S    
C36   N2    T    
C18   H6    S    
C8    C9    A    
C23   C25   S    
