data_mof_unit_47719.cif
_audit_creation_date              2012-12-10T17:10:59-0500
_audit_creation_method            fapswitch 2.2
_symmetry_space_group_name_H-M    P1
_symmetry_Int_Tables_number       1
_space_group_crystal_system       triclinic
_cell_length_a                    11.660857
_cell_length_b                    13.000896
_cell_length_c                    13.428359
_cell_angle_alpha                 91.900846
_cell_angle_beta                  76.251424
_cell_angle_gamma                 99.932978
_cell_volume                      1947.72545152

loop_
_atom_site_label
_atom_site_type_symbol
_atom_type_description
_atom_site_fract_x
_atom_site_fract_y
_atom_site_fract_z
_atom_type_partial_charge
C1    C     C_R   0.521025 0.700912 0.501290 0.801336
C2    C     C_R   0.446869 0.502238 0.976361 0.025929
C3    C     C_R   0.476443 0.534025 0.872116 0.085920
C4    C     C_R   0.536233 0.525158 0.033941 0.104554
C5    C     C_R   0.649125 0.586142 0.989022 0.169244
C6    C     C_R   0.670747 0.626298 0.890225 -0.247015
C7    C     C_R   0.584761 0.602470 0.833516 -0.179534
C8    C     C_R   0.516756 0.490435 0.135323 -0.239993
C9    C     C_R   0.714066 0.577683 0.146772 -0.206686
C10   C     C_R   0.396350 0.497184 0.809190 -0.185320
C11   C     C_R   0.467526 0.185733 0.496481 -0.051431
C12   C     C_R   0.436287 0.499691 0.696317 0.816384
C13   C     C_R   0.533404 0.814384 0.501569 -0.049827
C14   C     C_R   0.653098 0.985027 0.508743 -0.217572
C15   C     C_R   0.642097 0.876873 0.508593 -0.200120
C16   C     C_R   0.435732 0.860751 0.494621 -0.265029
C17   C     C_R   0.446009 0.968792 0.494773 0.175720
C18   C     C_R   0.555552 0.031411 0.501875 0.179125
C19   C     C_R   0.565655 0.139448 0.502414 -0.266886
C20   C     C_R   0.359006 0.123244 0.489077 -0.194914
C21   C     C_R   0.348337 0.015138 0.488175 -0.214299
C22   C     C_R   0.947370 0.600515 0.590959 -0.307639
C23   C     C_R   0.479217 0.299124 0.498172 0.814706
C24   C     C_R   0.828429 0.591081 0.582332 0.098863
C25   C     C_R   0.856034 0.455688 0.461027 0.038476
C26   C     C_R   0.977009 0.462662 0.466472 -0.031416
C27   C     C_R   0.022714 0.536023 0.532909 0.007155
C28   C     C_R   0.143095 0.543411 0.539212 -0.000068
C29   C     C_R   0.173157 0.410098 0.415832 -0.029287
C30   C     C_R   0.053036 0.398126 0.408074 0.295899
C31   C     C_R   0.564066 0.505320 0.304023 0.803317
C32   C     C_R   0.737912 0.609550 0.044855 -0.196508
C33   C     C_R   0.601927 0.520681 0.192932 -0.052765
C34   C     C_R   0.279898 0.446850 0.854301 -0.248361
C35   C     C_R   0.243813 0.427957 0.959437 0.492672
C36   C     C_R   0.328793 0.450171 0.018958 -0.296708
Cu1   Cu    Cu3+1 0.386470 0.492430 0.492410 0.934662
Cu2   Cu    Cu3+1 0.613530 0.507570 0.507590 0.935797
H1    H     H_    0.780834 0.601840 0.190639 0.152380
H2    H     H_    0.282354 0.157772 0.484132 0.149596
H3    H     H_    0.737417 0.032244 0.514536 0.132472
H4    H     H_    0.263928 0.967916 0.482603 0.133176
H5    H     H_    0.718519 0.842298 0.514074 0.153477
H6    H     H_    0.351480 0.813001 0.489215 0.152106
H7    H     H_    0.178941 0.599087 0.590494 0.130942
H8    H     H_    0.232391 0.362132 0.369587 0.137070
H9    H     H_    0.980225 0.658197 0.642154 0.130312
H10   H     H_    0.771786 0.642310 0.625934 0.108994
H11   H     H_    0.754224 0.677092 0.856786 0.135955
H12   H     H_    0.818944 0.399977 0.410472 0.157878
H13   H     H_    0.824200 0.655876 0.010806 0.133873
H14   H     H_    0.434635 0.441665 0.173093 0.143486
H15   H     H_    0.216830 0.419865 0.807535 0.177447
H16   H     H_    0.299034 0.426453 0.098074 0.138198
H17   H     H_    0.602870 0.640707 0.759970 0.148275
H18   H     H_    0.649937 0.187218 0.507764 0.152490
N1    N     N_R   0.215880 0.481050 0.481000 -0.198233
N2    N     N_R   0.784100 0.518950 0.519000 -0.187683
O1    O     O_R   0.419710 0.645650 0.494620 -0.585476
O2    O     O_R   0.611450 0.658430 0.507430 -0.599210
O3    O     O_R   0.357340 0.490460 0.641450 -0.581382
O4    O     O_R   0.549080 0.503250 0.654260 -0.576572
O5    O     O_R   0.388550 0.341570 0.492570 -0.591275
O6    O     O_R   0.580290 0.354350 0.505380 -0.588732
O7    O     O_R   0.450920 0.496750 0.345740 -0.580912
O8    O     O_R   0.642660 0.509540 0.358550 -0.588601
O9    O     O_3   0.012527 0.328132 0.339211 -0.600199
C37   C     C_3   0.985143 0.227133 0.383157 0.046371
H19   H     H_    0.922151 0.225246 0.460228 0.132764
H20   H     H_    0.068343 0.199785 0.390093 0.140941
C38   C     C_3   0.924952 0.151967 0.314352 -0.787137
H21   H     H_    0.984849 0.152222 0.236459 0.259691
H22   H     H_    0.905409 0.071649 0.346794 0.199127
H23   H     H_    0.839549 0.175598 0.308719 0.242878
O10   O     O_3   0.128733 0.375721 0.000047 -0.578607
C39   C     C_3   0.067667 0.436648 0.077348 0.063511
H24   H     H_    0.075211 0.518280 0.050295 0.125748
H25   H     H_    0.102751 0.437879 0.147514 0.176332
C40   C     C_3   0.935491 0.388744 0.106469 -0.711086
H26   H     H_    0.924704 0.306648 0.132337 0.262386
H27   H     H_    0.887584 0.433688 0.169942 0.200480
H28   H     H_    0.895306 0.390420 0.039507 0.238367

loop_
_geom_bond_atom_site_label_1
_geom_bond_atom_site_label_2
_ccdc_geom_bond_type
C19   H18   S    
C31   O8    A    
C14   C18   A    
C35   C36   A    
C39   C40   S    
C7    H17   S    
C4    C8    A    
C28   N1    A    
C11   C19   A    
C26   C27   A    
C29   C30   A    
C39   H25   S    
C34   C35   A    
C3    C7    A    
C1    O1    A    
C5    C6    A    
C20   H2    S    
C9    H1    S    
C18   C19   A    
C25   H12   S    
C9    C32   A    
Cu2   N2    S    
Cu2   O8    S    
C16   C17   A    
Cu1   O7    S    
C31   C33   S    
C8    H14   S    
C30   O9    S    
C5    C32   A    
C23   O5    A    
C22   H9    S    
C9    C33   A    
Cu1   O5    S    
Cu2   O6    S    
C11   C20   A    
C28   H7    S    
O9    C37   S    
C24   H10   S    
C39   H24   S    
C1    O2    A    
C38   H22   S    
C37   H19   S    
C25   C26   A    
C17   C21   A    
C40   H26   S    
C2    C4    A    
O10   C39   S    
C32   H13   S    
Cu1   Cu2   S    
C40   H28   S    
C12   O4    A    
C35   O10   S    
C17   C18   A    
C10   C34   A    
Cu1   O1    S    
C10   C12   S    
C14   H3    S    
Cu2   O2    S    
C24   N2    A    
C23   O6    A    
C29   N1    A    
C26   C30   A    
C22   C27   A    
C13   C15   A    
C22   C24   A    
C1    C13   S    
C25   N2    A    
C40   H27   S    
C2    C36   A    
C31   O7    A    
C16   H6    S    
C4    C5    A    
C38   H23   S    
Cu1   O3    S    
C6    C7    A    
C29   H8    S    
C2    C3    A    
C15   H5    S    
C38   H21   S    
C3    C10   A    
C12   O3    A    
C37   C38   S    
C11   C23   S    
C8    C33   A    
C6    H11   S    
C36   H16   S    
C21   H4    S    
C20   C21   A    
C34   H15   S    
C37   H20   S    
C13   C16   A    
C27   C28   A    
C14   C15   A    
Cu1   N1    S    
Cu2   O4    S    
