data_mof_unit_54535.cif
_audit_creation_date              2012-12-10T17:05:12-0500
_audit_creation_method            fapswitch 2.2
_symmetry_space_group_name_H-M    P1
_symmetry_Int_Tables_number       1
_space_group_crystal_system       triclinic
_cell_length_a                    10.7478
_cell_length_b                    11.041542
_cell_length_c                    9.854275
_cell_angle_alpha                 111.145633
_cell_angle_beta                  98.677741
_cell_angle_gamma                 91.178149
_cell_volume                      1074.62990537

loop_
_atom_site_label
_atom_site_type_symbol
_atom_type_description
_atom_site_fract_x
_atom_site_fract_y
_atom_site_fract_z
_atom_type_partial_charge
C1    C     C_R   0.490903 0.254095 0.440597 0.871472
C2    C     C_3   0.878124 0.502599 0.497784 -0.107739
C3    C     C_3   0.946432 0.641023 0.592642 0.159803
C4    C     C_3   0.905945 0.460868 0.337837 -0.311462
C5    C     C_2   0.485891 0.114648 0.407179 -0.277355
C6    C     C_2   0.501369 0.069572 0.516591 -0.126047
C7    C     C_2   0.511632 0.885293 0.593029 -0.297478
C8    C     C_2   0.496243 0.930397 0.483642 -0.075237
C9    C     C_2   0.512898 0.509599 0.084188 -0.007445
C10   C     C_2   0.491598 0.490440 0.921780 0.013876
C11   C     C_R   0.259832 0.498065 0.499968 0.778542
C12   C     C_R   0.507199 0.745848 0.559490 0.913094
C13   C     C_R   0.740161 0.501371 0.499396 0.901548
C14   C     C_3   0.076356 0.394746 0.556650 -0.420969
C15   C     C_3   0.934150 0.402807 0.564531 0.423423
C16   C     C_3   0.091352 0.634203 0.602560 -0.421157
C17   C     C_3   0.048817 0.467979 0.340605 -0.348401
C18   C     C_3   0.122018 0.498675 0.499980 -0.000454
Cu1   Cu    Cu3+1 0.522160 0.521810 0.644910 1.063497
Cu2   Cu    Cu3+1 0.477840 0.478190 0.355090 0.987008
H1    H     H_    0.129994 0.410161 0.668190 0.146104
H2    H     H_    0.861895 0.523742 0.280905 0.246974
H3    H     H_    0.135701 0.711672 0.573865 0.218814
H4    H     H_    0.480020 0.864422 0.368695 0.201768
H5    H     H_    0.517856 0.135555 0.631534 0.176631
H6    H     H_    0.528239 0.951499 0.707801 0.154928
H7    H     H_    0.469305 0.048362 0.292429 0.169354
H8    H     H_    0.417493 0.417737 0.849283 0.090478
H9    H     H_    0.587191 0.578541 0.161159 0.244132
H10   H     H_    0.093826 0.296051 0.481522 0.217260
H11   H     H_    0.373371 0.379702 0.064558 0.194348
H12   H     H_    0.922251 0.434295 0.682300 0.115645
H13   H     H_    0.134612 0.651816 0.718751 0.156828
H14   H     H_    0.924748 0.669749 0.706390 0.108302
H15   H     H_    0.075440 0.544549 0.299107 0.223457
H16   H     H_    0.073922 0.373275 0.263941 0.181844
H17   H     H_    0.864780 0.359488 0.271793 0.214393
N1    N     N_2   0.444530 0.445420 0.137360 -0.323035
N2    N     N_2   0.555520 0.554510 0.862630 0.010979
O1    O     O_R   0.511820 0.332340 0.577400 -0.598978
O2    O     O_R   0.474400 0.295500 0.332650 -0.573485
O3    O     O_R   0.336400 0.518400 0.622370 -0.609950
O4    O     O_R   0.298980 0.481560 0.377620 -0.589543
O5    O     O_R   0.525600 0.704500 0.667350 -0.526521
O6    O     O_R   0.488180 0.667660 0.422600 -0.572890
O7    O     O_R   0.701020 0.518440 0.622380 -0.544613
O8    O     O_R   0.663600 0.481600 0.377630 -0.569805
S1    S     S_3+6 0.896849 0.769196 0.527266 0.029619
O9    O     O_2   0.963255 0.767947 0.403055 -0.230536
O10   O     O_2   0.757236 0.754705 0.473464 -0.291094
O11   O     O_3   0.934672 0.913664 0.667013 -0.483147
H18   H     H_    0.879442 0.913886 0.738993 0.347085
S2    S     S_3+6 0.674559 0.672633 0.972613 0.115925
O12   O     O_2   0.621280 0.775458 0.091675 -0.287033
O13   O     O_2   0.775871 0.610923 0.042113 -0.301092
O14   O     O_3   0.738726 0.743531 0.871726 -0.503436
H19   H     H_    0.807435 0.806110 0.941890 0.355847
F1    F     F_    0.870898 0.280265 0.490339 -0.634077

loop_
_geom_bond_atom_site_label_1
_geom_bond_atom_site_label_2
_ccdc_geom_bond_type
C2    C4    S    
Cu1   O3    S    
C11   C18   S    
C11   O4    A    
C17   H16   S    
C16   H13   S    
C4    H2    S    
C9    C10   S    
C14   C18   S    
Cu1   Cu2   S    
C3    H14   S    
H11   N1    S    
C9    H9    S    
Cu1   O5    S    
S1    O10   D    
C2    C3    S    
Cu1   O7    S    
C15   H12   S    
C12   O5    A    
C5    H7    S    
S2    O12   D    
C4    H17   S    
C2    C15   S    
N2    S2    S    
C7    H6    S    
Cu1   N2    S    
C14   H10   S    
C1    C5    S    
C4    C17   S    
C14   H1    S    
C1    O2    A    
S1    O9    D    
C8    H4    S    
C17   C18   S    
C16   H3    S    
S2    O13   D    
C7    C12   S    
C15   F1    S    
C6    H5    S    
Cu1   O1    S    
O11   H18   S    
Cu2   O8    S    
C3    S1    S    
C7    C8    D    
Cu2   O4    S    
Cu2   N1    S    
O14   H19   S    
C11   O3    A    
C16   C18   S    
S2    O14   S    
C10   H8    S    
C5    C6    D    
C2    C13   S    
C13   O7    A    
C9    N1    D    
C6    C8    S    
C17   H15   S    
C1    O1    A    
C14   C15   S    
C13   O8    A    
C10   N2    D    
S1    O11   S    
C3    C16   S    
Cu2   O6    S    
Cu2   O2    S    
C12   O6    A    
