data_mof_unit_59590.cif
_audit_creation_date              2012-12-11T17:36:26-0500
_audit_creation_method            fapswitch 2.2
_symmetry_space_group_name_H-M    P1
_symmetry_Int_Tables_number       1
_space_group_crystal_system       triclinic
_cell_length_a                    26.005769
_cell_length_b                    6.908958
_cell_length_c                    21.570588
_cell_angle_alpha                 89.993857
_cell_angle_beta                  95.961592
_cell_angle_gamma                 89.991627
_cell_volume                      3854.68663568

loop_
_atom_site_label
_atom_site_type_symbol
_atom_type_description
_atom_site_fract_x
_atom_site_fract_y
_atom_site_fract_z
_atom_type_partial_charge
O1    O     O_R   0.208650 0.594520 0.175450 -0.539424
O2    O     O_R   0.791350 0.405480 0.824550 -0.539424
O3    O     O_R   0.291350 0.094520 0.324550 -0.539428
O4    O     O_R   0.708650 0.905480 0.675450 -0.539428
O5    O     O_R   0.192980 0.260780 0.300160 -0.552914
O6    O     O_R   0.807020 0.739220 0.699840 -0.552914
O7    O     O_R   0.307020 0.760780 0.199840 -0.552920
O8    O     O_R   0.692980 0.239220 0.800160 -0.552919
C1    C     C_R   0.179385 0.432941 0.319120 0.714780
C2    C     C_R   0.820614 0.567059 0.680880 0.714781
C3    C     C_R   0.320616 0.932937 0.180882 0.714793
C4    C     C_R   0.679384 0.067063 0.819118 0.714793
O9    O     O_R   0.202550 0.264660 0.174420 -0.529439
O10   O     O_R   0.797450 0.735340 0.825580 -0.529438
O11   O     O_R   0.297450 0.764660 0.325580 -0.529452
O12   O     O_R   0.702550 0.235340 0.674420 -0.529452
O13   O     O_R   0.300990 0.096480 0.197920 -0.515188
O14   O     O_R   0.699010 0.903520 0.802080 -0.515187
O15   O     O_R   0.199010 0.596480 0.302080 -0.515221
O16   O     O_R   0.800990 0.403520 0.697920 -0.515222
C5    C     C_R   0.190751 0.433494 0.151269 0.704024
C6    C     C_R   0.809249 0.566506 0.848731 0.704022
C7    C     C_R   0.309254 0.933450 0.348730 0.703939
C8    C     C_R   0.690746 0.066550 0.651270 0.703940
O17   O     O_3   0.282290 0.427760 0.257860 -0.367476
O18   O     O_3   0.717710 0.572240 0.742140 -0.367475
O19   O     O_3   0.217710 0.927760 0.242140 -0.367474
O20   O     O_3   0.782290 0.072240 0.757860 -0.367474
V1    V     V_3+5 0.244010 0.152080 0.248540 1.420726
V2    V     V_3+5 0.755990 0.847920 0.751460 1.420728
V3    V     V_3+5 0.255990 0.652080 0.251460 1.420717
V4    V     V_3+5 0.744010 0.347920 0.748540 1.420718
C9    C     C_R   0.656825 0.060639 0.591930 -0.044543
C10   C     C_R   0.343175 0.939361 0.408070 -0.044543
C11   C     C_R   0.843165 0.560358 0.908068 -0.044331
C12   C     C_R   0.156835 0.439642 0.091932 -0.044331
C13   C     C_R   0.645683 0.118931 0.480805 -0.165959
C14   C     C_R   0.354317 0.881071 0.519195 -0.165958
C15   C     C_R   0.854163 0.615987 0.019332 -0.165874
C16   C     C_R   0.145837 0.384003 0.980668 -0.165874
C17   C     C_R   0.677240 0.111202 0.536877 -0.170108
C18   C     C_R   0.322759 0.888800 0.463123 -0.170108
C19   C     C_R   0.822646 0.609078 0.963218 -0.170075
C20   C     C_R   0.177354 0.390913 0.036782 -0.170075
C21   C     C_R   0.603740 0.018388 0.590488 -0.218070
C22   C     C_R   0.396260 0.981611 0.409511 -0.218070
C23   C     C_R   0.896305 0.519118 0.909455 -0.218044
C24   C     C_R   0.103695 0.480887 0.090545 -0.218043
C25   C     C_R   0.570235 0.028403 0.533732 0.088553
C26   C     C_R   0.429765 0.971596 0.466268 0.088553
C27   C     C_R   0.929760 0.528220 0.966264 0.088591
C28   C     C_R   0.070240 0.471782 0.033736 0.088590
C29   C     C_R   0.592637 0.079367 0.478732 0.142575
C30   C     C_R   0.407363 0.920634 0.521268 0.142575
C31   C     C_R   0.907258 0.577319 0.021362 0.142560
C32   C     C_R   0.092742 0.422677 0.978638 0.142560
C33   C     C_R   0.515504 0.992252 0.529530 0.057604
C34   C     C_R   0.484496 0.007747 0.470470 0.057604
C35   C     C_R   0.984527 0.492824 0.970435 0.057609
C36   C     C_R   0.015473 0.507178 0.029565 0.057609
C37   C     C_R   0.509277 0.058289 0.417623 -0.188536
C38   C     C_R   0.490723 0.941712 0.582377 -0.188536
C39   C     C_R   0.990596 0.555877 0.082509 -0.188507
C40   C     C_R   0.009404 0.444121 0.917490 -0.188507
C41   C     C_R   0.562084 0.092853 0.421842 -0.202994
C42   C     C_R   0.437916 0.907147 0.578158 -0.202994
C43   C     C_R   0.937754 0.589744 0.078317 -0.202989
C44   C     C_R   0.062245 0.410251 0.921683 -0.202989
H1    H     H_    0.579229 0.131833 0.379845 0.121893
H2    H     H_    0.420771 0.868168 0.620155 0.121893
H3    H     H_    0.920534 0.627279 0.120392 0.121868
H4    H     H_    0.079465 0.372712 0.879608 0.121867
H5    H     H_    0.410087 0.017280 0.365551 0.091652
H6    H     H_    0.589913 0.982717 0.634449 0.091652
H7    H     H_    0.089801 0.515255 0.134571 0.091512
H8    H     H_    0.910199 0.484759 0.865429 0.091513
H9    H     H_    0.282254 0.853902 0.462696 0.118841
H10   H     H_    0.717746 0.146100 0.537304 0.118841
H11   H     H_    0.217912 0.356905 0.037153 0.118495
H12   H     H_    0.782087 0.643081 0.962847 0.118493
H13   H     H_    0.662780 0.158626 0.438861 0.111064
H14   H     H_    0.337220 0.841376 0.561139 0.111064
H15   H     H_    0.836989 0.654225 0.061356 0.111032
H16   H     H_    0.163011 0.345759 0.938644 0.111031
H17   H     H_    0.488890 0.073060 0.371835 0.122840
H18   H     H_    0.511110 0.926941 0.628165 0.122840
H19   H     H_    0.010931 0.569674 0.128358 0.122836
H20   H     H_    0.989069 0.430322 0.871642 0.122836
C45   C     C_R   0.443693 0.829884 0.104175 -0.137394
C46   C     C_R   0.556307 0.170115 0.895826 -0.137393
C47   C     C_R   0.056304 0.329950 0.395814 -0.137392
C48   C     C_R   0.943696 0.670050 0.604186 -0.137392
H21   H     H_    0.475800 0.729393 0.110136 0.121384
H22   H     H_    0.524200 0.270607 0.889865 0.121384
H23   H     H_    0.024198 0.229494 0.389849 0.121385
H24   H     H_    0.975802 0.770506 0.610151 0.121385
C49   C     C_R   0.404051 0.816415 0.143636 -0.257743
C50   C     C_R   0.595949 0.183585 0.856364 -0.257743
C51   C     C_R   0.095948 0.316476 0.356356 -0.257745
C52   C     C_R   0.904051 0.683524 0.643644 -0.257745
H25   H     H_    0.406622 0.706010 0.179462 0.130734
H26   H     H_    0.593378 0.293990 0.820538 0.130733
H27   H     H_    0.093381 0.206100 0.320528 0.130737
H28   H     H_    0.906619 0.793900 0.679471 0.130737
C53   C     C_R   0.362035 0.946135 0.137751 -0.085881
C54   C     C_R   0.637965 0.053865 0.862249 -0.085882
C55   C     C_R   0.137965 0.446147 0.362248 -0.085860
C56   C     C_R   0.862035 0.553853 0.637752 -0.085860
C57   C     C_R   0.360435 0.089546 0.090463 0.277900
C58   C     C_R   0.639565 0.910454 0.909537 0.277899
C59   C     C_R   0.139564 0.589500 0.409544 0.277926
C60   C     C_R   0.860436 0.410500 0.590456 0.277927
C61   C     C_R   0.400027 0.099793 0.050734 -0.197874
C62   C     C_R   0.599973 0.900207 0.949266 -0.197873
C63   C     C_R   0.099968 0.599760 0.449266 -0.197870
C64   C     C_R   0.900032 0.400240 0.550734 -0.197870
H29   H     H_    0.398080 0.209032 0.014479 0.117296
H30   H     H_    0.601921 0.790968 0.985522 0.117296
H31   H     H_    0.101917 0.708943 0.485530 0.117301
H32   H     H_    0.898083 0.291057 0.514470 0.117301
C65   C     C_R   0.441968 0.972479 0.057694 0.087450
C66   C     C_R   0.558033 0.027521 0.942307 0.087450
C67   C     C_R   0.058027 0.472500 0.442298 0.087443
C68   C     C_R   0.941973 0.527500 0.557701 0.087443
C69   C     C_1   0.483013 0.990998 0.017106 -0.048305
C70   C     C_1   0.516988 0.009002 0.982894 -0.048305
C71   C     C_1   0.016985 0.491004 0.482891 -0.048303
C72   C     C_1   0.983014 0.508996 0.517109 -0.048303
N1    N     N_2   0.317997 0.219238 0.080671 -0.534950
H33   H     H_    0.301598 0.218761 0.035039 0.235673
C73   C     C_3   0.329663 0.413715 0.102594 -0.479204
H34   H     H_    0.358306 0.482186 0.074665 0.176198
H35   H     H_    0.345264 0.411798 0.152519 0.213185
H36   H     H_    0.293895 0.502287 0.097739 0.181796
N2    N     N_2   0.682004 0.780761 0.919329 -0.534950
H37   H     H_    0.698403 0.781238 0.964961 0.235674
C74   C     C_3   0.670337 0.586284 0.897406 -0.479204
H38   H     H_    0.641695 0.517813 0.925336 0.176198
H39   H     H_    0.706105 0.497713 0.902259 0.181797
H40   H     H_    0.654735 0.588202 0.847481 0.213183
N3    N     N_2   0.182023 0.719030 0.419380 -0.535086
H41   H     H_    0.198393 0.718423 0.465024 0.235625
C75   C     C_3   0.170408 0.913593 0.397478 -0.479209
H42   H     H_    0.141755 0.982112 0.425385 0.176216
H43   H     H_    0.154841 0.911836 0.347541 0.213263
H44   H     H_    0.206197 0.002019 0.402389 0.181770
N4    N     N_2   0.817977 0.280970 0.580620 -0.535085
H45   H     H_    0.801607 0.281579 0.534976 0.235625
C76   C     C_3   0.829592 0.086406 0.602521 -0.479212
H46   H     H_    0.858245 0.017889 0.574614 0.176216
H47   H     H_    0.793804 0.997979 0.597610 0.181768
H48   H     H_    0.845158 0.088162 0.652458 0.213264

loop_
_geom_bond_atom_site_label_1
_geom_bond_atom_site_label_2
_ccdc_geom_bond_type
O17   V3    S    
C75   H44   S    
C51   H27   S    
O1    C5    A    
O19   V1    S    
C9    C21   A    
C16   H16   S    
C2    C56   S    
N4    H45   S    
C10   C18   A    
O1    V3    S    
C73   H36   S    
O15   V3    S    
C25   C33   A    
N2    H37   S    
C5    C12   S    
O7    C3    A    
C6    C11   S    
C38   H18   S    
C35   C40   A    
C26   C30   A    
C36   C39   A    
C40   C44   A    
O9    V1    S    
N4    C76   S    
C23   H8    S    
C14   C18   A    
C76   H47   S    
C54   C58   A    
O4    C8    A    
C25   C29   A    
C44   H4    S    
C75   H42   S    
C75   H43   S    
C48   H24   S    
O13   V1    S    
C31   C43   A    
O2    V4    S    
O3    V1    S    
C28   C36   A    
C65   C69   S    
C28   C32   A    
O3    C7    A    
C1    O15   A    
C52   H28   S    
C15   C31   A    
C2    O16   A    
C16   C32   A    
O2    C6    A    
C10   C22   A    
C11   C19   A    
C58   C62   A    
C16   C20   A    
C43   H3    S    
C57   C61   A    
C68   C72   S    
C13   C29   A    
C34   C37   A    
O11   C7    A    
C11   C23   A    
C35   C36   A    
O12   C8    A    
C47   C67   A    
C14   H14   S    
C45   H21   S    
C46   C66   A    
C24   H7    S    
C13   H13   S    
C58   N2    S    
O10   V2    S    
C46   H22   S    
O5    V1    S    
O17   V1    S    
C74   H40   S    
C39   C43   A    
C52   C56   A    
O7    V3    S    
C38   C42   A    
O19   V3    S    
C26   C34   A    
O20   V4    S    
C63   C67   A    
C76   H48   S    
C17   H10   S    
O18   V4    S    
C23   C27   A    
C33   C38   A    
C19   H12   S    
C32   C44   A    
C47   H23   S    
C64   H32   S    
C45   C49   A    
C21   H6    S    
O8    V4    S    
C66   C70   S    
O5    C1    A    
C37   C41   A    
C74   H39   S    
C67   C71   S    
C14   C30   A    
C21   C25   A    
O8    C4    A    
C7    C10   S    
O9    C5    A    
C3    C53   S    
C62   H30   S    
C37   H17   S    
C61   H29   S    
O6    V2    S    
C48   C68   A    
O18   V2    S    
C63   H31   S    
C57   N1    S    
C69   C70   T    
C12   C20   A    
C27   C35   A    
C73   H34   S    
C60   C64   A    
C29   C41   A    
C48   C52   A    
N1    H33   S    
O16   V4    S    
N2    C74   S    
C53   C57   A    
C3    O13   A    
C64   C68   A    
C39   H19   S    
C55   C59   A    
C20   H11   S    
C73   H35   S    
O6    C2    A    
C15   C19   A    
O11   V3    S    
C30   C42   A    
O12   V4    S    
C51   C55   A    
C74   H38   S    
C22   C26   A    
C8    C9    S    
C50   C54   A    
C60   N4    S    
C9    C17   A    
O10   C6    A    
N3    C75   S    
C49   C53   A    
C50   H26   S    
N3    H41   S    
C4    C54   S    
C33   C34   A    
C42   H2    S    
C45   C65   A    
C41   H1    S    
O20   V2    S    
C46   C50   A    
C12   C24   A    
C27   C31   A    
C13   C17   A    
O4    V2    S    
C59   N3    S    
O14   V2    S    
C15   H15   S    
C62   C66   A    
C56   C60   A    
C24   C28   A    
C61   C65   A    
C18   H9    S    
C4    O14   A    
C1    C55   S    
C59   C63   A    
C47   C51   A    
C76   H46   S    
C40   H20   S    
C22   H5    S    
C49   H25   S    
C71   C72   T    
N1    C73   S    
